# generated using pymatgen
data_V85Zn86O256
_symmetry_space_group_name_H-M   'P 1'
_cell_length_a   16.95001844
_cell_length_b   16.95039677
_cell_length_c   16.93993166
_cell_angle_alpha   90.07119365
_cell_angle_beta   90.00697998
_cell_angle_gamma   90.02227164
_symmetry_Int_Tables_number   1
_chemical_formula_structural   V85Zn86O256
_chemical_formula_sum   'V85 Zn86 O256'
_cell_volume   4866.99977716
_cell_formula_units_Z   1
loop_
 _symmetry_equiv_pos_site_id
 _symmetry_equiv_pos_as_xyz
  1  'x, y, z'
loop_
 _atom_site_type_symbol
 _atom_site_label
 _atom_site_symmetry_multiplicity
 _atom_site_fract_x
 _atom_site_fract_y
 _atom_site_fract_z
 _atom_site_occupancy
  V  V0  1  0.50281054  0.49140863  0.49574154  1
  V  V1  1  0.37971296  -0.00434753  0.37800295  1
  V  V2  1  0.12720534  0.61765437  0.50248584  1
  V  V3  1  0.61111502  0.24821983  0.38201139  1
  V  V4  1  0.13481794  0.87975344  0.74737187  1
  V  V5  1  0.50368263  0.12428417  0.10949437  1
  V  V6  1  0.00152716  -0.00046715  0.00208679  1
  V  V7  1  0.24991094  0.24949376  -0.00243268  1
  V  V8  1  0.74368783  0.61845175  0.86825302  1
  V  V9  1  0.37667959  0.38122189  -0.00132260  1
  V  V10  1  0.75142229  0.37612397  0.63323148  1
  V  V11  1  0.87390540  0.49792130  0.87639936  1
  V  V12  1  0.50754670  -0.00048105  0.51729650  1
  V  V13  1  0.00283279  0.87518898  0.37961955  1
  V  V14  1  0.62439082  0.24636894  0.88166534  1
  V  V15  1  0.87181065  0.50203660  0.37916898  1
  V  V16  1  0.89042196  0.24691831  0.62949262  1
  V  V17  1  0.25172090  0.12661210  0.86003014  1
  V  V18  1  0.25239545  0.74636857  -0.00397277  1
  V  V19  1  0.62640223  0.49904789  0.12483002  1
  V  V20  1  0.25124911  -0.00125888  0.25090981  1
  V  V21  1  0.25536295  0.87677957  0.11796740  1
  V  V22  1  0.62861245  0.62432485  0.49196783  1
  V  V23  1  0.24721512  0.38874789  0.63125278  1
  V  V24  1  0.12701856  0.87467811  0.25052282  1
  V  V25  1  0.25279532  0.62554346  0.37383864  1
  V  V26  1  0.00430784  0.61536675  0.62632684  1
  V  V27  1  0.74500373  0.12094796  0.37069041  1
  V  V28  1  0.73713482  0.87685188  0.62759557  1
  V  V29  1  0.87192226  -0.00141563  0.36852334  1
  V  V30  1  0.61572624  0.37334479  0.25825092  1
  V  V31  1  0.37409439  0.24917372  0.12662138  1
  V  V32  1  0.74165154  0.88018134  0.14350113  1
  V  V33  1  0.49172442  0.63295134  0.62102477  1
  V  V34  1  0.87442120  0.00048188  0.87419551  1
  V  V35  1  0.48575769  0.87827525  0.88093907  1
  V  V36  1  0.87780667  0.87559583  0.50411072  1
  V  V37  1  0.61913433  0.37520124  0.75092067  1
  V  V38  1  0.51054882  0.87730030  0.36981694  1
  V  V39  1  0.12901457  0.74570591  0.87588029  1
  V  V40  1  0.87287141  0.87572300  0.00301879  1
  V  V41  1  0.23816734  0.50130135  0.24561873  1
  V  V42  1  0.74694433  0.36888189  0.12463980  1
  V  V43  1  0.74898308  0.24687360  0.50383226  1
  V  V44  1  0.25175662  0.25594988  0.50004463  1
  V  V45  1  0.62884802  0.62432458  -0.00341821  1
  V  V46  1  0.87374083  0.75098701  0.12694033  1
  V  V47  1  0.86956587  0.62722335  0.25935424  1
  V  V48  1  0.11769895  0.25580892  0.86430750  1
  V  V49  1  0.62747270  0.50327218  0.63142876  1
  V  V50  1  0.37458369  0.87326305  0.51686423  1
  V  V51  1  0.37965690  0.49148720  0.36965674  1
  V  V52  1  0.88726851  0.12624823  0.74841216  1
  V  V53  1  0.12606479  -0.00096775  0.12471588  1
  V  V54  1  0.87571426  0.37379837  0.50146559  1
  V  V55  1  0.37833387  0.75483867  0.11919813  1
  V  V56  1  0.49716631  0.23030889  0.74497130  1
  V  V57  1  0.62802322  0.11790634  0.51664138  1
  V  V58  1  0.37604253  0.62539274  0.24712723  1
  V  V59  1  -0.00004446  0.87383517  0.87656025  1
  V  V60  1  0.38129207  0.12435449  0.25353031  1
  V  V61  1  0.87731302  0.75134825  0.62580018  1
  V  V62  1  0.00160439  0.00437979  0.50982168  1
  V  V63  1  0.37876068  0.01104963  0.88260500  1
  V  V64  1  0.12998952  0.74799149  0.37532246  1
  V  V65  1  0.37555597  0.63253545  0.75893088  1
  V  V66  1  0.50926626  0.75566298  0.24708769  1
  V  V67  1  0.12545528  0.12507485  -0.00094111  1
  V  V68  1  0.00014654  0.74873888  0.24922844  1
  V  V69  1  0.61985025  -0.00022790  0.12714604  1
  V  V70  1  0.74710258  0.12268923  0.88127339  1
  V  V71  1  0.24166499  0.37927257  0.12378939  1
  V  V72  1  0.50154319  0.62537011  0.12235264  1
  V  V73  1  0.11723713  0.25410089  0.36494702  1
  V  V74  1  0.62706352  0.76359363  0.86440181  1
  V  V75  1  0.88040427  0.37386525  0.00009677  1
  V  V76  1  0.75229397  0.74613464  0.49538588  1
  V  V77  1  -0.00119492  0.75089866  0.75013902  1
  V  V78  1  0.73944835  -0.00145389  0.74582787  1
  V  V79  1  0.87886945  0.13425179  0.25145325  1
  V  V80  1  0.24569207  0.12511180  0.37803713  1
  V  V81  1  0.11965819  0.61594534  0.00388521  1
  V  V82  1  0.86867084  0.61981061  0.74854093  1
  V  V83  1  0.74871044  0.75177512  -0.00050439  1
  V  V84  1  0.74588605  0.50371080  0.25712094  1
  Zn  Zn85  1  0.87899744  0.25099240  0.12701958  1
  Zn  Zn86  1  -0.00923195  0.36989881  0.36453283  1
  Zn  Zn87  1  0.00395828  0.49522305  0.50119914  1
  Zn  Zn88  1  0.37778711  0.49911198  0.86714599  1
  Zn  Zn89  1  0.13580949  0.00758741  0.62518643  1
  Zn  Zn90  1  0.74532744  0.24192750  0.00636038  1
  Zn  Zn91  1  0.26620964  0.74799918  0.51300480  1
  Zn  Zn92  1  0.49954245  0.37524375  0.87260088  1
  Zn  Zn93  1  0.50206485  0.76440972  0.73916167  1
  Zn  Zn94  1  0.11321916  0.37364432  0.23872222  1
  Zn  Zn95  1  0.63285823  0.74994816  0.36778229  1
  Zn  Zn96  1  0.37683334  0.37585983  0.50216636  1
  Zn  Zn97  1  0.49439752  0.25357411  0.25862419  1
  Zn  Zn98  1  0.11499864  0.39244671  0.73868264  1
  Zn  Zn99  1  0.11556180  0.13457661  0.50756137  1
  Zn  Zn100  1  0.37235557  0.24608521  0.63628658  1
  Zn  Zn101  1  0.50378326  0.49742861  -0.00402618  1
  Zn  Zn102  1  0.00659233  0.13027343  0.13534004  1
  Zn  Zn103  1  0.22510684  0.53861633  0.78852855  1
  Zn  Zn104  1  0.26447277  -0.00225783  0.73984409  1
  Zn  Zn105  1  -0.00163614  0.37684802  0.87133501  1
  Zn  Zn106  1  0.00771701  0.60883464  0.12714583  1
  Zn  Zn107  1  0.19012532  0.18637965  0.18796352  1
  Zn  Zn108  1  0.18241325  0.18942090  0.67947823  1
  Zn  Zn109  1  0.18882037  0.68674197  0.18339258  1
  Zn  Zn110  1  0.19082702  0.69150472  0.68317438  1
  Zn  Zn111  1  0.68329162  0.18495400  0.19349996  1
  Zn  Zn112  1  0.69379407  0.18959906  0.69573670  1
  Zn  Zn113  1  0.69148383  0.68573891  0.18519474  1
  Zn  Zn114  1  0.68645576  0.68897833  0.68175259  1
  Zn  Zn115  1  0.30673772  0.31213952  0.31198122  1
  Zn  Zn116  1  0.31272981  0.31447662  0.81005941  1
  Zn  Zn117  1  0.31710445  0.81256825  0.31132866  1
  Zn  Zn118  1  0.31691000  0.80735616  0.80894651  1
  Zn  Zn119  1  0.80239858  0.31201486  0.31609296  1
  Zn  Zn120  1  0.81147942  0.30846338  0.81136667  1
  Zn  Zn121  1  0.81490606  0.81411303  0.31684168  1
  Zn  Zn122  1  0.81020431  0.81317743  0.81166585  1
  Zn  Zn123  1  0.18969101  0.43559689  0.43340877  1
  Zn  Zn124  1  0.19185156  0.43862493  0.93527356  1
  Zn  Zn125  1  0.19065223  0.93747368  0.44339521  1
  Zn  Zn126  1  0.19391019  0.93737339  0.93309775  1
  Zn  Zn127  1  0.68843939  0.43422610  0.44082127  1
  Zn  Zn128  1  0.69022718  0.43664001  0.93690978  1
  Zn  Zn129  1  0.68962515  0.93625686  0.43949319  1
  Zn  Zn130  1  0.68707470  0.94306213  0.94573428  1
  Zn  Zn131  1  0.31567096  0.06280705  0.05871154  1
  Zn  Zn132  1  0.31404810  0.07032372  0.57321910  1
  Zn  Zn133  1  0.30839209  0.56386677  0.05755292  1
  Zn  Zn134  1  0.31575585  0.56114870  0.55833229  1
  Zn  Zn135  1  0.80875778  0.05850944  0.06659063  1
  Zn  Zn136  1  0.81555381  0.06247219  0.56463168  1
  Zn  Zn137  1  0.83851305  0.54648463  0.07945521  1
  Zn  Zn138  1  0.81083235  0.56174503  0.56546624  1
  Zn  Zn139  1  0.43587304  0.43857716  0.18306625  1
  Zn  Zn140  1  0.43328130  0.44087469  0.68332132  1
  Zn  Zn141  1  0.44004018  0.93921238  0.18534182  1
  Zn  Zn142  1  0.44314463  0.94009723  0.69929667  1
  Zn  Zn143  1  0.93904363  0.43711351  0.18559748  1
  Zn  Zn144  1  0.93773123  0.43619659  0.69385178  1
  Zn  Zn145  1  0.93811629  0.93960504  0.18986132  1
  Zn  Zn146  1  0.93565893  0.93694641  0.69078635  1
  Zn  Zn147  1  0.06077560  0.06174380  0.31730248  1
  Zn  Zn148  1  0.06523606  0.06223414  0.81516494  1
  Zn  Zn149  1  0.05657348  0.56113222  0.31486284  1
  Zn  Zn150  1  0.05328672  0.56371989  0.81820308  1
  Zn  Zn151  1  0.56628389  0.06068215  0.31088991  1
  Zn  Zn152  1  0.56260346  0.05811288  0.81876918  1
  Zn  Zn153  1  0.56082249  0.56529290  0.31198296  1
  Zn  Zn154  1  0.55552670  0.56287994  0.80981764  1
  Zn  Zn155  1  0.42657538  0.17477846  0.46750929  1
  Zn  Zn156  1  0.43634843  0.19539837  0.93227746  1
  Zn  Zn157  1  0.44091383  0.68871024  0.43498574  1
  Zn  Zn158  1  0.44546931  0.69414649  0.93792714  1
  Zn  Zn159  1  0.93506157  0.18678406  0.43775438  1
  Zn  Zn160  1  0.93577776  0.18832562  0.94229560  1
  Zn  Zn161  1  0.94162525  0.68695282  0.43954075  1
  Zn  Zn162  1  0.93686977  0.68497531  0.93787191  1
  Zn  Zn163  1  0.05797883  0.30888025  0.06075517  1
  Zn  Zn164  1  0.06788563  0.31569140  0.55878435  1
  Zn  Zn165  1  0.06314581  0.80889885  0.06289751  1
  Zn  Zn166  1  0.09399527  0.79644986  0.57819917  1
  Zn  Zn167  1  0.56079734  0.30918523  0.06570035  1
  Zn  Zn168  1  0.56329978  0.31020930  0.56705960  1
  Zn  Zn169  1  0.56670001  0.81617227  0.05873736  1
  Zn  Zn170  1  0.56371961  0.81251451  0.55456241  1
  O  O171  1  0.12836230  0.11705725  0.11716899  1
  O  O172  1  0.12083565  0.12042859  0.61973776  1
  O  O173  1  0.12166675  0.62887849  0.11157392  1
  O  O174  1  0.11553736  0.62558011  0.61472896  1
  O  O175  1  0.60834306  0.12484363  0.12677950  1
  O  O176  1  0.63717669  0.12756444  0.61516563  1
  O  O177  1  0.62362231  0.62006555  0.11555698  1
  O  O178  1  0.61939192  0.61778723  0.61606527  1
  O  O179  1  0.37295287  0.38993401  0.36744285  1
  O  O180  1  0.37761889  0.37271869  0.88601264  1
  O  O181  1  0.38492014  0.88613542  0.37359255  1
  O  O182  1  0.38309027  0.87466253  0.88054164  1
  O  O183  1  0.86988941  0.38075450  0.38470968  1
  O  O184  1  0.86802803  0.38218779  0.87915137  1
  O  O185  1  0.88063852  0.88239819  0.38244812  1
  O  O186  1  0.87939119  0.87937864  0.88225453  1
  O  O187  1  0.25648120  0.00588273  0.37176759  1
  O  O188  1  0.25783717  0.01151937  0.87132619  1
  O  O189  1  0.25859494  0.50617980  0.36454337  1
  O  O190  1  0.26578009  0.50498951  0.88548370  1
  O  O191  1  0.76005690  0.00723061  0.38265761  1
  O  O192  1  0.75519765  0.00318219  0.86777198  1
  O  O193  1  0.75727085  0.49409501  0.36661193  1
  O  O194  1  0.74930636  0.51414455  0.87052511  1
  O  O195  1  0.25612699  0.49093588  0.13353241  1
  O  O196  1  0.25573202  0.48815046  0.62179944  1
  O  O197  1  0.24805862  0.99295791  0.12919712  1
  O  O198  1  0.25123125  1.00090526  0.62751852  1
  O  O199  1  0.74537517  0.49238096  0.13975429  1
  O  O200  1  0.73936391  0.48964662  0.62069370  1
  O  O201  1  0.74829634  0.98383620  0.12970786  1
  O  O202  1  0.75608668  0.99284910  0.63807876  1
  O  O203  1  0.00156531  0.37902803  0.25175412  1
  O  O204  1  0.00345713  0.37646869  0.75797580  1
  O  O205  1  0.00764664  0.87031596  0.25737330  1
  O  O206  1  0.00286948  0.86985117  0.76075543  1
  O  O207  1  0.51196895  0.37434000  0.24616308  1
  O  O208  1  0.51214236  0.37573737  0.74694988  1
  O  O209  1  0.49704004  0.86689505  0.25622076  1
  O  O210  1  0.50641531  0.87656555  0.77152510  1
  O  O211  1  0.48725075  0.12575959  0.24973207  1
  O  O212  1  0.50403867  0.13171623  0.75092236  1
  O  O213  1  0.49529630  0.63280139  0.24129310  1
  O  O214  1  0.49564118  0.63083668  0.73390871  1
  O  O215  1  0.98304512  0.12041786  0.25367046  1
  O  O216  1  0.98625040  0.11890293  0.75630004  1
  O  O217  1  0.98884651  0.63015998  0.24663695  1
  O  O218  1  0.98987920  0.63208251  0.74444820  1
  O  O219  1  0.36424440  0.25622517  0.00384929  1
  O  O220  1  0.35399604  0.26489282  0.46957097  1
  O  O221  1  0.36920010  0.74489672  0.01085152  1
  O  O222  1  0.38123879  0.76757635  0.49624083  1
  O  O223  1  0.86424705  0.26020438  -0.00235196  1
  O  O224  1  0.86891373  0.25553741  0.50615851  1
  O  O225  1  0.86947883  0.75366135  0.00968239  1
  O  O226  1  0.87082613  0.75397793  0.50539079  1
  O  O227  1  0.13525728  0.25169987  0.48649940  1
  O  O228  1  0.13607717  0.24270699  0.99447887  1
  O  O229  1  0.11262675  0.73526821  0.47980515  1
  O  O230  1  0.13379103  0.74823543  0.99348808  1
  O  O231  1  0.62897173  0.24079744  0.49868713  1
  O  O232  1  0.62493632  0.25401848  0.98595990  1
  O  O233  1  0.63461483  0.74145778  0.49651403  1
  O  O234  1  0.63133651  0.74356576  0.99030199  1
  O  O235  1  0.49309015  0.23776780  0.13081552  1
  O  O236  1  0.50378741  0.25060871  0.64306824  1
  O  O237  1  0.49598389  0.74945453  0.12747783  1
  O  O238  1  0.51077321  0.73620222  0.62215623  1
  O  O239  1  0.99170667  0.23951600  0.11538303  1
  O  O240  1  0.98857470  0.25464662  0.61739170  1
  O  O241  1  0.98857444  0.75161860  0.13307634  1
  O  O242  1  0.99767966  0.74063458  0.63180387  1
  O  O243  1  0.01398930  0.24972054  0.38131977  1
  O  O244  1  0.01669562  0.24749595  0.88136516  1
  O  O245  1  0.00555726  0.75566053  0.36689291  1
  O  O246  1  0.00520411  0.75562615  0.87087197  1
  O  O247  1  0.50979581  0.24054577  0.38287735  1
  O  O248  1  0.50843605  0.25218888  0.86343089  1
  O  O249  1  0.50155614  0.75871455  0.36346971  1
  O  O250  1  0.51383550  0.76189124  0.87314274  1
  O  O251  1  0.24586952  0.13340090  0.48488867  1
  O  O252  1  0.24159473  0.13173442  0.99458912  1
  O  O253  1  0.24471740  0.62860263  0.49382610  1
  O  O254  1  0.23817020  0.63992851  1.00679812  1
  O  O255  1  0.74516881  0.12599939  0.49289924  1
  O  O256  1  0.75861572  0.12331381  0.98593935  1
  O  O257  1  0.74186730  0.63460497  0.50747515  1
  O  O258  1  0.73925132  0.63166158  0.99136937  1
  O  O259  1  0.25673407  0.36723855  0.00635604  1
  O  O260  1  0.25055751  0.37181948  0.50698028  1
  O  O261  1  0.24384559  0.86543013  0.01268470  1
  O  O262  1  0.27319597  0.87744698  0.49499188  1
  O  O263  1  0.74671921  0.37133986  0.01561186  1
  O  O264  1  0.75842272  0.36876179  0.51059971  1
  O  O265  1  0.75784025  0.86932026  0.00783896  1
  O  O266  1  0.75874193  0.87011695  0.50895409  1
  O  O267  1  0.13554440  0.50215814  0.25264783  1
  O  O268  1  0.12549365  0.50597670  0.75762366  1
  O  O269  1  0.13192934  0.99591580  0.24626573  1
  O  O270  1  0.12993868  0.98653070  0.75954967  1
  O  O271  1  0.62963798  0.49425790  0.24927479  1
  O  O272  1  0.62061156  0.49478130  0.73765567  1
  O  O273  1  0.62912237  1.01134382  0.23078175  1
  O  O274  1  0.64106908  1.00225746  0.75344626  1
  O  O275  1  0.36993333  0.00548845  0.25677823  1
  O  O276  1  0.37437645  -0.00706480  0.77322806  1
  O  O277  1  0.37105827  0.50816634  0.25279306  1
  O  O278  1  0.38215757  0.52274259  0.74678827  1
  O  O279  1  0.87683043  0.00543100  0.26415970  1
  O  O280  1  0.86934894  0.00661361  0.75787022  1
  O  O281  1  0.86342812  0.50884232  0.26017366  1
  O  O282  1  0.87111792  0.51375639  0.75610881  1
  O  O283  1  0.12378555  0.36211040  0.37009929  1
  O  O284  1  0.12504061  0.36140562  0.88069038  1
  O  O285  1  0.12454481  0.86677488  0.37112129  1
  O  O286  1  0.11937059  0.86663630  0.87033406  1
  O  O287  1  0.63014961  0.36283613  0.36993026  1
  O  O288  1  0.62696905  0.36801211  0.86552253  1
  O  O289  1  0.61435294  0.87250383  0.37812887  1
  O  O290  1  0.63616795  0.86309588  0.87708503  1
  O  O291  1  0.38204183  0.12732189  0.13307428  1
  O  O292  1  0.38664568  0.15102920  0.57597334  1
  O  O293  1  0.38152249  0.63323820  0.12716549  1
  O  O294  1  0.38947476  0.62717455  0.62038387  1
  O  O295  1  0.86859136  0.12123317  0.14502498  1
  O  O296  1  0.87090286  0.13419218  0.63624404  1
  O  O297  1  0.85808117  0.64566938  0.13964376  1
  O  O298  1  0.87855989  0.63137983  0.63235127  1
  O  O299  1  0.25525548  0.25428583  0.11709750  1
  O  O300  1  0.25246613  0.25723594  0.61294286  1
  O  O301  1  0.25956720  0.75783954  0.12042568  1
  O  O302  1  0.20465195  0.76671004  0.60410018  1
  O  O303  1  0.74962117  0.25551533  0.12757515  1
  O  O304  1  0.75533457  0.25849501  0.62055822  1
  O  O305  1  0.75183897  0.76310564  0.12107991  1
  O  O306  1  0.75675731  0.75779495  0.61682084  1
  O  O307  1  0.23676789  0.24237187  0.37368967  1
  O  O308  1  0.24513290  0.24454668  0.88147856  1
  O  O309  1  0.24430976  0.74497714  0.37570983  1
  O  O310  1  0.24291755  0.75615080  0.88547648  1
  O  O311  1  0.74073174  0.24023673  0.38577216  1
  O  O312  1  0.74056200  0.23872139  0.87303272  1
  O  O313  1  0.75039567  0.75556825  0.39043243  1
  O  O314  1  0.74165287  0.74276098  0.87786373  1
  O  O315  1  0.01458341  0.11751655  -0.00363840  1
  O  O316  1  -0.00132571  0.10752639  0.49132958  1
  O  O317  1  0.01566102  0.63526436  0.00398331  1
  O  O318  1  0.00660319  0.62127455  0.50894058  1
  O  O319  1  0.49277500  0.13021412  0.01184171  1
  O  O320  1  0.51529936  0.10429641  0.49285214  1
  O  O321  1  0.51398271  0.62672943  0.00453703  1
  O  O322  1  0.50760545  0.61988181  0.50653832  1
  O  O323  1  0.50190836  0.38801572  0.50517955  1
  O  O324  1  0.48953388  0.37256301  1.00122902  1
  O  O325  1  0.49638306  0.88405355  0.49174650  1
  O  O326  1  0.51259848  0.87521241  0.97894580  1
  O  O327  1  0.98574702  0.37688896  0.49816815  1
  O  O328  1  0.98360890  0.37349549  0.99384067  1
  O  O329  1  0.99376578  0.88149471  0.49413631  1
  O  O330  1  0.99393802  0.87868132  0.99711803  1
  O  O331  1  0.49223426  0.50676992  0.38305497  1
  O  O332  1  0.49587648  0.49491635  0.87871032  1
  O  O333  1  0.49507861  0.99296162  0.37509338  1
  O  O334  1  0.48893552  0.99321655  0.87911345  1
  O  O335  1  0.98245142  0.49869865  0.37857453  1
  O  O336  1  0.97688557  0.50445811  0.88070332  1
  O  O337  1  0.99286327  0.99137927  0.38163428  1
  O  O338  1  0.99524392  0.99277017  0.88308762  1
  O  O339  1  0.00741688  0.00387120  0.11998665  1
  O  O340  1  -0.00743901  -0.00240541  0.61005734  1
  O  O341  1  -0.05322593  0.51718978  0.11135667  1
  O  O342  1  -0.01080280  0.51296400  0.62201917  1
  O  O343  1  0.50441533  0.01320516  0.12497864  1
  O  O344  1  0.50149687  -0.00312883  0.61548630  1
  O  O345  1  0.50954933  0.50788774  0.12295011  1
  O  O346  1  0.50762937  0.51116356  0.61477695  1
  O  O347  1  0.24551128  0.38400065  0.24032046  1
  O  O348  1  0.24811891  0.37410105  0.73573573  1
  O  O349  1  0.24625981  0.87866356  0.24099750  1
  O  O350  1  0.23684005  0.87217059  0.75445553  1
  O  O351  1  0.73875685  0.38002591  0.24327979  1
  O  O352  1  0.73852449  0.36905185  0.73891583  1
  O  O353  1  0.74861395  0.86900614  0.24157019  1
  O  O354  1  0.75674006  0.88864569  0.74248574  1
  O  O355  1  0.26053587  0.11993928  0.25865741  1
  O  O356  1  0.24933749  0.12853207  0.75859805  1
  O  O357  1  0.25638945  0.61939689  0.25134086  1
  O  O358  1  0.26860826  0.63426772  0.74241332  1
  O  O359  1  0.75723718  0.12734784  0.26516874  1
  O  O360  1  0.75791809  0.11298013  0.75898111  1
  O  O361  1  0.75399295  0.61530249  0.25270174  1
  O  O362  1  0.75709727  0.63379519  0.75608834  1
  O  O363  1  0.36965388  0.11233658  0.37216906  1
  O  O364  1  0.36746056  0.11812636  0.88101436  1
  O  O365  1  0.37036363  0.62070809  0.36731253  1
  O  O366  1  0.38583118  0.63121037  0.86097950  1
  O  O367  1  0.86806715  0.11898234  0.36811357  1
  O  O368  1  0.86945426  0.12007649  0.86862360  1
  O  O369  1  0.87563008  0.62026937  0.36722958  1
  O  O370  1  0.86391474  0.62118852  0.86977682  1
  O  O371  1  0.13760654  0.37061126  0.11968503  1
  O  O372  1  0.14054054  0.37507609  0.62361123  1
  O  O373  1  0.13245427  0.87908926  0.13143253  1
  O  O374  1  0.10914148  0.88879037  0.64739616  1
  O  O375  1  0.62866941  0.37888891  0.13385299  1
  O  O376  1  0.63212346  0.38223085  0.63018493  1
  O  O377  1  0.63395162  0.88154721  0.12728772  1
  O  O378  1  0.63800230  0.87004621  0.62161690  1
  O  O379  1  0.12778584  0.24954938  0.26133480  1
  O  O380  1  0.12982863  0.25255565  0.76452769  1
  O  O381  1  0.12166831  0.75234610  0.25766045  1
  O  O382  1  0.11879209  0.75866330  0.75918294  1
  O  O383  1  0.61992161  0.25614669  0.26308197  1
  O  O384  1  0.61711416  0.25620511  0.75780753  1
  O  O385  1  0.61324490  0.74240395  0.24929504  1
  O  O386  1  0.62508759  0.74739129  0.76211474  1
  O  O387  1  0.37445989  0.24150397  0.24765686  1
  O  O388  1  0.39276517  0.24947611  0.75345134  1
  O  O389  1  0.38406298  0.74487871  0.23867124  1
  O  O390  1  0.38455024  0.73988995  0.74579055  1
  O  O391  1  0.87010057  0.23653459  0.25556658  1
  O  O392  1  0.87073916  0.23771381  0.74225927  1
  O  O393  1  0.87872176  0.74484894  0.24895801  1
  O  O394  1  0.87974220  0.74220431  0.74689947  1
  O  O395  1  0.38498041  0.49866661  0.48788514  1
  O  O396  1  0.37923654  0.48750929  1.00782058  1
  O  O397  1  0.39077368  0.99028497  0.49353397  1
  O  O398  1  0.36535443  0.99428543  0.98262223  1
  O  O399  1  0.87045210  0.49234044  0.49372733  1
  O  O400  1  0.84992691  0.48342593  0.98472697  1
  O  O401  1  0.88359378  0.99583620  0.49250874  1
  O  O402  1  0.88076875  0.99478693  0.99618771  1
  O  O403  1  0.12408343  0.00625258  0.00325252  1
  O  O404  1  0.10967717  -0.00432672  0.49982626  1
  O  O405  1  0.12664663  0.51763814  -0.00601320  1
  O  O406  1  0.12246030  0.51399279  0.48630332  1
  O  O407  1  0.63726836  0.00595546  0.02422423  1
  O  O408  1  0.61627379  0.00186324  0.50151300  1
  O  O409  1  0.62708149  0.50800527  0.00559175  1
  O  O410  1  0.62089995  0.50569391  0.50566750  1
  O  O411  1  0.36648359  0.36665045  0.12002489  1
  O  O412  1  0.36524643  0.36907634  0.62149914  1
  O  O413  1  0.36765023  0.86747996  0.12857987  1
  O  O414  1  0.38466242  0.87699879  0.61530054  1
  O  O415  1  0.86229424  0.37099719  0.11698244  1
  O  O416  1  0.86757470  0.37028235  0.62173471  1
  O  O417  1  0.86583792  0.86753180  0.12664526  1
  O  O418  1  0.87111466  0.86753586  0.62093144  1
  O  O419  1  0.13088087  0.13327050  0.37541351  1
  O  O420  1  0.13380984  0.13366073  0.88054278  1
  O  O421  1  0.13254218  0.63052955  0.37525036  1
  O  O422  1  0.11942503  0.63983685  0.88453568  1
  O  O423  1  0.63193592  0.12921645  0.38198995  1
  O  O424  1  0.63433200  0.13225428  0.87178172  1
  O  O425  1  0.62218320  0.62703437  0.38818401  1
  O  O426  1  0.62744622  0.63268581  0.87794553  1
