# generated using pymatgen
data_V85Zn86O256
_symmetry_space_group_name_H-M   'P 1'
_cell_length_a   16.98928966
_cell_length_b   16.97776567
_cell_length_c   16.98427168
_cell_angle_alpha   89.91604484
_cell_angle_beta   89.89014425
_cell_angle_gamma   90.03119654
_symmetry_Int_Tables_number   1
_chemical_formula_structural   V85Zn86O256
_chemical_formula_sum   'V85 Zn86 O256'
_cell_volume   4898.93135821
_cell_formula_units_Z   1
loop_
 _symmetry_equiv_pos_site_id
 _symmetry_equiv_pos_as_xyz
  1  'x, y, z'
loop_
 _atom_site_type_symbol
 _atom_site_label
 _atom_site_symmetry_multiplicity
 _atom_site_fract_x
 _atom_site_fract_y
 _atom_site_fract_z
 _atom_site_occupancy
  V  V0  1  0.49870349  0.87351599  0.87742190  1
  V  V1  1  -0.00796809  0.36614186  0.87707866  1
  V  V2  1  0.11739057  0.87616446  0.25506403  1
  V  V3  1  0.74290374  0.62344680  0.86956437  1
  V  V4  1  0.74832317  0.12782279  0.87650310  1
  V  V5  1  0.50627664  0.25544510  0.74452044  1
  V  V6  1  0.51107163  0.75496526  0.24735775  1
  V  V7  1  0.37249843  0.00932403  0.86232012  1
  V  V8  1  0.78050066  -0.00183902  0.21491886  1
  V  V9  1  0.75062944  0.51309099  0.24503018  1
  V  V10  1  0.50339639  0.26570233  0.25033143  1
  V  V11  1  0.25712411  0.49152005  0.74724466  1
  V  V12  1  0.12340082  0.75398446  0.37900705  1
  V  V13  1  0.31730668  0.55506617  0.91533745  1
  V  V14  1  0.49633730  0.13447425  0.12364554  1
  V  V15  1  0.75835593  0.37398949  0.13558224  1
  V  V16  1  0.50778176  0.87550869  0.37245163  1
  V  V17  1  0.62557114  0.00057948  0.62561837  1
  V  V18  1  0.12793099  0.50293312  0.11565835  1
  V  V19  1  0.75164632  0.24949827  0.49667020  1
  V  V20  1  0.87513428  0.74580159  0.62352206  1
  V  V21  1  0.62441441  0.49356654  0.62743182  1
  V  V22  1  0.37328781  0.87427300  -0.00130428  1
  V  V23  1  0.37541081  0.12875494  0.25145299  1
  V  V24  1  0.62658672  0.87078859  0.75259698  1
  V  V25  1  0.61041962  -0.00553705  0.13653776  1
  V  V26  1  -0.00706131  0.74479464  0.25554491  1
  V  V27  1  0.75466529  0.11929644  0.36687600  1
  V  V28  1  0.37659787  0.62642226  0.25314801  1
  V  V29  1  0.37198807  0.87276248  0.50487439  1
  V  V30  1  0.62516548  0.26003246  0.36756270  1
  V  V31  1  0.49533698  0.00689812  -0.00529691  1
  V  V32  1  0.87589929  0.37319397  0.49932779  1
  V  V33  1  0.12688315  0.00043587  0.11487693  1
  V  V34  1  0.50083766  0.49309431  0.49493258  1
  V  V35  1  0.37042982  0.36364911  0.50365055  1
  V  V36  1  0.50360514  0.74931160  0.75223163  1
  V  V37  1  0.88143015  0.13009850  0.75018993  1
  V  V38  1  0.75263913  0.26033367  0.00144026  1
  V  V39  1  0.12893111  0.13266759  0.49731818  1
  V  V40  1  0.37585357  0.61895800  0.75040578  1
  V  V41  1  0.37639620  -0.00245327  0.37530802  1
  V  V42  1  0.36568027  0.75062870  0.62769220  1
  V  V43  1  0.36042398  0.25747930  0.12494106  1
  V  V44  1  -0.00362896  0.86973738  0.87165088  1
  V  V45  1  0.88115020  0.00054478  0.37841650  1
  V  V46  1  0.49671371  0.38010267  0.87406716  1
  V  V47  1  0.87639872  -0.00453085  0.87724723  1
  V  V48  1  0.75049784  0.87541130  0.62287534  1
  V  V49  1  0.37598455  0.74893421  0.12766465  1
  V  V50  1  0.87323902  0.23490250  0.12558698  1
  V  V51  1  0.12504528  0.49479384  0.62589382  1
  V  V52  1  0.50861996  0.62542330  0.12770631  1
  V  V53  1  0.88147945  0.87462084  0.49463383  1
  V  V54  1  -0.00105581  0.51375744  -0.00652406  1
  V  V55  1  0.74721505  0.37203783  0.62897631  1
  V  V56  1  0.62423937  0.61830191  -0.00258076  1
  V  V57  1  0.11901847  0.36490395  0.75140306  1
  V  V58  1  0.24523472  0.49336849  0.25149786  1
  V  V59  1  0.13089952  0.86815977  0.74826492  1
  V  V60  1  -0.00022030  -0.00880874  0.00433489  1
  V  V61  1  0.05951401  0.16755122  0.06610211  1
  V  V62  1  0.13006714  -0.00757103  0.62275137  1
  V  V63  1  0.50229877  0.62530677  0.62089850  1
  V  V64  1  0.62466967  0.25782090  0.87268144  1
  V  V65  1  -0.00089131  0.37405276  0.36423804  1
  V  V66  1  0.36136515  0.36804738  -0.00353475  1
  V  V67  1  0.24959441  0.86984007  0.12514853  1
  V  V68  1  0.25098569  0.62611085  0.37803637  1
  V  V69  1  -0.00249284  0.23159971  0.25089326  1
  V  V70  1  0.12807535  0.62413202  0.50795107  1
  V  V71  1  0.87327562  0.50680403  0.36826248  1
  V  V72  1  0.32794792  0.18550867  0.68612067  1
  V  V73  1  0.00053873  0.49652880  0.49986473  1
  V  V74  1  0.87093436  0.49804029  0.87561940  1
  V  V75  1  -0.00103777  0.12593050  0.62574466  1
  V  V76  1  0.50226930  0.12943468  0.62773277  1
  V  V77  1  0.24917697  0.00016757  0.25241243  1
  V  V78  1  0.74623083  0.75031512  0.49326775  1
  V  V79  1  0.62204615  0.48578362  0.13047123  1
  V  V80  1  0.62679325  0.12496578  0.49732547  1
  V  V81  1  0.24426014  0.12501739  0.89661472  1
  V  V82  1  0.67644694  0.78883604  0.93798197  1
  V  V83  1  0.37921799  0.49404346  0.37575129  1
  V  V84  1  0.75016453  0.00108920  0.75056100  1
  Zn  Zn85  1  0.62363974  0.12919154  0.00182622  1
  Zn  Zn86  1  0.49991014  -0.00058250  0.50166687  1
  Zn  Zn87  1  0.10200481  0.69884380  0.91145236  1
  Zn  Zn88  1  0.25209262  -0.00086013  0.74763276  1
  Zn  Zn89  1  0.87991659  0.25206645  0.62849510  1
  Zn  Zn90  1  0.12591140  0.37435397  0.24651540  1
  Zn  Zn91  1  0.24990065  0.72367288  -0.00134426  1
  Zn  Zn92  1  0.49429242  0.49697376  -0.00114304  1
  Zn  Zn93  1  -0.00277296  0.74304136  0.75337335  1
  Zn  Zn94  1  0.00399042  -0.00399920  0.49938961  1
  Zn  Zn95  1  0.25088583  0.36144567  0.62221102  1
  Zn  Zn96  1  0.74487453  0.49310710  0.75035942  1
  Zn  Zn97  1  0.75039818  0.63111797  0.36895147  1
  Zn  Zn98  1  0.62611963  0.62326598  0.49357130  1
  Zn  Zn99  1  0.13181475  0.25695110  0.37555017  1
  Zn  Zn100  1  -0.00221770  0.62386929  0.13310829  1
  Zn  Zn101  1  0.25792680  0.13208475  0.38510755  1
  Zn  Zn102  1  0.24778006  0.75297569  0.50832985  1
  Zn  Zn103  1  0.62739365  0.74993542  0.36727862  1
  Zn  Zn104  1  -0.00328397  0.62104731  0.62505131  1
  Zn  Zn105  1  0.87174553  0.62095430  0.74602804  1
  Zn  Zn106  1  0.12203503  0.24224315  0.88458469  1
  Zn  Zn107  1  0.18941591  0.19042173  0.20385243  1
  Zn  Zn108  1  0.16659006  0.18297664  0.69135727  1
  Zn  Zn109  1  0.18343453  0.68374565  0.18967429  1
  Zn  Zn110  1  0.17080302  0.66624308  0.72843097  1
  Zn  Zn111  1  0.68753718  0.18096580  0.18881243  1
  Zn  Zn112  1  0.68870204  0.19064229  0.68787288  1
  Zn  Zn113  1  0.85692574  0.72641237  0.12932011  1
  Zn  Zn114  1  0.68663143  0.68686324  0.68358398  1
  Zn  Zn115  1  0.31521305  0.31218672  0.31664773  1
  Zn  Zn116  1  0.30588074  0.31034143  0.82138462  1
  Zn  Zn117  1  0.31314322  0.81288277  0.31409127  1
  Zn  Zn118  1  0.31323080  0.80870708  0.81376960  1
  Zn  Zn119  1  0.81584675  0.31153426  0.30873290  1
  Zn  Zn120  1  0.81370885  0.31257763  0.81098486  1
  Zn  Zn121  1  0.79313193  0.81421853  0.28904164  1
  Zn  Zn122  1  0.81531525  0.81201215  0.80813932  1
  Zn  Zn123  1  0.18998585  0.43392793  0.43739911  1
  Zn  Zn124  1  0.17769082  0.43153469  0.93692783  1
  Zn  Zn125  1  0.19088869  0.93718790  0.43963204  1
  Zn  Zn126  1  0.18242495  0.85525299  0.93785277  1
  Zn  Zn127  1  0.69014613  0.44003050  0.43762747  1
  Zn  Zn128  1  0.68594231  0.43820349  0.94255205  1
  Zn  Zn129  1  0.69018417  0.93753213  0.43635024  1
  Zn  Zn130  1  0.68265919  0.95278955  0.94357386  1
  Zn  Zn131  1  0.31413332  0.06048436  0.06479640  1
  Zn  Zn132  1  0.30829747  0.05451509  0.55830869  1
  Zn  Zn133  1  0.31852468  0.55386431  0.07921450  1
  Zn  Zn134  1  0.31355821  0.55936270  0.56418132  1
  Zn  Zn135  1  0.81259202  0.05400651  0.05851185  1
  Zn  Zn136  1  0.81270263  0.06270494  0.56025734  1
  Zn  Zn137  1  0.82661081  0.59588839  0.04484075  1
  Zn  Zn138  1  0.80909477  0.56145078  0.55672684  1
  Zn  Zn139  1  0.43262858  0.43756386  0.18539230  1
  Zn  Zn140  1  0.43825578  0.43316102  0.68302176  1
  Zn  Zn141  1  0.43840658  0.93712784  0.18770592  1
  Zn  Zn142  1  0.44084960  0.93665162  0.68629664  1
  Zn  Zn143  1  0.93164890  0.44325196  0.17870355  1
  Zn  Zn144  1  0.93550371  0.43668903  0.69120370  1
  Zn  Zn145  1  0.94373308  0.94526531  0.19226958  1
  Zn  Zn146  1  0.93930765  0.93761195  0.68625523  1
  Zn  Zn147  1  0.06308387  0.05830637  0.31590373  1
  Zn  Zn148  1  0.06504578  0.05681718  0.81346722  1
  Zn  Zn149  1  0.06567578  0.56269199  0.31673176  1
  Zn  Zn150  1  0.05627862  0.55623155  0.80482129  1
  Zn  Zn151  1  0.55683824  0.07259473  0.31528709  1
  Zn  Zn152  1  0.56331210  0.06807677  0.80939177  1
  Zn  Zn153  1  0.56773245  0.56422239  0.31102003  1
  Zn  Zn154  1  0.56307833  0.56015071  0.80903289  1
  Zn  Zn155  1  0.44397905  0.18717856  0.43499517  1
  Zn  Zn156  1  0.43236506  0.19287199  0.93417355  1
  Zn  Zn157  1  0.43943354  0.68799385  0.43778176  1
  Zn  Zn158  1  0.44603905  0.69422729  0.94420441  1
  Zn  Zn159  1  0.94167082  0.18632099  0.43816966  1
  Zn  Zn160  1  0.92945509  0.18649272  0.93761941  1
  Zn  Zn161  1  0.94024121  0.68678183  0.43898015  1
  Zn  Zn162  1  0.92349872  0.69207204  0.93813264  1
  Zn  Zn163  1  0.05442583  0.33296414  0.06383909  1
  Zn  Zn164  1  0.05969200  0.31041086  0.56313405  1
  Zn  Zn165  1  0.05604515  0.81031066  0.06905558  1
  Zn  Zn166  1  0.06055420  0.81071240  0.56348882  1
  Zn  Zn167  1  0.55930844  0.31307126  0.05728516  1
  Zn  Zn168  1  0.56202951  0.31267736  0.55610162  1
  Zn  Zn169  1  0.70630403  0.83555515  0.11497878  1
  Zn  Zn170  1  0.56004999  0.81299764  0.56190385  1
  O  O171  1  0.12781245  0.11792341  0.12916862  1
  O  O172  1  0.11821882  0.11335436  0.61640648  1
  O  O173  1  0.11646522  0.60977837  0.13104312  1
  O  O174  1  0.12609199  0.61098585  0.62568215  1
  O  O175  1  0.60488565  0.12660134  0.12292227  1
  O  O176  1  0.62060788  0.12187561  0.61799850  1
  O  O177  1  0.61288316  0.61256420  0.11637801  1
  O  O178  1  0.61408329  0.61790530  0.62001446  1
  O  O179  1  0.37219637  0.38905930  0.38379180  1
  O  O180  1  0.38243530  0.36503883  0.88679198  1
  O  O181  1  0.38090391  0.88363066  0.38060958  1
  O  O182  1  0.38288214  0.88685676  0.87662717  1
  O  O183  1  0.88080074  0.37954829  0.38197871  1
  O  O184  1  0.88412986  0.38001164  0.87102753  1
  O  O185  1  0.86292430  0.89476452  0.38317058  1
  O  O186  1  0.88481098  0.88226406  0.86856388  1
  O  O187  1  0.25928586  0.00153341  0.36853065  1
  O  O188  1  0.25980901  0.01586611  0.86627789  1
  O  O189  1  0.25590587  0.50960752  0.37180841  1
  O  O190  1  0.24918692  0.49263146  0.86263911  1
  O  O191  1  0.76035471  0.01418400  0.38819027  1
  O  O192  1  0.75536411  0.00814510  0.87268607  1
  O  O193  1  0.75775348  0.49828188  0.36500621  1
  O  O194  1  0.75250523  0.50157451  0.87158548  1
  O  O195  1  0.23637416  0.50410238  0.13658372  1
  O  O196  1  0.24432824  0.49375763  0.63467168  1
  O  O197  1  0.24551409  0.99354211  0.13481125  1
  O  O198  1  0.23446473  0.99985971  0.62819518  1
  O  O199  1  0.74087947  0.48841729  0.13129498  1
  O  O200  1  0.74120775  0.49064553  0.62163439  1
  O  O201  1  0.71613722  1.02205515  0.12529895  1
  O  O202  1  0.74456889  0.99648621  0.63049565  1
  O  O203  1  -0.00391155  0.37461025  0.25969011  1
  O  O204  1  0.00603203  0.37945638  0.76475732  1
  O  O205  1  0.01317163  0.87147154  0.24937911  1
  O  O206  1  0.00422367  0.87164112  0.75643487  1
  O  O207  1  0.49563611  0.36487575  0.24749002  1
  O  O208  1  0.49307918  0.36191486  0.75572403  1
  O  O209  1  0.48858683  0.86597553  0.26130399  1
  O  O210  1  0.50774168  0.87417118  0.76129214  1
  O  O211  1  0.48972296  0.13448979  0.24115969  1
  O  O212  1  0.50273922  0.13527859  0.73608516  1
  O  O213  1  0.49612810  0.63231726  0.24436226  1
  O  O214  1  0.49282985  0.62610429  0.74204371  1
  O  O215  1  1.00304908  0.13253423  0.25311886  1
  O  O216  1  0.99126325  0.11570054  0.74255986  1
  O  O217  1  1.00696810  0.64201244  0.25786381  1
  O  O218  1  0.99043410  0.62583391  0.74108939  1
  O  O219  1  0.37437444  0.26110862  0.00915573  1
  O  O220  1  0.38271242  0.26592408  0.49009304  1
  O  O221  1  0.37434418  0.75764721  0.01073088  1
  O  O222  1  0.37523123  0.75521057  0.50981373  1
  O  O223  1  0.86238754  0.24585075  0.00877538  1
  O  O224  1  0.87218087  0.26033673  0.49977980  1
  O  O225  1  0.84975029  0.71327967  0.01603035  1
  O  O226  1  0.86552549  0.75689571  0.50013626  1
  O  O227  1  0.12248775  0.23572162  0.49899694  1
  O  O228  1  0.10764164  0.24177479  1.00996837  1
  O  O229  1  0.12905105  0.74588681  0.49675830  1
  O  O230  1  0.13194905  0.76176172  0.99981313  1
  O  O231  1  0.62928154  0.23930966  0.49124475  1
  O  O232  1  0.63257897  0.24684179  0.99226657  1
  O  O233  1  0.63834013  0.75250852  0.50167683  1
  O  O234  1  0.62146659  0.73396800  1.00424430  1
  O  O235  1  0.49191423  0.24796975  0.12984160  1
  O  O236  1  0.50691827  0.24389365  0.63194854  1
  O  O237  1  0.49011127  0.73921948  0.13440068  1
  O  O238  1  0.49506094  0.74019578  0.63021011  1
  O  O239  1  0.99550323  0.24028118  0.12464303  1
  O  O240  1  0.99856457  0.23260839  0.62311083  1
  O  O241  1  0.99316882  0.75101418  0.14486538  1
  O  O242  1  0.98276589  0.74669965  0.61827427  1
  O  O243  1  0.00064149  0.25609725  0.36543632  1
  O  O244  1  -0.00290128  0.26299933  0.88201735  1
  O  O245  1  0.01781650  0.74693978  0.37428887  1
  O  O246  1  -0.00259516  0.75581672  0.87573313  1
  O  O247  1  0.51298218  0.24392859  0.36240668  1
  O  O248  1  0.50753142  0.25483253  0.86696412  1
  O  O249  1  0.49898957  0.75858279  0.36666697  1
  O  O250  1  0.49560802  0.76341301  0.86784138  1
  O  O251  1  0.23377355  0.12048952  0.50156767  1
  O  O252  1  0.24392351  0.11809897  0.99507043  1
  O  O253  1  0.24652354  0.62548954  0.49410409  1
  O  O254  1  0.26520654  0.60912916  0.98981992  1
  O  O255  1  0.74309642  0.13242413  0.49528916  1
  O  O256  1  0.74877323  0.12966788  0.98660591  1
  O  O257  1  0.74788755  0.63655108  0.49406893  1
  O  O258  1  0.73065093  0.61077625  0.98368137  1
  O  O259  1  0.26233942  0.37569522  -0.00877290  1
  O  O260  1  0.26485892  0.37560805  0.50195420  1
  O  O261  1  0.25794338  0.88784561  0.01880320  1
  O  O262  1  0.26676487  0.87131251  0.49702904  1
  O  O263  1  0.74440903  0.36366304  0.01027214  1
  O  O264  1  0.75903308  0.36923930  0.50539165  1
  O  O265  1  0.72607065  0.86095953  -0.00087730  1
  O  O266  1  0.75736672  0.86986179  0.50589049  1
  O  O267  1  0.13168838  0.49916871  0.24636000  1
  O  O268  1  0.13196971  0.48505280  0.73884656  1
  O  O269  1  0.13172979  0.99361325  0.24630214  1
  O  O270  1  0.12542645  0.99083950  0.73654162  1
  O  O271  1  0.63326361  0.50151348  0.23903797  1
  O  O272  1  0.62333067  0.49883930  0.73150522  1
  O  O273  1  0.60080730  1.00444826  0.23499998  1
  O  O274  1  0.63172469  0.99403474  0.74731333  1
  O  O275  1  0.36865365  0.00428841  0.25666717  1
  O  O276  1  0.37659830  -0.00209577  0.75921631  1
  O  O277  1  0.36861278  0.50626977  0.25744521  1
  O  O278  1  0.36897009  0.50242850  0.74660701  1
  O  O279  1  0.87762839  0.00723389  0.27081780  1
  O  O280  1  0.86883112  0.00657686  0.75865559  1
  O  O281  1  0.86508606  0.48997996  0.26006922  1
  O  O282  1  0.86760614  0.49944549  0.76047675  1
  O  O283  1  0.11314028  0.37604555  0.37367642  1
  O  O284  1  0.11237408  0.36779666  0.86908819  1
  O  O285  1  0.13516384  0.86654472  0.36708174  1
  O  O286  1  0.10905929  0.88299626  0.85651461  1
  O  O287  1  0.63319701  0.35815933  0.38090459  1
  O  O288  1  0.61736374  0.36345916  0.88063136  1
  O  O289  1  0.61061347  0.87553194  0.38121477  1
  O  O290  1  0.62119851  0.86846232  0.87721691  1
  O  O291  1  0.38081407  0.13370284  0.12890281  1
  O  O292  1  0.38189457  0.12490343  0.61997408  1
  O  O293  1  0.38639374  0.62705119  0.13328715  1
  O  O294  1  0.38645214  0.62747122  0.63100297  1
  O  O295  1  0.86371345  0.13552380  0.12446332  1
  O  O296  1  0.88184998  0.12243962  0.63255148  1
  O  O297  1  0.88474370  0.61395515  0.13826266  1
  O  O298  1  0.87106520  0.63221657  0.62245986  1
  O  O299  1  0.26216147  0.24890547  0.13606147  1
  O  O300  1  0.25948315  0.24134177  0.63521855  1
  O  O301  1  0.25493103  0.75420498  0.12386333  1
  O  O302  1  0.26609622  0.74078933  0.62897681  1
  O  O303  1  0.75373098  0.25350534  0.12090126  1
  O  O304  1  0.75242281  0.25523270  0.61512134  1
  O  O305  1  0.77682547  0.78588271  0.17838862  1
  O  O306  1  0.75798735  0.75461316  0.61563230  1
  O  O307  1  0.24248981  0.23999552  0.35736279  1
  O  O308  1  0.24531605  0.23007151  0.87697313  1
  O  O309  1  0.24329509  0.73996127  0.37668426  1
  O  O310  1  0.24642679  0.76887227  0.89209305  1
  O  O311  1  0.74775118  0.23768219  0.37494666  1
  O  O312  1  0.74466403  0.24739917  0.88090082  1
  O  O313  1  0.74719749  0.75504665  0.37884163  1
  O  O314  1  0.74515653  0.74177149  0.87161093  1
  O  O315  1  -0.00068615  0.11330739  -0.00163759  1
  O  O316  1  0.01093545  0.12027688  0.50751972  1
  O  O317  1  0.00792334  0.61647294  -0.01418721  1
  O  O318  1  0.00978650  0.61431064  0.50311008  1
  O  O319  1  0.49487800  0.12294501  0.00562358  1
  O  O320  1  0.50935450  0.12518979  0.51000335  1
  O  O321  1  0.50569421  0.61914815  0.00746648  1
  O  O322  1  0.49941416  0.61549044  0.50747734  1
  O  O323  1  0.49017102  0.38698484  0.50175297  1
  O  O324  1  0.48849010  0.37642950  0.99014705  1
  O  O325  1  0.48964130  0.87536607  0.49132339  1
  O  O326  1  0.49213038  0.88827315  0.98522625  1
  O  O327  1  0.99318365  0.37693275  0.49106273  1
  O  O328  1  1.00072898  0.39140449  0.98180316  1
  O  O329  1  0.98485467  0.87372400  0.50096603  1
  O  O330  1  1.00178120  0.88459758  0.99174757  1
  O  O331  1  0.49083053  0.50745415  0.38260450  1
  O  O332  1  0.50446257  0.48264267  0.87144081  1
  O  O333  1  0.49222363  0.99432586  0.37693669  1
  O  O334  1  0.49506700  1.00083340  0.87828853  1
  O  O335  1  0.99298893  0.49280420  0.37965900  1
  O  O336  1  0.99072102  0.49298944  0.87618224  1
  O  O337  1  0.98602045  1.00264988  0.38147489  1
  O  O338  1  0.99291656  0.99265233  0.88031914  1
  O  O339  1  0.01044012  -0.00192735  0.11567028  1
  O  O340  1  0.00948487  0.00742843  0.62205528  1
  O  O341  1  0.00668139  0.50085054  0.11085432  1
  O  O342  1  0.00841286  0.49385522  0.61749146  1
  O  O343  1  0.49703014  0.01050410  0.11521770  1
  O  O344  1  0.50819564  0.00961312  0.62443063  1
  O  O345  1  0.50470242  0.50614954  0.12620277  1
  O  O346  1  0.50505596  0.50496460  0.61649116  1
  O  O347  1  0.25065345  0.39119642  0.25756785  1
  O  O348  1  0.24341997  0.37681041  0.74798433  1
  O  O349  1  0.24629022  0.88287338  0.24282925  1
  O  O350  1  0.23382973  0.87680118  0.75322612  1
  O  O351  1  0.74969715  0.37568316  0.23848587  1
  O  O352  1  0.75259915  0.37139458  0.73287919  1
  O  O353  1  0.73998869  0.92069879  0.26013023  1
  O  O354  1  0.74466929  0.88087055  0.74369435  1
  O  O355  1  0.25746522  0.11023180  0.25107576  1
  O  O356  1  0.26140426  0.12657643  0.73874218  1
  O  O357  1  0.25423030  0.61800120  0.26068897  1
  O  O358  1  0.27017723  0.61092250  0.74617770  1
  O  O359  1  0.74840465  0.10299771  0.25511278  1
  O  O360  1  0.75468757  0.12076324  0.75980545  1
  O  O361  1  0.75144495  0.61150916  0.25074908  1
  O  O362  1  0.74263735  0.62001834  0.75965447  1
  O  O363  1  0.37796163  0.11278243  0.37273098  1
  O  O364  1  0.36214371  0.11894003  0.88145489  1
  O  O365  1  0.36782891  0.61819116  0.37345262  1
  O  O366  1  0.38499001  0.62209118  0.86855041  1
  O  O367  1  0.86652758  0.11393037  0.38658845  1
  O  O368  1  0.86808149  0.11777062  0.86731280  1
  O  O369  1  0.87457971  0.60916292  0.38275056  1
  O  O370  1  0.85859799  0.61640362  0.86838295  1
  O  O371  1  0.12033239  0.39590467  0.13072038  1
  O  O372  1  0.12787275  0.37580413  0.63063355  1
  O  O373  1  0.13295699  0.88132822  0.13532513  1
  O  O374  1  0.11731158  0.88656369  0.63095321  1
  O  O375  1  0.62812125  0.38249245  0.12024102  1
  O  O376  1  0.63503987  0.38148468  0.61367298  1
  O  O377  1  0.61129906  0.89510690  0.12272255  1
  O  O378  1  0.62931560  0.88270157  0.62912646  1
  O  O379  1  0.10978721  0.25665840  0.24918819  1
  O  O380  1  0.12167780  0.26125818  0.75571874  1
  O  O381  1  0.12084342  0.75847735  0.25910150  1
  O  O382  1  0.11563885  0.76705696  0.73096867  1
  O  O383  1  0.61685685  0.24375178  0.25622161  1
  O  O384  1  0.61724154  0.24837791  0.75874234  1
  O  O385  1  0.60973205  0.75571736  0.24695289  1
  O  O386  1  0.61703797  0.75916419  0.74176581  1
  O  O387  1  0.38330044  0.24785351  0.24370132  1
  O  O388  1  0.38092227  0.24604162  0.74997589  1
  O  O389  1  0.37681831  0.74260533  0.24581259  1
  O  O390  1  0.38206362  0.74142592  0.74532705  1
  O  O391  1  0.88727625  0.25189163  0.23920927  1
  O  O392  1  0.87013800  0.23374676  0.74844186  1
  O  O393  1  0.89772727  0.75869402  0.27708304  1
  O  O394  1  0.87394886  0.74652060  0.73600270  1
  O  O395  1  0.38202244  0.49459815  0.49323984  1
  O  O396  1  0.37208777  0.49308784  0.99089639  1
  O  O397  1  0.37817967  0.99204671  0.49311429  1
  O  O398  1  0.38305060  0.99662746  0.99261305  1
  O  O399  1  0.87798666  0.48752767  0.49310883  1
  O  O400  1  0.88250468  0.50788978  0.98337000  1
  O  O401  1  0.87776093  0.99215424  0.49615437  1
  O  O402  1  0.88297341  1.00222678  0.98386179  1
  O  O403  1  0.11790562  -0.00524194  0.01362435  1
  O  O404  1  0.12420129  0.00141815  0.50996062  1
  O  O405  1  0.12045020  0.49965142  0.00925087  1
  O  O406  1  0.12415591  0.49999707  0.51172330  1
  O  O407  1  0.60650583  0.01018989  0.00580356  1
  O  O408  1  0.62478523  0.01195269  0.50422561  1
  O  O409  1  0.61713631  0.50260984  0.01024617  1
  O  O410  1  0.61661748  0.50037119  0.50602559  1
  O  O411  1  0.37531359  0.37125791  0.10847338  1
  O  O412  1  0.37259328  0.37479592  0.60838945  1
  O  O413  1  0.36824212  0.86946595  0.12240555  1
  O  O414  1  0.38418537  0.86402341  0.61767924  1
  O  O415  1  0.86490914  0.36352931  0.12394553  1
  O  O416  1  0.86971011  0.37291891  0.61639042  1
  O  O417  1  0.84281501  0.95796639  0.13859276  1
  O  O418  1  0.86814249  0.86948407  0.61707233  1
  O  O419  1  0.12412611  0.12024316  0.39179502  1
  O  O420  1  0.14015349  0.12303928  0.86889839  1
  O  O421  1  0.13518097  0.62980931  0.38577652  1
  O  O422  1  0.13563988  0.62924103  0.83482547  1
  O  O423  1  0.63364777  0.12843210  0.38165968  1
  O  O424  1  0.63284314  0.13601618  0.87497727  1
  O  O425  1  0.62916621  0.63184786  0.37739149  1
  O  O426  1  0.62635748  0.62036439  0.88281317  1
