# generated using pymatgen
data_V85Zn86O256
_symmetry_space_group_name_H-M   'P 1'
_cell_length_a   17.00872104
_cell_length_b   16.98669838
_cell_length_c   16.98100651
_cell_angle_alpha   90.05740217
_cell_angle_beta   90.00907944
_cell_angle_gamma   90.15500134
_symmetry_Int_Tables_number   1
_chemical_formula_structural   V85Zn86O256
_chemical_formula_sum   'V85 Zn86 O256'
_cell_volume   4906.16612415
_cell_formula_units_Z   1
loop_
 _symmetry_equiv_pos_site_id
 _symmetry_equiv_pos_as_xyz
  1  'x, y, z'
loop_
 _atom_site_type_symbol
 _atom_site_label
 _atom_site_symmetry_multiplicity
 _atom_site_fract_x
 _atom_site_fract_y
 _atom_site_fract_z
 _atom_site_occupancy
  V  V0  1  0.87064152  0.13003836  0.75037184  1
  V  V1  1  0.87163142  0.49290804  0.38015111  1
  V  V2  1  0.12730524  0.87119154  0.74437326  1
  V  V3  1  0.74998901  0.74980783  0.50202657  1
  V  V4  1  0.79738986  0.45735070  0.20472738  1
  V  V5  1  0.12663836  0.62427511  0.00192577  1
  V  V6  1  0.37681150  0.62814028  0.75032589  1
  V  V7  1  0.15550869  0.01539320  0.61477424  1
  V  V8  1  0.62493659  0.25037371  0.87796874  1
  V  V9  1  0.00200830  0.49758835  0.49608635  1
  V  V10  1  0.49913542  0.49662445  0.00248352  1
  V  V11  1  0.25821190  -0.00379007  0.76407668  1
  V  V12  1  0.12653553  0.11697696  -0.00910178  1
  V  V13  1  0.00123601  0.13437864  0.11892720  1
  V  V14  1  0.74915450  0.62442740  0.87272628  1
  V  V15  1  0.11501276  -0.00500138  0.11815782  1
  V  V16  1  0.62723225  0.76676583  0.87219582  1
  V  V17  1  0.00035947  0.12599817  0.62269013  1
  V  V18  1  0.49432410  0.36589810  0.87018647  1
  V  V19  1  0.37350746  0.49967346  0.38042324  1
  V  V20  1  -0.00112285  0.87774415  0.37972439  1
  V  V21  1  0.48955337  0.12489225  0.11627768  1
  V  V22  1  0.25076616  0.49974243  0.74942145  1
  V  V23  1  0.25118118  0.63532957  0.37780210  1
  V  V24  1  0.74797421  0.37605844  0.62970294  1
  V  V25  1  0.12671967  0.87674840  0.25445244  1
  V  V26  1  0.00453157  0.24416982  0.27287764  1
  V  V27  1  0.50276321  0.62473005  0.62740924  1
  V  V28  1  0.24915197  0.24570592  0.00469443  1
  V  V29  1  0.75527001  0.74242198  0.00200314  1
  V  V30  1  0.24923922  0.87312168  0.12606918  1
  V  V31  1  0.49548416  0.87315447  0.38199748  1
  V  V32  1  0.75327983  0.00073209  0.25265034  1
  V  V33  1  0.50205443  0.13415092  0.63118883  1
  V  V34  1  0.37157938  0.37020590  0.00943950  1
  V  V35  1  0.39460239  -0.01844209  0.88644303  1
  V  V36  1  0.61358772  0.38890519  0.23942892  1
  V  V37  1  -0.00331049  0.00078531  0.51014984  1
  V  V38  1  0.37502521  0.25172536  0.62229825  1
  V  V39  1  0.74509996  0.00080017  0.74922908  1
  V  V40  1  0.49776662  0.75267564  0.24893830  1
  V  V41  1  0.75453682  0.87204070  0.12966600  1
  V  V42  1  0.25340599  0.37131059  0.61400360  1
  V  V43  1  -0.00037950  0.25633367  0.74937360  1
  V  V44  1  0.42301494  0.80961043  0.06690188  1
  V  V45  1  0.87338063  0.25148988  0.62343176  1
  V  V46  1  0.74614188  0.12721324  0.37379877  1
  V  V47  1  0.61783054  0.37113962  0.74602711  1
  V  V48  1  0.62541910  0.00462122  0.11769071  1
  V  V49  1  0.61255490  0.25315570  0.37491847  1
  V  V50  1  0.74795210  0.12880853  0.88088106  1
  V  V51  1  0.49720488  0.62228084  0.12220575  1
  V  V52  1  0.62502535  0.61890759  0.00012453  1
  V  V53  1  0.12535376  0.37098796  0.26399591  1
  V  V54  1  0.61978981  -0.00433980  0.62918725  1
  V  V55  1  0.12429873  0.37354257  0.75315085  1
  V  V56  1  0.49696796  -0.00102641  0.50306182  1
  V  V57  1  0.25951496  0.87025456  0.60705660  1
  V  V58  1  0.37627645  0.75098408  0.60982664  1
  V  V59  1  0.12859756  0.63468904  0.50222453  1
  V  V60  1  0.13053022  0.24529776  0.86987734  1
  V  V61  1  0.12695365  0.75585592  0.38135204  1
  V  V62  1  0.00250039  0.49607926  -0.00419462  1
  V  V63  1  0.00152299  0.63076897  0.62818765  1
  V  V64  1  0.87830845  0.62984499  0.74991638  1
  V  V65  1  0.88171436  0.49403312  0.87135127  1
  V  V66  1  0.74654536  0.25179423  0.49746286  1
  V  V67  1  0.12551737  0.49947195  0.62515448  1
  V  V68  1  0.37376943  0.00488400  0.37196953  1
  V  V69  1  0.62513157  0.62131963  0.50024116  1
  V  V70  1  0.50522277  0.76202362  0.75403698  1
  V  V71  1  0.75035969  0.62164034  0.37120965  1
  V  V72  1  0.11752402  0.74867762  0.86888867  1
  V  V73  1  -0.00001900  0.74957344  0.25337381  1
  V  V74  1  0.87747822  0.74344053  0.12757485  1
  V  V75  1  0.48939184  0.25006194  0.24419998  1
  V  V76  1  0.74463773  0.87311958  0.63207235  1
  V  V77  1  0.37476127  0.49835562  0.87435890  1
  V  V78  1  0.87571115  0.37515442  0.49762216  1
  V  V79  1  0.24991746  0.75379637  -0.00107796  1
  V  V80  1  0.62453890  0.87608963  0.25457141  1
  V  V81  1  0.37513510  0.12866948  0.76185234  1
  V  V82  1  0.87494710  0.00487321  0.37543509  1
  V  V83  1  0.88113527  0.75763195  0.62788163  1
  V  V84  1  0.37081376  0.63207759  0.24551412  1
  Zn  Zn85  1  0.62464022  0.49832528  0.62541034  1
  Zn  Zn86  1  0.36541630  0.13316996  0.24612518  1
  Zn  Zn87  1  0.89000215  0.87634724  -0.00027651  1
  Zn  Zn88  1  0.00573667  0.88262433  0.88264554  1
  Zn  Zn89  1  0.24617537  0.50245303  0.24781948  1
  Zn  Zn90  1  0.62690895  0.74925810  0.37453800  1
  Zn  Zn91  1  0.25161914  0.62735092  0.87483836  1
  Zn  Zn92  1  -0.05153637  0.33244174  0.92330547  1
  Zn  Zn93  1  0.84331255  0.17438356  0.19461511  1
  Zn  Zn94  1  0.87518789  0.62661258  0.25590844  1
  Zn  Zn95  1  0.24444675  0.37705515  0.12524399  1
  Zn  Zn96  1  0.17983410  0.20498983  0.40757254  1
  Zn  Zn97  1  0.00287952  0.62363500  0.12758279  1
  Zn  Zn98  1  0.49347983  0.49455456  0.50434380  1
  Zn  Zn99  1  0.74951060  0.50114410  0.74697667  1
  Zn  Zn100  1  0.49108278  0.37403125  0.38044181  1
  Zn  Zn101  1  0.87189212  0.87599621  0.50279481  1
  Zn  Zn102  1  0.62395511  0.12802243  -0.00038316  1
  Zn  Zn103  1  0.62062799  0.12607434  0.50111335  1
  Zn  Zn104  1  0.24421582  0.00871789  0.25520867  1
  Zn  Zn105  1  0.12698751  0.49892282  0.12742378  1
  Zn  Zn106  1  0.88192031  -0.00439165  0.87712370  1
  Zn  Zn107  1  0.18506659  0.18741370  0.18757496  1
  Zn  Zn108  1  0.18782659  0.18656124  0.58190937  1
  Zn  Zn109  1  0.18749237  0.69140937  0.18613508  1
  Zn  Zn110  1  0.19382283  0.69031010  0.68501049  1
  Zn  Zn111  1  0.67285584  0.19438520  0.18721569  1
  Zn  Zn112  1  0.68412535  0.19144443  0.69046896  1
  Zn  Zn113  1  0.68487875  0.68137387  0.18699376  1
  Zn  Zn114  1  0.68709464  0.68916706  0.69044637  1
  Zn  Zn115  1  0.30349671  0.31462304  0.30948706  1
  Zn  Zn116  1  0.30839022  0.31007479  0.81020278  1
  Zn  Zn117  1  0.31332875  0.81598044  0.31470207  1
  Zn  Zn118  1  0.31349061  0.81194796  0.81370248  1
  Zn  Zn119  1  0.79523899  0.29910023  0.28624138  1
  Zn  Zn120  1  0.78310075  0.28502181  0.97421748  1
  Zn  Zn121  1  0.81382194  0.81349596  0.31724104  1
  Zn  Zn122  1  0.81690026  0.81319751  0.81265298  1
  Zn  Zn123  1  0.19109975  0.44440444  0.43601493  1
  Zn  Zn124  1  0.18802458  0.43602170  0.93469324  1
  Zn  Zn125  1  0.18850812  1.02699493  0.44191137  1
  Zn  Zn126  1  0.18672470  0.93195826  0.93710494  1
  Zn  Zn127  1  0.68348867  0.43537218  0.43585949  1
  Zn  Zn128  1  0.68261114  0.44061736  0.92780901  1
  Zn  Zn129  1  0.68433726  0.93734908  0.44306044  1
  Zn  Zn130  1  0.71690841  0.94184561  0.94712389  1
  Zn  Zn131  1  0.30608075  0.05668997  0.05859015  1
  Zn  Zn132  1  0.32973176  0.05440980  0.57005976  1
  Zn  Zn133  1  0.31140649  0.56226324  0.06404819  1
  Zn  Zn134  1  0.30946790  0.56567810  0.56328724  1
  Zn  Zn135  1  0.81365930  0.05786003  0.05704678  1
  Zn  Zn136  1  0.80965782  0.06354163  0.56213990  1
  Zn  Zn137  1  0.80959555  0.45673779  0.04653168  1
  Zn  Zn138  1  0.81209585  0.56360670  0.56301247  1
  Zn  Zn139  1  0.43397818  0.44315234  0.19051462  1
  Zn  Zn140  1  0.43675369  0.43815621  0.68614000  1
  Zn  Zn141  1  0.44313519  0.94652619  0.19086832  1
  Zn  Zn142  1  0.43437795  0.93636627  0.69070876  1
  Zn  Zn143  1  0.96663397  0.42742524  0.18336813  1
  Zn  Zn144  1  0.93665967  0.43976332  0.68548955  1
  Zn  Zn145  1  0.93722838  0.93579768  0.18777222  1
  Zn  Zn146  1  0.94996386  0.95067901  0.71611236  1
  Zn  Zn147  1  0.06249317  0.06575514  0.31001708  1
  Zn  Zn148  1  0.06854620  0.06341583  0.80146411  1
  Zn  Zn149  1  0.06362370  0.56209151  0.31598746  1
  Zn  Zn150  1  0.06398205  0.56592332  0.81179299  1
  Zn  Zn151  1  0.55778734  0.06586283  0.30925828  1
  Zn  Zn152  1  0.56047105  0.05902726  0.81427899  1
  Zn  Zn153  1  0.55725608  0.56720775  0.31504564  1
  Zn  Zn154  1  0.56315073  0.55926159  0.81267227  1
  Zn  Zn155  1  0.39139052  0.21218991  0.41698737  1
  Zn  Zn156  1  0.43481501  0.18638029  0.93947158  1
  Zn  Zn157  1  0.44233201  0.68384540  0.43468774  1
  Zn  Zn158  1  0.44293060  0.68719360  0.92928375  1
  Zn  Zn159  1  0.93492034  0.18448940  0.43880514  1
  Zn  Zn160  1  0.94074604  0.17221710  0.93629927  1
  Zn  Zn161  1  0.93708486  0.68633856  0.44112453  1
  Zn  Zn162  1  0.94003277  0.68476638  0.93844096  1
  Zn  Zn163  1  0.07049832  0.31132213  0.06406358  1
  Zn  Zn164  1  0.06530525  0.31381307  0.55407254  1
  Zn  Zn165  1  0.06151912  0.81147249  0.06074903  1
  Zn  Zn166  1  0.06493721  0.82153536  0.56747179  1
  Zn  Zn167  1  0.56226910  0.31081429  0.06122176  1
  Zn  Zn168  1  0.55563432  0.31274102  0.55876679  1
  Zn  Zn169  1  0.58834511  0.81366352  0.06014608  1
  Zn  Zn170  1  0.56377826  0.81013691  0.56408737  1
  O  O171  1  0.11564116  0.11481829  0.11582116  1
  O  O172  1  0.11215110  0.11295288  0.63874380  1
  O  O173  1  0.12371941  0.62597777  0.11489424  1
  O  O174  1  0.12024990  0.62338421  0.61991495  1
  O  O175  1  0.61839125  0.11925874  0.12327290  1
  O  O176  1  0.61686138  0.11857791  0.62796344  1
  O  O177  1  0.60808268  0.63321969  0.11448950  1
  O  O178  1  0.61826937  0.62430874  0.62037616  1
  O  O179  1  0.36991664  0.39849942  0.36607936  1
  O  O180  1  0.37981064  0.37927920  0.87749610  1
  O  O181  1  0.39194982  0.88197414  0.37027435  1
  O  O182  1  0.37870248  0.88219980  0.87538585  1
  O  O183  1  0.86508881  0.38934480  0.37970889  1
  O  O184  1  0.87492949  0.39497761  0.86099341  1
  O  O185  1  0.87917997  0.88766692  0.37975270  1
  O  O186  1  0.88526440  0.87441599  0.87466008  1
  O  O187  1  0.27178246  -0.01433888  0.37549772  1
  O  O188  1  0.25396432  -0.00642200  0.86518260  1
  O  O189  1  0.25717585  0.51735160  0.37092350  1
  O  O190  1  0.25818668  0.50239284  0.86710486  1
  O  O191  1  0.75260568  0.00498872  0.37323030  1
  O  O192  1  0.73961977  0.01075519  0.85628582  1
  O  O193  1  0.75828021  0.51067753  0.38543927  1
  O  O194  1  0.75922874  0.51336717  0.87192142  1
  O  O195  1  0.24597045  0.49813757  0.12952816  1
  O  O196  1  0.24437755  0.49710364  0.63226393  1
  O  O197  1  0.23899536  0.98534932  0.12407406  1
  O  O198  1  0.26437803  0.98178794  0.64095858  1
  O  O199  1  0.75409298  0.51558152  0.13833684  1
  O  O200  1  0.74754922  0.49126715  0.62482884  1
  O  O201  1  0.74603748  0.99635341  0.13782478  1
  O  O202  1  0.74059307  0.99432886  0.62942169  1
  O  O203  1  0.01264075  0.35753834  0.25679341  1
  O  O204  1  0.00568961  0.36374176  0.73962830  1
  O  O205  1  0.00564364  0.86660685  0.25715036  1
  O  O206  1  0.02776444  0.86852530  0.72501050  1
  O  O207  1  0.50229591  0.37182783  0.25340481  1
  O  O208  1  0.50553854  0.38051255  0.75917328  1
  O  O209  1  0.50827909  0.87151759  0.25570585  1
  O  O210  1  0.50018349  0.86019491  0.74356266  1
  O  O211  1  0.49411536  0.13396299  0.23897000  1
  O  O212  1  0.48566862  0.11363746  0.74189255  1
  O  O213  1  0.49540013  0.63372264  0.24019228  1
  O  O214  1  0.49500708  0.62927964  0.74403222  1
  O  O215  1  1.00901096  0.13815064  0.23763109  1
  O  O216  1  0.99106214  0.13543051  0.73961242  1
  O  O217  1  1.00178066  0.64002815  0.25445515  1
  O  O218  1  0.99520221  0.62344832  0.73554288  1
  O  O219  1  0.36196848  0.25857636  -0.00935846  1
  O  O220  1  0.38774807  0.24626446  0.52414023  1
  O  O221  1  0.37064417  0.74911626  -0.00034289  1
  O  O222  1  0.38251299  0.74445683  0.51102438  1
  O  O223  1  0.88889833  0.25806044  -0.01378092  1
  O  O224  1  0.86752902  0.25583508  0.50210550  1
  O  O225  1  0.86881406  0.74810155  0.00874317  1
  O  O226  1  0.86611222  0.75023882  0.51023625  1
  O  O227  1  0.13439301  0.24591494  0.50368931  1
  O  O228  1  0.12841333  0.24193444  0.98810312  1
  O  O229  1  0.11814437  0.74285474  0.49690206  1
  O  O230  1  0.13277600  0.74075348  0.99259932  1
  O  O231  1  0.62882283  0.24774791  0.49078754  1
  O  O232  1  0.62287122  0.25094618  0.98469862  1
  O  O233  1  0.63304544  0.73834286  0.50121351  1
  O  O234  1  0.63041479  0.73553910  0.98997728  1
  O  O235  1  0.50395525  0.23525146  0.13012950  1
  O  O236  1  0.50049104  0.23780017  0.63201125  1
  O  O237  1  0.49123845  0.74964920  0.12385221  1
  O  O238  1  0.49609531  0.74002905  0.63155325  1
  O  O239  1  1.00379553  0.23547254  0.12484016  1
  O  O240  1  0.99403085  0.24417815  0.62848027  1
  O  O241  1  0.99543793  0.75047719  0.13669311  1
  O  O242  1  0.99134111  0.74281929  0.61688936  1
  O  O243  1  0.01318206  0.23304957  0.37122814  1
  O  O244  1  0.00913723  0.24938273  0.86329109  1
  O  O245  1  0.00264475  0.75698678  0.37204332  1
  O  O246  1  0.01560041  0.74834948  0.87607687  1
  O  O247  1  0.49791274  0.25070409  0.36715426  1
  O  O248  1  0.50292690  0.26155245  0.87735669  1
  O  O249  1  0.50544891  0.75740133  0.36987324  1
  O  O250  1  0.51455843  0.74829004  0.86616898  1
  O  O251  1  0.22352253  0.08183234  0.54102146  1
  O  O252  1  0.23594355  0.13130716  1.00237871  1
  O  O253  1  0.23681731  0.62442989  0.49394703  1
  O  O254  1  0.24573389  0.63705337  1.00057199  1
  O  O255  1  0.74453706  0.13036950  0.48875761  1
  O  O256  1  0.74816960  0.12612497  0.98623823  1
  O  O257  1  0.74410787  0.63129756  0.49520772  1
  O  O258  1  0.74083557  0.63269125  0.99287549  1
  O  O259  1  0.25664969  0.36778054  -0.00142793  1
  O  O260  1  0.24854785  0.38732197  0.51596177  1
  O  O261  1  0.24527060  0.86142037  0.00794775  1
  O  O262  1  0.25453044  0.88237588  0.51264684  1
  O  O263  1  0.74066754  0.38247547  0.00207045  1
  O  O264  1  0.75315863  0.36958861  0.50789834  1
  O  O265  1  0.73788899  0.85007293  0.01660665  1
  O  O266  1  0.75076738  0.86910791  0.51265327  1
  O  O267  1  0.12045780  0.48753956  0.25183346  1
  O  O268  1  0.12850351  0.49446611  0.74442273  1
  O  O269  1  0.12412305  0.98632840  0.24275606  1
  O  O270  1  0.14559497  0.99520363  0.73718561  1
  O  O271  1  0.61006419  0.48782194  0.25288723  1
  O  O272  1  0.62812841  0.48675913  0.74922908  1
  O  O273  1  0.63479616  0.99401361  0.24784694  1
  O  O274  1  0.62949162  1.00422356  0.73655649  1
  O  O275  1  0.37613350  -0.00002584  0.26444037  1
  O  O276  1  0.37190840  -0.00078450  0.76472893  1
  O  O277  1  0.37368041  0.51762940  0.25856114  1
  O  O278  1  0.37252634  0.51110543  0.75382408  1
  O  O279  1  0.86195077  -0.00732985  0.25956795  1
  O  O280  1  0.85837685  0.01648783  0.74021708  1
  O  O281  1  0.87577059  0.50508558  0.26065573  1
  O  O282  1  0.87534751  0.51452092  0.75185215  1
  O  O283  1  0.13294935  0.37721031  0.36411233  1
  O  O284  1  0.12725132  0.36921477  0.85933957  1
  O  O285  1  0.11561112  0.87067150  0.36759813  1
  O  O286  1  0.12423218  0.86747101  0.86218742  1
  O  O287  1  0.62152313  0.36318594  0.36735667  1
  O  O288  1  0.61439182  0.36970145  0.86610710  1
  O  O289  1  0.61925238  0.87535878  0.36643835  1
  O  O290  1  0.64251742  0.86327427  0.88544636  1
  O  O291  1  0.38798679  0.11432815  0.12211745  1
  O  O292  1  0.38448536  0.12925218  0.63734281  1
  O  O293  1  0.38633776  0.62471985  0.13134264  1
  O  O294  1  0.38169994  0.63151811  0.63144947  1
  O  O295  1  0.89484011  0.10985398  0.11968284  1
  O  O296  1  0.87675142  0.13339923  0.62936168  1
  O  O297  1  0.88165410  0.64090948  0.13522284  1
  O  O298  1  0.88226549  0.63384678  0.62962069  1
  O  O299  1  0.24006769  0.25499418  0.10729504  1
  O  O300  1  0.26194128  0.25957864  0.62916411  1
  O  O301  1  0.24829872  0.76363294  0.11832916  1
  O  O302  1  0.26218885  0.76084569  0.62400177  1
  O  O303  1  0.76586147  0.25241560  0.18113649  1
  O  O304  1  0.75303689  0.25615330  0.61779667  1
  O  O305  1  0.75814089  0.74730811  0.12184808  1
  O  O306  1  0.75511788  0.75702740  0.62269773  1
  O  O307  1  0.28372927  0.23975398  0.38684791  1
  O  O308  1  0.23523029  0.25246705  0.88037122  1
  O  O309  1  0.24524526  0.74255934  0.37407333  1
  O  O310  1  0.24387756  0.74916479  0.88435002  1
  O  O311  1  0.73882437  0.24233964  0.37507488  1
  O  O312  1  0.73857832  0.23987022  0.87379130  1
  O  O313  1  0.74921382  0.74528632  0.38622142  1
  O  O314  1  0.74854718  0.74020069  0.88120859  1
  O  O315  1  0.01300092  0.11976252  0.00877283  1
  O  O316  1  -0.00714463  0.11765494  0.51536848  1
  O  O317  1  0.01158289  0.61843921  0.00113471  1
  O  O318  1  0.00780189  0.62005769  0.51015246  1
  O  O319  1  0.50383523  0.12888428  0.01262448  1
  O  O320  1  0.50330136  0.11148969  0.51819339  1
  O  O321  1  0.50359107  0.61814738  0.00354470  1
  O  O322  1  0.50983997  0.62421615  0.50930200  1
  O  O323  1  0.50210402  0.38282959  0.49346496  1
  O  O324  1  0.49249181  0.38037088  0.99370748  1
  O  O325  1  0.51081015  0.88242334  0.49134950  1
  O  O326  1  0.49013067  0.86165525  1.01755926  1
  O  O327  1  0.99023935  0.38672174  0.50659497  1
  O  O328  1  1.01512194  0.39104501  0.99690547  1
  O  O329  1  0.99321623  0.88301248  0.49780196  1
  O  O330  1  1.00386807  0.88011786  0.99779386  1
  O  O331  1  0.48193825  0.50815263  0.37809167  1
  O  O332  1  0.49381075  0.49186719  0.88407102  1
  O  O333  1  0.49864968  0.99298491  0.38307570  1
  O  O334  1  0.49433138  0.99375225  0.87865387  1
  O  O335  1  0.99021989  0.50924593  0.39027033  1
  O  O336  1  0.99271140  0.50847876  0.87996323  1
  O  O337  1  0.98999798  0.99914896  0.38333809  1
  O  O338  1  0.98976920  0.98762234  0.82907624  1
  O  O339  1  0.01252424  0.00436093  0.13285993  1
  O  O340  1  -0.00787230  0.01022269  0.62194632  1
  O  O341  1  0.00529726  0.50603872  0.11271256  1
  O  O342  1  0.00565522  0.50900792  0.61609402  1
  O  O343  1  0.51253277  0.01472485  0.13124746  1
  O  O344  1  0.50391689  -0.00014947  0.62109530  1
  O  O345  1  0.49419460  0.50787958  0.11089716  1
  O  O346  1  0.50009132  0.51394611  0.62503839  1
  O  O347  1  0.23734662  0.37790605  0.24553964  1
  O  O348  1  0.24150434  0.38236696  0.74443463  1
  O  O349  1  0.24138873  0.87548567  0.24413660  1
  O  O350  1  0.24776094  0.88224470  0.74793596  1
  O  O351  1  0.73270097  0.39505070  0.25772029  1
  O  O352  1  0.74113965  0.37661845  0.73330678  1
  O  O353  1  0.74264264  0.87873696  0.24915129  1
  O  O354  1  0.75434524  0.88470195  0.73916391  1
  O  O355  1  0.25444216  0.11979658  0.23870513  1
  O  O356  1  0.27051296  0.10220758  0.74555933  1
  O  O357  1  0.25627509  0.62928209  0.25674200  1
  O  O358  1  0.26127074  0.61920165  0.74878051  1
  O  O359  1  0.74953177  0.11397249  0.26292120  1
  O  O360  1  0.75458365  0.12340276  0.75522908  1
  O  O361  1  0.74968490  0.63214877  0.26774794  1
  O  O362  1  0.75820206  0.62400131  0.75644256  1
  O  O363  1  0.38644778  0.10588053  0.37206544  1
  O  O364  1  0.38276896  0.11604044  0.86359645  1
  O  O365  1  0.36705405  0.62459531  0.36796489  1
  O  O366  1  0.37482216  0.61872956  0.86593412  1
  O  O367  1  0.86370750  0.11236996  0.37986152  1
  O  O368  1  0.86649212  0.11792146  0.86521999  1
  O  O369  1  0.86672893  0.61681398  0.37794903  1
  O  O370  1  0.86966374  0.62437553  0.86557436  1
  O  O371  1  0.12296856  0.37880547  0.13860342  1
  O  O372  1  0.13197432  0.38099169  0.63445269  1
  O  O373  1  0.13079419  0.87783940  0.13293578  1
  O  O374  1  0.14699398  0.88330277  0.62606915  1
  O  O375  1  0.61722272  0.37388643  0.14099779  1
  O  O376  1  0.62854206  0.37412060  0.63047835  1
  O  O377  1  0.63193956  0.88388122  0.13871365  1
  O  O378  1  0.63361583  0.88199957  0.62343541  1
  O  O379  1  0.11844095  0.25976275  0.25114552  1
  O  O380  1  0.11530555  0.25815173  0.75458517  1
  O  O381  1  0.11885259  0.75988650  0.25657461  1
  O  O382  1  0.13820471  0.75758977  0.75846270  1
  O  O383  1  0.60659972  0.26074897  0.25841706  1
  O  O384  1  0.62659351  0.26400185  0.76029159  1
  O  O385  1  0.61850149  0.76005640  0.24923175  1
  O  O386  1  0.61811277  0.74713593  0.76061816  1
  O  O387  1  0.38614376  0.25470970  0.24773639  1
  O  O388  1  0.36965012  0.23214034  0.74936747  1
  O  O389  1  0.38175290  0.74022298  0.25512367  1
  O  O390  1  0.38292636  0.73911453  0.74793465  1
  O  O391  1  0.90033951  0.24864558  0.26631546  1
  O  O392  1  0.88220300  0.23892281  0.74235649  1
  O  O393  1  0.88425599  0.75247402  0.24782182  1
  O  O394  1  0.87204942  0.73795709  0.74152607  1
  O  O395  1  0.37318595  0.51310960  0.48433746  1
  O  O396  1  0.38004504  0.49341861  0.99203098  1
  O  O397  1  0.39038432  0.99816312  0.49015715  1
  O  O398  1  0.37020128  1.00202814  0.98227463  1
  O  O399  1  0.88262873  0.49674008  0.49754710  1
  O  O400  1  0.89002190  0.50542159  0.98519706  1
  O  O401  1  0.88100002  0.99877045  0.49554682  1
  O  O402  1  0.83225308  0.97699631  0.98292763  1
  O  O403  1  0.13098479  0.00556312  0.00586889  1
  O  O404  1  0.10499561  -0.01105951  0.51698214  1
  O  O405  1  0.12384143  0.51334472  -0.00587760  1
  O  O406  1  0.11787542  0.50959532  0.50417323  1
  O  O407  1  0.63718958  -0.00028796  0.01627821  1
  O  O408  1  0.61742964  0.00280452  0.51217073  1
  O  O409  1  0.61385523  0.51232913  -0.00782859  1
  O  O410  1  0.62478227  0.51286806  0.50216834  1
  O  O411  1  0.37391800  0.37976325  0.11137072  1
  O  O412  1  0.36506141  0.36438848  0.63819357  1
  O  O413  1  0.37056153  0.87625552  0.12803837  1
  O  O414  1  0.36903357  0.86360555  0.62725918  1
  O  O415  1  0.85905181  0.40037400  0.14477995  1
  O  O416  1  0.86601421  0.37017155  0.61995167  1
  O  O417  1  0.86947087  0.86391816  0.12499810  1
  O  O418  1  0.86891460  0.86358450  0.62903059  1
  O  O419  1  0.13926246  0.10500907  0.37867100  1
  O  O420  1  0.11951851  0.13099745  0.87937460  1
  O  O421  1  0.13139042  0.63384669  0.38333109  1
  O  O422  1  0.13083984  0.63276236  0.87984880  1
  O  O423  1  0.62739765  0.13662358  0.37359641  1
  O  O424  1  0.62893315  0.13332509  0.87348893  1
  O  O425  1  0.63102613  0.62678710  0.38353054  1
  O  O426  1  0.63457708  0.62709933  0.87927072  1
