# generated using pymatgen
data_V85Zn86O256
_symmetry_space_group_name_H-M   'P 1'
_cell_length_a   16.93502140
_cell_length_b   16.93344407
_cell_length_c   16.93375130
_cell_angle_alpha   89.94882672
_cell_angle_beta   89.95435343
_cell_angle_gamma   89.90264942
_symmetry_Int_Tables_number   1
_chemical_formula_structural   V85Zn86O256
_chemical_formula_sum   'V85 Zn86 O256'
_cell_volume   4856.05153468
_cell_formula_units_Z   1
loop_
 _symmetry_equiv_pos_site_id
 _symmetry_equiv_pos_as_xyz
  1  'x, y, z'
loop_
 _atom_site_type_symbol
 _atom_site_label
 _atom_site_symmetry_multiplicity
 _atom_site_fract_x
 _atom_site_fract_y
 _atom_site_fract_z
 _atom_site_occupancy
  V  V0  1  0.62785955  0.74933952  0.87545707  1
  V  V1  1  0.49543349  0.00551915  0.49955632  1
  V  V2  1  0.12695133  0.73851403  0.37033036  1
  V  V3  1  0.75238451  0.24812058  0.49780828  1
  V  V4  1  0.75433073  0.36907565  0.12597071  1
  V  V5  1  0.75082724  0.12590462  0.36855983  1
  V  V6  1  -0.02340869  0.13117002  0.12835450  1
  V  V7  1  0.62629219  -0.00253807  0.12484890  1
  V  V8  1  0.49648505  0.87942939  0.37617649  1
  V  V9  1  0.37353291  0.87798897  0.49657765  1
  V  V10  1  0.24309899  0.49902875  0.74725781  1
  V  V11  1  0.49678589  0.62192255  0.12703698  1
  V  V12  1  0.37854057  0.75158285  0.62425024  1
  V  V13  1  0.01270140  0.37207161  0.87824405  1
  V  V14  1  0.75415370  -0.00076430  0.24677468  1
  V  V15  1  0.62842780  0.12345436  -0.00321457  1
  V  V16  1  0.12924724  0.12509997  0.49719293  1
  V  V17  1  0.36442945  0.62052384  0.25573624  1
  V  V18  1  0.49719902  0.49694902  -0.00040767  1
  V  V19  1  0.50617226  0.60961047  0.61924090  1
  V  V20  1  0.74653365  0.50402228  0.25540425  1
  V  V21  1  0.62179809  0.12514427  0.50409416  1
  V  V22  1  0.12330434  0.88268524  0.74934863  1
  V  V23  1  -0.00829775  0.25592580  0.24917524  1
  V  V24  1  0.87772425  0.49827890  0.87489478  1
  V  V25  1  0.37391258  0.74758377  0.12704781  1
  V  V26  1  0.36799434  0.00000757  0.87612579  1
  V  V27  1  0.25015484  0.87809895  0.12595504  1
  V  V28  1  0.87846208  0.24594537  0.62549094  1
  V  V29  1  0.75190424  0.00300374  0.75733903  1
  V  V30  1  0.38130139  0.12296707  0.74415460  1
  V  V31  1  0.49354416  0.25354527  0.24930571  1
  V  V32  1  0.62493368  -0.00289260  0.62426854  1
  V  V33  1  0.75319680  0.62624580  0.87512209  1
  V  V34  1  0.75139996  0.37492595  0.62595201  1
  V  V35  1  0.50447398  0.24226403  0.74215141  1
  V  V36  1  0.12789079  0.01344887  0.12348672  1
  V  V37  1  0.00693143  0.24905442  0.75586307  1
  V  V38  1  0.62847933  0.37830466  0.74832319  1
  V  V39  1  -0.00508259  0.75179773  0.24305801  1
  V  V40  1  0.49413325  0.37715107  0.39325969  1
  V  V41  1  0.88209423  0.63285650  0.73815054  1
  V  V42  1  0.86892942  0.63035791  0.24389278  1
  V  V43  1  0.25120227  0.26852472  0.50381230  1
  V  V44  1  0.62871062  0.60917842  0.49798341  1
  V  V45  1  0.00699919  0.12265350  0.62795280  1
  V  V46  1  0.62762484  0.87373327  0.24746145  1
  V  V47  1  0.25008946  0.88379571  0.62502960  1
  V  V48  1  0.37090142  0.49512428  0.87695771  1
  V  V49  1  0.00477599  0.50139771  0.50541386  1
  V  V50  1  0.23677652  0.37814793  0.11201291  1
  V  V51  1  0.63264609  0.24469419  0.87435736  1
  V  V52  1  0.62336111  0.49789291  0.12585679  1
  V  V53  1  0.00004390  0.49930292  0.00881191  1
  V  V54  1  0.62315593  0.37377479  0.25161713  1
  V  V55  1  0.37495802  0.87406698  0.00139374  1
  V  V56  1  0.37234916  0.49761497  0.38613039  1
  V  V57  1  0.37789339  0.62334731  0.75213391  1
  V  V58  1  0.75804569  0.24663485  0.00151209  1
  V  V59  1  0.87937108  0.87442570  0.01355540  1
  V  V60  1  0.50327119  0.74880564  0.74807389  1
  V  V61  1  0.06615346  0.67633547  0.55573888  1
  V  V62  1  0.87270617  0.50623141  0.37496834  1
  V  V63  1  0.25218546  0.73987851  0.49830655  1
  V  V64  1  0.50092117  -0.00025943  -0.00101952  1
  V  V65  1  0.23992561  0.48697080  0.25288820  1
  V  V66  1  0.37032244  0.12386527  0.25263624  1
  V  V67  1  0.00225740  0.00456804  0.49931948  1
  V  V68  1  0.75097858  0.50163304  0.74585610  1
  V  V69  1  0.49912838  0.37323478  0.87757388  1
  V  V70  1  0.87005754  0.87104407  0.50253065  1
  V  V71  1  0.24785081  0.74849085  0.00080228  1
  V  V72  1  0.37214272  0.26070755  0.10962309  1
  V  V73  1  0.12454377  0.87882696  0.25155664  1
  V  V74  1  0.87902687  0.37534571  0.49548450  1
  V  V75  1  0.49985422  0.87289245  0.87375295  1
  V  V76  1  0.12576692  0.61530589  0.00626858  1
  V  V77  1  0.11905952  0.75086948  0.87534880  1
  V  V78  1  0.24724960  0.14801264  0.87717949  1
  V  V79  1  0.62659052  0.62461887  0.00121587  1
  V  V80  1  0.87679934  0.00442947  0.37183564  1
  V  V81  1  0.63097668  0.74543952  0.38040534  1
  V  V82  1  0.49786019  0.74822911  0.25314231  1
  V  V83  1  0.62342809  0.24995366  0.37374082  1
  V  V84  1  0.75601156  0.75434330  0.01422609  1
  Zn  Zn85  1  -0.00106938  0.62554702  0.12641995  1
  Zn  Zn86  1  0.62908799  0.87212510  0.74734852  1
  Zn  Zn87  1  0.00321488  0.00540625  -0.00210219  1
  Zn  Zn88  1  0.12693234  0.14153600  -0.00199014  1
  Zn  Zn89  1  0.87662292  0.37208174  0.00221336  1
  Zn  Zn90  1  0.49642302  0.12818333  0.12274174  1
  Zn  Zn91  1  -0.00604272  0.87681057  0.87171298  1
  Zn  Zn92  1  0.24610222  0.00528502  0.74893925  1
  Zn  Zn93  1  0.87678394  0.00172069  0.87956922  1
  Zn  Zn94  1  0.00029042  0.74933670  0.73746392  1
  Zn  Zn95  1  0.87090877  0.12777319  0.76349958  1
  Zn  Zn96  1  0.75361833  0.86707631  0.62898412  1
  Zn  Zn97  1  0.12844870  0.25575903  0.36573465  1
  Zn  Zn98  1  0.37756583  0.25523187  0.61428013  1
  Zn  Zn99  1  0.25536531  -0.00040080  0.25552073  1
  Zn  Zn100  1  0.25324472  0.12068307  0.37964592  1
  Zn  Zn101  1  0.24889074  0.62690276  0.87572517  1
  Zn  Zn102  1  0.01017416  0.38084487  0.36494182  1
  Zn  Zn103  1  -0.00077272  0.87818843  0.37096185  1
  Zn  Zn104  1  0.13269512  0.49798971  0.61444885  1
  Zn  Zn105  1  0.75400252  0.73944310  0.50430265  1
  Zn  Zn106  1  0.12679498  0.36749628  0.74149960  1
  Zn  Zn107  1  0.18825363  0.20084976  0.18714758  1
  Zn  Zn108  1  0.19015259  0.18559776  0.68500914  1
  Zn  Zn109  1  0.18620650  0.68572940  0.18753741  1
  Zn  Zn110  1  0.19391154  0.69407244  0.69215623  1
  Zn  Zn111  1  0.68570618  0.18471186  0.18490282  1
  Zn  Zn112  1  0.68905196  0.18483935  0.68543455  1
  Zn  Zn113  1  0.68429518  0.68519673  0.19077633  1
  Zn  Zn114  1  0.69022510  0.68763669  0.68266410  1
  Zn  Zn115  1  0.30902498  0.31167983  0.31841189  1
  Zn  Zn116  1  0.32877058  0.32551423  0.77748984  1
  Zn  Zn117  1  0.31032832  0.81324500  0.31496520  1
  Zn  Zn118  1  0.30998997  0.81175839  0.81274200  1
  Zn  Zn119  1  0.81912838  0.31249436  0.30908233  1
  Zn  Zn120  1  0.81800216  0.31082508  0.81481603  1
  Zn  Zn121  1  0.81090431  0.81570199  0.31545699  1
  Zn  Zn122  1  0.81410459  0.81657131  0.81576159  1
  Zn  Zn123  1  0.18421586  0.43962389  0.43376196  1
  Zn  Zn124  1  0.19408879  0.32013531  0.93760408  1
  Zn  Zn125  1  0.19036822  0.94094902  0.43296501  1
  Zn  Zn126  1  0.18384248  0.93753898  0.93874779  1
  Zn  Zn127  1  0.68835986  0.43459193  0.43643443  1
  Zn  Zn128  1  0.68848736  0.43557915  0.93600304  1
  Zn  Zn129  1  0.68541102  0.93765063  0.43456451  1
  Zn  Zn130  1  0.69103787  0.93127721  0.93792376  1
  Zn  Zn131  1  0.31136855  0.06943975  0.06314820  1
  Zn  Zn132  1  0.31620383  0.06552980  0.56473267  1
  Zn  Zn133  1  0.30906150  0.55445473  0.06349642  1
  Zn  Zn134  1  0.31502963  0.56266665  0.56744245  1
  Zn  Zn135  1  0.80745772  0.05758863  0.05821208  1
  Zn  Zn136  1  0.81187157  0.05967763  0.56329422  1
  Zn  Zn137  1  0.81190718  0.56079089  0.06499821  1
  Zn  Zn138  1  0.81172906  0.56191282  0.56350573  1
  Zn  Zn139  1  0.43226204  0.43602892  0.19153119  1
  Zn  Zn140  1  0.43818534  0.43355650  0.68662803  1
  Zn  Zn141  1  0.44083256  0.93866815  0.18668863  1
  Zn  Zn142  1  0.44124970  0.93903987  0.68560103  1
  Zn  Zn143  1  0.93394940  0.43809747  0.18750431  1
  Zn  Zn144  1  0.94295346  0.43652738  0.68616174  1
  Zn  Zn145  1  0.94035875  0.94236095  0.18329613  1
  Zn  Zn146  1  0.93784875  0.93882275  0.68656784  1
  Zn  Zn147  1  0.06429188  0.07079011  0.30793477  1
  Zn  Zn148  1  0.06149408  0.06349671  0.81658789  1
  Zn  Zn149  1  0.05880108  0.56246625  0.31379056  1
  Zn  Zn150  1  0.06026134  0.56609344  0.81873625  1
  Zn  Zn151  1  0.55933716  0.06488329  0.31224397  1
  Zn  Zn152  1  0.56568703  0.05944872  0.81359499  1
  Zn  Zn153  1  0.55594879  0.56046674  0.31724893  1
  Zn  Zn154  1  0.56421813  0.56133454  0.81189216  1
  Zn  Zn155  1  0.43465417  0.19004429  0.43641088  1
  Zn  Zn156  1  0.44022063  0.18600463  0.93075066  1
  Zn  Zn157  1  0.43906889  0.68500615  0.43754573  1
  Zn  Zn158  1  0.43868658  0.68574939  0.93879631  1
  Zn  Zn159  1  0.94024214  0.18742630  0.43169983  1
  Zn  Zn160  1  0.93961865  0.18095655  0.93790680  1
  Zn  Zn161  1  0.93354266  0.69135395  0.42196929  1
  Zn  Zn162  1  0.93722422  0.68775156  0.93753971  1
  Zn  Zn163  1  0.06001626  0.30927749  0.06754134  1
  Zn  Zn164  1  0.06803378  0.31396452  0.56135628  1
  Zn  Zn165  1  0.06380664  0.81329371  0.06491254  1
  Zn  Zn166  1  0.06501282  0.83981314  0.55926801  1
  Zn  Zn167  1  0.56355305  0.31092973  0.06193121  1
  Zn  Zn168  1  0.56680124  0.31244583  0.56623882  1
  Zn  Zn169  1  0.56350786  0.81092518  0.06393846  1
  Zn  Zn170  1  0.56545020  0.81080509  0.56176704  1
  O  O171  1  0.13809886  0.11669066  0.12209996  1
  O  O172  1  0.11261670  0.12591883  0.61861152  1
  O  O173  1  0.12152910  0.62976059  0.11048448  1
  O  O174  1  0.12523243  0.62548486  0.62155708  1
  O  O175  1  0.61830345  0.11636272  0.11715566  1
  O  O176  1  0.62982092  0.11895696  0.60946149  1
  O  O177  1  0.61717749  0.61742891  0.12179334  1
  O  O178  1  0.61389428  0.62384010  0.61360918  1
  O  O179  1  0.38210352  0.38634556  0.37293167  1
  O  O180  1  0.38811357  0.38358090  0.86722945  1
  O  O181  1  0.38858727  0.87071010  0.37886398  1
  O  O182  1  0.38055386  0.87917107  0.88075574  1
  O  O183  1  0.87608112  0.38659519  0.38113410  1
  O  O184  1  0.87925131  0.38837340  0.87742503  1
  O  O185  1  0.87500529  0.89016372  0.38057936  1
  O  O186  1  0.87553792  0.87892547  0.88877440  1
  O  O187  1  0.25233492  0.00560053  0.36847982  1
  O  O188  1  0.26310978  -0.00692237  0.87228774  1
  O  O189  1  0.26234497  0.49557977  0.36388551  1
  O  O190  1  0.26693057  0.50940859  0.86620728  1
  O  O191  1  0.75252419  0.00747941  0.36648559  1
  O  O192  1  0.74386910  -0.00306769  0.85948199  1
  O  O193  1  0.75516968  0.49296214  0.36207958  1
  O  O194  1  0.75804967  0.50463126  0.86797275  1
  O  O195  1  0.25742295  0.48600499  0.13924968  1
  O  O196  1  0.25138236  0.50537439  0.64280478  1
  O  O197  1  0.24610366  0.99388312  0.12788485  1
  O  O198  1  0.25855860  0.98759018  0.62947156  1
  O  O199  1  0.74162615  0.49354313  0.13455269  1
  O  O200  1  0.75647499  0.49179752  0.63865002  1
  O  O201  1  0.73589725  1.00370368  0.13373922  1
  O  O202  1  0.73921958  0.99553135  0.62909038  1
  O  O203  1  -0.00662338  0.36240582  0.24625007  1
  O  O204  1  -0.00315763  0.36689185  0.76067517  1
  O  O205  1  0.00691717  0.87127698  0.24897597  1
  O  O206  1  0.00766512  0.86881126  0.74605166  1
  O  O207  1  0.50428201  0.36564463  0.25510146  1
  O  O208  1  0.51366060  0.36793523  0.76011727  1
  O  O209  1  0.50709497  0.87126588  0.25725969  1
  O  O210  1  0.50232967  0.86621654  0.75582287  1
  O  O211  1  0.49346840  0.13789674  0.24753958  1
  O  O212  1  0.49612561  0.12988391  0.75541538  1
  O  O213  1  0.49128380  0.62862402  0.24460484  1
  O  O214  1  0.49876557  0.62858396  0.74031191  1
  O  O215  1  0.99717826  0.12804526  0.23259470  1
  O  O216  1  0.99679189  0.13015790  0.74300104  1
  O  O217  1  0.98973051  0.63251302  0.24900720  1
  O  O218  1  0.98652974  0.62737429  0.75173399  1
  O  O219  1  0.38372260  0.24886647  0.01147545  1
  O  O220  1  0.35828854  0.24368244  0.50075135  1
  O  O221  1  0.36902549  0.75304871  0.00562003  1
  O  O222  1  0.36939018  0.75669208  0.50208065  1
  O  O223  1  0.86036593  0.25159458  -0.00462019  1
  O  O224  1  0.87221765  0.25714102  0.50245391  1
  O  O225  1  0.86358078  0.75650044  -0.00099505  1
  O  O226  1  0.87291374  0.76759981  0.48452480  1
  O  O227  1  0.13452184  0.24143343  0.49842843  1
  O  O228  1  0.12690393  0.25436425  0.99752662  1
  O  O229  1  0.12511294  0.74631853  0.49669178  1
  O  O230  1  0.12998817  0.74514807  0.99480297  1
  O  O231  1  0.63163739  0.24314069  0.49488614  1
  O  O232  1  0.63004147  0.24114676  0.99324439  1
  O  O233  1  0.62294629  0.73901007  0.49218983  1
  O  O234  1  0.63415634  0.74542743  0.99595892  1
  O  O235  1  0.49056926  0.25274509  0.13196764  1
  O  O236  1  0.50304926  0.24905702  0.63898953  1
  O  O237  1  0.49348681  0.74412571  0.13266842  1
  O  O238  1  0.49640387  0.74334169  0.63138933  1
  O  O239  1  0.99401540  0.23906544  0.13256485  1
  O  O240  1  0.99352552  0.24278191  0.62979217  1
  O  O241  1  1.00330319  0.74852596  0.13956295  1
  O  O242  1  1.01352151  0.74317174  0.61182287  1
  O  O243  1  -0.00064136  0.25271043  0.36163255  1
  O  O244  1  -0.00922767  0.26012691  0.86675518  1
  O  O245  1  0.00989832  0.75584849  0.36297666  1
  O  O246  1  0.01108405  0.75271751  0.87557275  1
  O  O247  1  0.50260556  0.25833062  0.36818385  1
  O  O248  1  0.51437198  0.25677549  0.87141500  1
  O  O249  1  0.50724608  0.75622462  0.36976974  1
  O  O250  1  0.50772438  0.75177964  0.86986678  1
  O  O251  1  0.23476803  0.11570699  0.50351056  1
  O  O252  1  0.25359149  0.12681842  0.97993791  1
  O  O253  1  0.25549968  0.64056446  0.50630965  1
  O  O254  1  0.23972609  0.62708516  1.00082479  1
  O  O255  1  0.74310082  0.12726857  0.48855896  1
  O  O256  1  0.73652018  0.13169677  1.00568484  1
  O  O257  1  0.73371130  0.62057084  0.50168290  1
  O  O258  1  0.74739876  0.63367669  0.99633687  1
  O  O259  1  0.24963897  0.38817849  0.01267478  1
  O  O260  1  0.24855870  0.36700462  0.50194422  1
  O  O261  1  0.25604305  0.86960602  0.00755062  1
  O  O262  1  0.25441463  0.87028345  0.50729538  1
  O  O263  1  0.74670482  0.36585986  0.00874758  1
  O  O264  1  0.75984990  0.37002228  0.50393347  1
  O  O265  1  0.75783646  0.86133258  0.00154799  1
  O  O266  1  0.76432660  0.88089463  0.49707267  1
  O  O267  1  0.14221420  0.50634789  0.25578134  1
  O  O268  1  0.14035498  0.51456010  0.75304024  1
  O  O269  1  0.12602501  0.99410404  0.24090121  1
  O  O270  1  0.12726166  0.98653995  0.75514160  1
  O  O271  1  0.62928576  0.49549513  0.24863505  1
  O  O272  1  0.63785841  0.49033173  0.75729778  1
  O  O273  1  0.62820353  0.99365560  0.24387486  1
  O  O274  1  0.63239585  0.99855887  0.74084108  1
  O  O275  1  0.37856168  0.02044862  0.23778033  1
  O  O276  1  0.37787097  0.00667093  0.75894217  1
  O  O277  1  0.36803473  0.50577792  0.25805562  1
  O  O278  1  0.37036481  0.50853164  0.75581223  1
  O  O279  1  0.86129118  -0.00616446  0.25437771  1
  O  O280  1  0.86082327  0.00018671  0.74736483  1
  O  O281  1  0.86596780  0.50615181  0.25588249  1
  O  O282  1  0.87105796  0.50747101  0.75665591  1
  O  O283  1  0.12168576  0.36993357  0.37509300  1
  O  O284  1  0.11394007  0.37679846  0.86852498  1
  O  O285  1  0.12397736  0.87081709  0.36093037  1
  O  O286  1  0.12451583  0.86645160  0.86800968  1
  O  O287  1  0.61688160  0.36857812  0.37078294  1
  O  O288  1  0.62260034  0.36809694  0.86527474  1
  O  O289  1  0.61488721  0.86737897  0.37005964  1
  O  O290  1  0.61819078  0.86499690  0.87458693  1
  O  O291  1  0.37579743  0.14114388  0.13103614  1
  O  O292  1  0.37386338  0.13057805  0.64112169  1
  O  O293  1  0.37895240  0.62829785  0.13159699  1
  O  O294  1  0.38735255  0.62941576  0.63397817  1
  O  O295  1  0.87864822  0.12188469  0.12268148  1
  O  O296  1  0.88159632  0.13685605  0.62045656  1
  O  O297  1  0.87511769  0.62222401  0.13967812  1
  O  O298  1  0.87131763  0.62409464  0.64000193  1
  O  O299  1  0.26209927  0.26644789  0.12601492  1
  O  O300  1  0.24939401  0.24457528  0.60731912  1
  O  O301  1  0.25545565  0.75655455  0.12056129  1
  O  O302  1  0.25968908  0.75946882  0.61870783  1
  O  O303  1  0.74073203  0.25799456  0.11574586  1
  O  O304  1  0.75815264  0.25357958  0.61783414  1
  O  O305  1  0.74357806  0.74573345  0.11210007  1
  O  O306  1  0.74728260  0.75450060  0.61635864  1
  O  O307  1  0.24897963  0.24310279  0.38933237  1
  O  O308  1  0.25679591  0.24912592  0.86585634  1
  O  O309  1  0.23892902  0.75826121  0.38689790  1
  O  O310  1  0.24124795  0.74767824  0.88302376  1
  O  O311  1  0.74634331  0.24369725  0.37740094  1
  O  O312  1  0.73891015  0.25677922  0.88286777  1
  O  O313  1  0.73396685  0.75350099  0.37897709  1
  O  O314  1  0.74332912  0.74461571  0.88234559  1
  O  O315  1  0.00574465  0.12744479  0.01671177  1
  O  O316  1  0.00801919  0.12271403  0.50545848  1
  O  O317  1  0.00754042  0.62005503  0.00239199  1
  O  O318  1  -0.00124618  0.62403432  0.49665991  1
  O  O319  1  0.51027628  0.11756687  -0.00151106  1
  O  O320  1  0.50862247  0.11739435  0.49144716  1
  O  O321  1  0.50735225  0.61944285  0.00726943  1
  O  O322  1  0.50568188  0.62554206  0.51391474  1
  O  O323  1  0.50158795  0.36943680  0.49275328  1
  O  O324  1  0.51068767  0.38110760  0.98551353  1
  O  O325  1  0.49548835  0.88144712  0.49306430  1
  O  O326  1  0.49397910  0.87843350  0.99529010  1
  O  O327  1  0.98797837  0.38208791  0.49792388  1
  O  O328  1  0.99674213  0.38245973  0.99520951  1
  O  O329  1  0.98901144  0.88662365  0.49167246  1
  O  O330  1  0.98743730  0.87244874  1.00199863  1
  O  O331  1  0.48553742  0.48835968  0.37198119  1
  O  O332  1  0.49456215  0.49280002  0.87787053  1
  O  O333  1  0.50738484  0.99036048  0.38469025  1
  O  O334  1  0.49164152  0.99311661  0.88053266  1
  O  O335  1  0.98925042  0.50028843  0.38315403  1
  O  O336  1  0.99423160  0.49370657  0.88421868  1
  O  O337  1  0.99061577  1.00479963  0.37722357  1
  O  O338  1  0.99964870  0.99504277  0.88143492  1
  O  O339  1  0.00869358  0.01504937  0.12333360  1
  O  O340  1  -0.00826624  0.01198526  0.61352196  1
  O  O341  1  -0.00564553  0.50140739  0.11253460  1
  O  O342  1  -0.00753731  0.50468783  0.60787675  1
  O  O343  1  0.51044749  0.00168735  0.11731155  1
  O  O344  1  0.51420261  -0.00231159  0.61496878  1
  O  O345  1  0.50355852  0.50094755  0.12047892  1
  O  O346  1  0.49885126  0.51090474  0.63016502  1
  O  O347  1  0.25260369  0.38378453  0.24509673  1
  O  O348  1  0.23907149  0.39686899  0.76503203  1
  O  O349  1  0.24389937  0.87529907  0.24163875  1
  O  O350  1  0.24406982  0.87467512  0.74171671  1
  O  O351  1  0.74330316  0.37887473  0.24441067  1
  O  O352  1  0.74791098  0.38118180  0.74799647  1
  O  O353  1  0.73546659  0.88374014  0.25674245  1
  O  O354  1  0.74839840  0.88582263  0.74733623  1
  O  O355  1  0.26424117  0.13036189  0.24765446  1
  O  O356  1  0.26006484  0.12495797  0.76080745  1
  O  O357  1  0.26104277  0.61640904  0.24342869  1
  O  O358  1  0.26295060  0.62241925  0.75305681  1
  O  O359  1  0.74096098  0.11571854  0.26100215  1
  O  O360  1  0.75174820  0.10822535  0.74187495  1
  O  O361  1  0.75315757  0.61511263  0.24886539  1
  O  O362  1  0.75659013  0.61760681  0.75531984  1
  O  O363  1  0.37733904  0.12979434  0.35584522  1
  O  O364  1  0.36577650  0.11622940  0.87109316  1
  O  O365  1  0.38269011  0.61175453  0.36655243  1
  O  O366  1  0.38200047  0.61920398  0.86294078  1
  O  O367  1  0.86414393  0.11371138  0.37997818  1
  O  O368  1  0.87303267  0.11664511  0.87657795  1
  O  O369  1  0.87232932  0.61287427  0.36474191  1
  O  O370  1  0.87094574  0.61498679  0.87016756  1
  O  O371  1  0.13831609  0.37458483  0.12543235  1
  O  O372  1  0.11111169  0.38786076  0.63208373  1
  O  O373  1  0.13081516  0.88203922  0.13424172  1
  O  O374  1  0.13839021  0.87204967  0.63546170  1
  O  O375  1  0.63048827  0.38004442  0.13209336  1
  O  O376  1  0.63458338  0.36909273  0.63973605  1
  O  O377  1  0.61850741  0.88253190  0.13638231  1
  O  O378  1  0.62662267  0.88414830  0.62535755  1
  O  O379  1  0.10358043  0.23929761  0.24982312  1
  O  O380  1  0.11084343  0.24765019  0.74523217  1
  O  O381  1  0.12076978  0.75754775  0.25415874  1
  O  O382  1  0.12303139  0.75667527  0.75911196  1
  O  O383  1  0.61577147  0.25288202  0.25491868  1
  O  O384  1  0.62443141  0.25244895  0.75686457  1
  O  O385  1  0.61880730  0.75609527  0.25634367  1
  O  O386  1  0.61923307  0.74695109  0.75795879  1
  O  O387  1  0.38061611  0.24576279  0.24401560  1
  O  O388  1  0.39502899  0.23187707  0.77004872  1
  O  O389  1  0.37768287  0.74104429  0.24837530  1
  O  O390  1  0.38281205  0.74214167  0.74725104  1
  O  O391  1  0.88928174  0.24326104  0.25312488  1
  O  O392  1  0.88196056  0.24754056  0.74025513  1
  O  O393  1  0.88101850  0.74276785  0.26081715  1
  O  O394  1  0.87709115  0.73663089  0.75514159  1
  O  O395  1  0.36871915  0.50479075  0.48539193  1
  O  O396  1  0.38577695  0.50793769  0.98928558  1
  O  O397  1  0.38885135  0.99669081  0.50609878  1
  O  O398  1  0.37985921  0.99551979  0.99471299  1
  O  O399  1  0.87537906  0.49453689  0.49190161  1
  O  O400  1  0.88113892  0.50091367  0.99203178  1
  O  O401  1  0.88229571  0.99636256  0.49090938  1
  O  O402  1  0.87346571  0.98423133  1.00263303  1
  O  O403  1  0.12473829  0.00138824  0.01205645  1
  O  O404  1  0.10860509  0.00351477  0.49396299  1
  O  O405  1  0.11623644  0.51534836  -0.00377556  1
  O  O406  1  0.11362303  0.50619053  0.49773598  1
  O  O407  1  0.62473176  0.00319245  0.00563525  1
  O  O408  1  0.61911808  0.00632331  0.50402531  1
  O  O409  1  0.62001069  0.50606799  0.00397690  1
  O  O410  1  0.62347814  0.50978292  0.49447921  1
  O  O411  1  0.37275994  0.36408591  0.12506182  1
  O  O412  1  0.36815451  0.35233368  0.66971684  1
  O  O413  1  0.37138675  0.86871076  0.12176625  1
  O  O414  1  0.37253621  0.86915998  0.61858460  1
  O  O415  1  0.85763544  0.38032523  0.12196753  1
  O  O416  1  0.87246888  0.36414705  0.61745223  1
  O  O417  1  0.87540841  0.87447365  0.11356820  1
  O  O418  1  0.87650241  0.87965138  0.60530785  1
  O  O419  1  0.12509090  0.13042787  0.38504948  1
  O  O420  1  0.14540467  0.12427624  0.87269671  1
  O  O421  1  0.12518808  0.63923537  0.36908626  1
  O  O422  1  0.12580666  0.63403478  0.88735271  1
  O  O423  1  0.63054346  0.13049975  0.38241393  1
  O  O424  1  0.62342430  0.13266431  0.88343914  1
  O  O425  1  0.61366469  0.63058653  0.38961736  1
  O  O426  1  0.63116435  0.63007072  0.88163254  1
