# generated using pymatgen
data_V85Zn86O256
_symmetry_space_group_name_H-M   'P 1'
_cell_length_a   16.94760751
_cell_length_b   16.96497783
_cell_length_c   16.95623730
_cell_angle_alpha   90.00662748
_cell_angle_beta   90.08211458
_cell_angle_gamma   90.08069772
_symmetry_Int_Tables_number   1
_chemical_formula_structural   V85Zn86O256
_chemical_formula_sum   'V85 Zn86 O256'
_cell_volume   4875.17601495
_cell_formula_units_Z   1
loop_
 _symmetry_equiv_pos_site_id
 _symmetry_equiv_pos_as_xyz
  1  'x, y, z'
loop_
 _atom_site_type_symbol
 _atom_site_label
 _atom_site_symmetry_multiplicity
 _atom_site_fract_x
 _atom_site_fract_y
 _atom_site_fract_z
 _atom_site_occupancy
  V  V0  1  0.13086579  0.87757209  0.74380456  1
  V  V1  1  0.25355098  0.75308374  0.51505490  1
  V  V2  1  0.24369803  0.50155825  0.24789197  1
  V  V3  1  0.12563236  0.74859663  0.87618639  1
  V  V4  1  0.62878222  0.49881068  0.13113522  1
  V  V5  1  0.24617010  0.12418052  0.87428174  1
  V  V6  1  0.74986176  0.13172022  0.87819871  1
  V  V7  1  0.25161944  0.62642657  0.37680454  1
  V  V8  1  0.75168114  0.12657196  0.37520722  1
  V  V9  1  0.00106642  0.87647851  0.87299644  1
  V  V10  1  0.12670209  0.75078202  0.37413037  1
  V  V11  1  0.37410553  0.87222980  0.51123824  1
  V  V12  1  0.62677464  0.50106811  0.62936680  1
  V  V13  1  0.37553926  0.87727193  -0.00061604  1
  V  V14  1  0.87309162  0.48944250  0.37407245  1
  V  V15  1  0.11213134  0.13207228  0.49811894  1
  V  V16  1  0.76462396  0.25312169  0.50341690  1
  V  V17  1  0.25202379  0.00356160  0.73713781  1
  V  V18  1  0.76425735  0.37518147  0.62310953  1
  V  V19  1  0.50089243  0.87892376  0.38059929  1
  V  V20  1  0.11431848  0.62113747  0.01225491  1
  V  V21  1  0.24846078  0.74731805  0.00182150  1
  V  V22  1  0.61299082  0.00606961  0.62074794  1
  V  V23  1  0.87373072  -0.00262310  0.87188799  1
  V  V24  1  -0.00479825  0.49354790  0.49877526  1
  V  V25  1  0.11200116  -0.00236427  0.61292070  1
  V  V26  1  0.87190614  0.25099602  0.10918570  1
  V  V27  1  0.75114566  0.87588805  0.12364443  1
  V  V28  1  0.11894780  0.25489946  0.87587744  1
  V  V29  1  0.61567057  0.12369214  0.50156891  1
  V  V30  1  0.61561354  0.87484810  0.74856825  1
  V  V31  1  -0.00031666  0.74982148  0.74915134  1
  V  V32  1  0.12696534  0.49901992  0.62778914  1
  V  V33  1  0.37581449  0.64061608  0.74901335  1
  V  V34  1  0.37334341  0.49739168  0.37693740  1
  V  V35  1  0.49478646  0.50497335  0.50419345  1
  V  V36  1  0.25662760  0.49943304  0.75354547  1
  V  V37  1  0.88302803  0.12889949  0.73615633  1
  V  V38  1  -0.00331436  0.62544432  0.62456920  1
  V  V39  1  0.63610510  0.75455925  0.37960374  1
  V  V40  1  -0.00040966  0.74523974  0.24770230  1
  V  V41  1  0.37678501  -0.00085506  0.38406416  1
  V  V42  1  0.24724060  0.36658524  0.62314463  1
  V  V43  1  0.49787374  0.37638298  0.37449718  1
  V  V44  1  0.49899083  0.62715178  0.12504944  1
  V  V45  1  0.24820577  0.87609478  0.12740588  1
  V  V46  1  0.62428190  0.62649620  -0.00099017  1
  V  V47  1  0.87793218  -0.00177186  0.38380057  1
  V  V48  1  0.00029520  0.87582837  0.38280201  1
  V  V49  1  0.37672092  0.00564735  0.87359811  1
  V  V50  1  0.24359627  0.37910519  0.12454946  1
  V  V51  1  0.62804576  0.25173609  0.37283133  1
  V  V52  1  0.88323870  0.48516138  0.87833470  1
  V  V53  1  0.49582815  0.36954812  0.86935895  1
  V  V54  1  0.87684845  0.74467823  0.12357901  1
  V  V55  1  0.37453351  0.25290380  0.12620178  1
  V  V56  1  0.74843486  0.00067652  0.74427796  1
  V  V57  1  0.87458121  0.61496593  0.24443376  1
  V  V58  1  0.61648473  0.75064490  0.87032422  1
  V  V59  1  0.24814086  0.00004370  0.25278416  1
  V  V60  1  0.62195146  0.36465068  0.74874152  1
  V  V61  1  0.87559927  0.87538422  -0.00219928  1
  V  V62  1  0.25330996  0.61889288  0.87818348  1
  V  V63  1  0.50195543  0.12328464  0.12267717  1
  V  V64  1  0.37355403  0.37917654  -0.00653852  1
  V  V65  1  0.37424402  0.12514755  0.25190237  1
  V  V66  1  0.49462650  0.50178147  -0.00784000  1
  V  V67  1  0.12631651  0.62494758  0.49913970  1
  V  V68  1  0.50232607  0.25414605  0.24619697  1
  V  V69  1  0.63197150  0.62864750  0.50180263  1
  V  V70  1  0.38139865  0.14078115  0.73761149  1
  V  V71  1  0.37554344  0.75094876  0.12801820  1
  V  V72  1  0.24621059  0.24306346  0.00188556  1
  V  V73  1  0.00949852  0.00289075  -0.00098418  1
  V  V74  1  0.42319545  0.32073564  0.55950966  1
  V  V75  1  0.24564882  0.13330738  0.37855529  1
  V  V76  1  0.00761679  0.12574999  0.12205081  1
  V  V77  1  0.50175946  0.75069644  0.25379464  1
  V  V78  1  0.75166866  0.00022318  0.24911939  1
  V  V79  1  -0.00173959  0.48711117  0.01230276  1
  V  V80  1  0.00081516  0.24757439  0.25556143  1
  V  V81  1  0.75227585  0.62260064  0.87401749  1
  V  V82  1  0.49706319  0.64082049  0.62997007  1
  V  V83  1  0.12546057  0.37027688  0.25964843  1
  V  V84  1  0.75214418  0.61913467  0.37049680  1
  Zn  Zn85  1  0.49512277  0.87214804  0.87180676  1
  Zn  Zn86  1  0.63708202  0.12748930  0.00593253  1
  Zn  Zn87  1  0.50383844  -0.00090010  0.00038795  1
  Zn  Zn88  1  0.37444082  0.62426353  0.25110063  1
  Zn  Zn89  1  0.87685380  0.12502035  0.24658739  1
  Zn  Zn90  1  0.75086452  0.75322429  -0.00628699  1
  Zn  Zn91  1  0.86704920  0.74869469  0.61567778  1
  Zn  Zn92  1  0.62605662  0.00016457  0.12257630  1
  Zn  Zn93  1  0.63368711  0.38361897  0.25322597  1
  Zn  Zn94  1  0.86335626  0.86132501  0.49716077  1
  Zn  Zn95  1  0.12050936  0.87615292  0.24845286  1
  Zn  Zn96  1  0.24719886  0.25462313  0.49801236  1
  Zn  Zn97  1  0.12923139  0.00458272  0.12017953  1
  Zn  Zn98  1  0.62628682  0.87545757  0.24878253  1
  Zn  Zn99  1  0.11959608  0.38048322  0.76125092  1
  Zn  Zn100  1  0.87708842  0.62263342  0.75452664  1
  Zn  Zn101  1  0.76005556  0.37563901  0.11871436  1
  Zn  Zn102  1  0.75310648  0.49586704  0.75325051  1
  Zn  Zn103  1  0.74753220  0.86961184  0.61438256  1
  Zn  Zn104  1  0.00024201  0.36816669  0.37966494  1
  Zn  Zn105  1  -0.01264891  0.26452593  0.74066051  1
  Zn  Zn106  1  0.62174381  0.24689652  0.87358710  1
  Zn  Zn107  1  0.18541573  0.18804467  0.18872551  1
  Zn  Zn108  1  0.14330943  0.20303481  0.67032969  1
  Zn  Zn109  1  0.18732376  0.68732722  0.18934573  1
  Zn  Zn110  1  0.18515334  0.68465088  0.69058895  1
  Zn  Zn111  1  0.68956309  0.19002238  0.18770752  1
  Zn  Zn112  1  0.69227927  0.18582144  0.68629516  1
  Zn  Zn113  1  0.69038663  0.68763249  0.18891788  1
  Zn  Zn114  1  0.68343238  0.68588927  0.69139750  1
  Zn  Zn115  1  0.31416108  0.31557517  0.31368575  1
  Zn  Zn116  1  0.30737909  0.31219293  0.81248206  1
  Zn  Zn117  1  0.31360910  0.81337680  0.31640596  1
  Zn  Zn118  1  0.30907256  0.81510374  0.81386228  1
  Zn  Zn119  1  0.81148948  0.31231635  0.29842696  1
  Zn  Zn120  1  0.81155784  0.31127530  0.80960141  1
  Zn  Zn121  1  0.81488639  0.81124530  0.31156442  1
  Zn  Zn122  1  0.79161983  0.79530220  0.77930415  1
  Zn  Zn123  1  0.18801126  0.43651744  0.44157329  1
  Zn  Zn124  1  0.18364088  0.43992468  0.94251111  1
  Zn  Zn125  1  0.18987677  0.93532431  0.43801121  1
  Zn  Zn126  1  0.19071126  0.93690290  0.93365942  1
  Zn  Zn127  1  0.68801654  0.43801181  0.43930951  1
  Zn  Zn128  1  0.69023641  0.43633199  0.93876068  1
  Zn  Zn129  1  0.69010842  0.93891726  0.43983380  1
  Zn  Zn130  1  0.68540674  0.94170225  0.93686912  1
  Zn  Zn131  1  0.31557929  0.06373808  0.06327171  1
  Zn  Zn132  1  0.30965312  0.06573609  0.56268638  1
  Zn  Zn133  1  0.31176474  0.56226617  0.06425701  1
  Zn  Zn134  1  0.31382546  0.56515714  0.56685746  1
  Zn  Zn135  1  0.82045583  0.06378291  0.06105874  1
  Zn  Zn136  1  0.80848097  0.06011656  0.56134964  1
  Zn  Zn137  1  0.81311223  0.56112108  0.05704242  1
  Zn  Zn138  1  0.81395890  0.56286806  0.56093985  1
  Zn  Zn139  1  0.43726129  0.43917244  0.18487246  1
  Zn  Zn140  1  0.43757263  0.44977861  0.69432996  1
  Zn  Zn141  1  0.43637576  0.93813441  0.19201535  1
  Zn  Zn142  1  0.43772109  0.94444985  0.68776283  1
  Zn  Zn143  1  0.93867794  0.43113748  0.18495389  1
  Zn  Zn144  1  0.94154144  0.44023716  0.69460487  1
  Zn  Zn145  1  0.93729721  0.93665508  0.18987981  1
  Zn  Zn146  1  0.93487741  0.93510222  0.68236478  1
  Zn  Zn147  1  0.06312337  0.06175027  0.31327833  1
  Zn  Zn148  1  0.06522223  0.06470567  0.81081643  1
  Zn  Zn149  1  0.06071152  0.56136847  0.31065784  1
  Zn  Zn150  1  0.06350120  0.56031605  0.81713328  1
  Zn  Zn151  1  0.56504265  0.06202692  0.30998110  1
  Zn  Zn152  1  0.55905067  0.06385428  0.80956981  1
  Zn  Zn153  1  0.56102624  0.56657446  0.31485937  1
  Zn  Zn154  1  0.55948223  0.56113709  0.81130955  1
  Zn  Zn155  1  0.43790267  0.18501742  0.43247819  1
  Zn  Zn156  1  0.44022616  0.19129615  0.93896309  1
  Zn  Zn157  1  0.43862487  0.68920125  0.44015697  1
  Zn  Zn158  1  0.43409381  0.68795799  0.93654173  1
  Zn  Zn159  1  0.93689579  0.18531454  0.43542421  1
  Zn  Zn160  1  0.93896045  0.18069202  0.93349032  1
  Zn  Zn161  1  0.93761347  0.68336639  0.43412220  1
  Zn  Zn162  1  0.93690380  0.68691500  0.93672937  1
  Zn  Zn163  1  0.06597907  0.30871855  0.06590158  1
  Zn  Zn164  1  0.05537278  0.31247344  0.56539515  1
  Zn  Zn165  1  0.06126257  0.81178557  0.06273745  1
  Zn  Zn166  1  0.06202068  0.81208246  0.56216630  1
  Zn  Zn167  1  0.60106083  0.32274954  0.04226183  1
  Zn  Zn168  1  0.58738192  0.31181153  0.56027437  1
  Zn  Zn169  1  0.56381900  0.81310775  0.06114994  1
  Zn  Zn170  1  0.56685127  0.81797260  0.55945042  1
  O  O171  1  0.11381062  0.12281933  0.12573630  1
  O  O172  1  0.13434117  0.10782145  0.60563544  1
  O  O173  1  0.12956895  0.62731620  0.11024068  1
  O  O174  1  0.11734944  0.61610453  0.62123449  1
  O  O175  1  0.61489550  0.12444907  0.12614396  1
  O  O176  1  0.62960560  0.11540639  0.61718103  1
  O  O177  1  0.61943912  0.62174977  0.11829224  1
  O  O178  1  0.62146254  0.61943329  0.61991118  1
  O  O179  1  0.38009704  0.38929897  0.37492267  1
  O  O180  1  0.37569943  0.37544471  0.88646294  1
  O  O181  1  0.38279683  0.88213990  0.38026620  1
  O  O182  1  0.37372687  0.88251758  0.88376217  1
  O  O183  1  0.87539489  0.38727378  0.36595081  1
  O  O184  1  0.86925292  0.38694543  0.87588111  1
  O  O185  1  0.88236566  0.88091279  0.37401570  1
  O  O186  1  0.88111471  0.88706222  0.87507458  1
  O  O187  1  0.25723269  0.00517309  0.36809502  1
  O  O188  1  0.25750803  0.00641229  0.86956360  1
  O  O189  1  0.25737283  0.50507994  0.37175265  1
  O  O190  1  0.24257060  0.50877821  0.86849639  1
  O  O191  1  0.75479481  0.00762522  0.36769649  1
  O  O192  1  0.75839265  0.00599880  0.86703571  1
  O  O193  1  0.75665051  0.51018080  0.38004885  1
  O  O194  1  0.76014808  0.50526559  0.87953181  1
  O  O195  1  0.25575587  0.49125557  0.13603331  1
  O  O196  1  0.24316889  0.49752430  0.63221080  1
  O  O197  1  0.25107395  0.99324009  0.13242676  1
  O  O198  1  0.24373894  0.99911991  0.63517498  1
  O  O199  1  0.73103062  0.50275460  0.11693520  1
  O  O200  1  0.74193744  0.49511184  0.62405647  1
  O  O201  1  0.75381641  0.99366087  0.13126554  1
  O  O202  1  0.74111565  0.99891229  0.63312867  1
  O  O203  1  0.01036162  0.36690623  0.25024874  1
  O  O204  1  0.00683662  0.37504172  0.75407113  1
  O  O205  1  -0.00087124  0.86139372  0.25601123  1
  O  O206  1  0.01043186  0.86963737  0.75379410  1
  O  O207  1  0.49935305  0.36834024  0.25672073  1
  O  O208  1  0.50769145  0.38736195  0.75846219  1
  O  O209  1  0.50081219  0.86480953  0.25893244  1
  O  O210  1  0.51113187  0.88380391  0.75325555  1
  O  O211  1  0.49440010  0.13191911  0.24487601  1
  O  O212  1  0.48025928  0.12506420  0.75598716  1
  O  O213  1  0.49768835  0.63758896  0.24704220  1
  O  O214  1  0.48875579  0.62096683  0.74263533  1
  O  O215  1  1.00174641  0.13102297  0.24278280  1
  O  O216  1  0.98344421  0.12123113  0.75420728  1
  O  O217  1  0.99179928  0.63681283  0.25376696  1
  O  O218  1  1.00535324  0.63195906  0.74232952  1
  O  O219  1  0.36647301  0.25997994  0.00624943  1
  O  O220  1  0.37233053  0.25377172  0.49999161  1
  O  O221  1  0.36775225  0.75696017  0.00671519  1
  O  O222  1  0.36552670  0.75863877  0.49506202  1
  O  O223  1  0.88377180  0.24414284  0.01072178  1
  O  O224  1  0.86365480  0.24852341  0.49697918  1
  O  O225  1  0.87358744  0.75605818  0.00654471  1
  O  O226  1  0.88129261  0.74625981  0.50335661  1
  O  O227  1  0.12559379  0.23503349  0.49808861  1
  O  O228  1  0.13826394  0.25144297  0.99305742  1
  O  O229  1  0.13204292  0.74477940  0.49363420  1
  O  O230  1  0.12905249  0.74071718  0.99765491  1
  O  O231  1  0.63630977  0.24105888  0.48913390  1
  O  O232  1  0.59268100  0.22944183  0.98333308  1
  O  O233  1  0.61993919  0.74038561  0.48983275  1
  O  O234  1  0.62676852  0.73911313  0.99559322  1
  O  O235  1  0.49395857  0.24385130  0.13794505  1
  O  O236  1  0.48982807  0.26933604  0.61071716  1
  O  O237  1  0.49707848  0.74744224  0.13368254  1
  O  O238  1  0.50792857  0.73894728  0.62113106  1
  O  O239  1  0.99643407  0.24180599  0.13055806  1
  O  O240  1  1.03673004  0.23775120  0.64219056  1
  O  O241  1  0.98570707  0.75580018  0.13168141  1
  O  O242  1  1.00434292  0.74005067  0.63340274  1
  O  O243  1  -0.00491258  0.25079865  0.36085576  1
  O  O244  1  0.01790620  0.23949026  0.87414623  1
  O  O245  1  0.00767375  0.75409417  0.36651899  1
  O  O246  1  0.00784625  0.75478913  0.86970111  1
  O  O247  1  0.50375296  0.25558340  0.36490050  1
  O  O248  1  0.49096489  0.26730175  0.86886657  1
  O  O249  1  0.50886794  0.75482758  0.36896916  1
  O  O250  1  0.51200040  0.75125379  0.88136776  1
  O  O251  1  0.24469427  0.12900500  0.49103439  1
  O  O252  1  0.25670436  0.13449002  0.99376601  1
  O  O253  1  0.24654433  0.63127294  0.49527921  1
  O  O254  1  0.24220612  0.62611587  0.99491987  1
  O  O255  1  0.74599410  0.13494883  0.49277781  1
  O  O256  1  0.75421780  0.11846328  0.98230734  1
  O  O257  1  0.73749029  0.62147822  0.49401317  1
  O  O258  1  0.74037006  0.62706368  0.98987992  1
  O  O259  1  0.25569501  0.37223289  0.00814316  1
  O  O260  1  0.25019927  0.37331716  0.51218658  1
  O  O261  1  0.25833110  0.87047143  0.00703136  1
  O  O262  1  0.26100290  0.86375343  0.49386017  1
  O  O263  1  0.70894170  0.36272109  0.01802412  1
  O  O264  1  0.74412929  0.36194304  0.50707223  1
  O  O265  1  0.75707288  0.87513702  0.00598885  1
  O  O266  1  0.74683649  0.86672130  0.49964510  1
  O  O267  1  0.13754521  0.49415662  0.25388530  1
  O  O268  1  0.13525152  0.50360344  0.74338378  1
  O  O269  1  0.13822595  0.99746798  0.24765732  1
  O  O270  1  0.13113223  0.99555022  0.74108163  1
  O  O271  1  0.61827626  0.50728639  0.23505961  1
  O  O272  1  0.62620374  0.49579784  0.73845443  1
  O  O273  1  0.63941045  0.99651309  0.24784145  1
  O  O274  1  0.62904517  1.00029604  0.73881688  1
  O  O275  1  0.36429850  0.00356894  0.25908564  1
  O  O276  1  0.36645585  0.00032950  0.75820870  1
  O  O277  1  0.36499785  0.50110811  0.25866568  1
  O  O278  1  0.36022257  0.51359382  0.74911441  1
  O  O279  1  0.86403943  0.00112375  0.25649492  1
  O  O280  1  0.86774651  0.00411698  0.75484676  1
  O  O281  1  0.88378570  0.50982346  0.25466277  1
  O  O282  1  0.87442446  0.50430645  0.76675515  1
  O  O283  1  0.12551724  0.37818295  0.36323890  1
  O  O284  1  0.13174396  0.35921868  0.88049607  1
  O  O285  1  0.11916762  0.86849956  0.37081170  1
  O  O286  1  0.12030329  0.86899894  0.86770032  1
  O  O287  1  0.61669017  0.37121184  0.37428321  1
  O  O288  1  0.61476681  0.37523093  0.86404734  1
  O  O289  1  0.61803307  0.86900081  0.37346721  1
  O  O290  1  0.62131886  0.86757187  0.86988149  1
  O  O291  1  0.37749600  0.13251801  0.13602168  1
  O  O292  1  0.37172760  0.12229156  0.63833579  1
  O  O293  1  0.38057343  0.63422294  0.12711525  1
  O  O294  1  0.38482320  0.62530993  0.63497852  1
  O  O295  1  0.88959353  0.13017901  0.12598716  1
  O  O296  1  0.87165824  0.11856323  0.63791964  1
  O  O297  1  0.86597238  0.63294917  0.13171926  1
  O  O298  1  0.88735747  0.62294809  0.63086442  1
  O  O299  1  0.25465518  0.25574537  0.11999799  1
  O  O300  1  0.23790626  0.26481407  0.62666353  1
  O  O301  1  0.25529858  0.75747432  0.12247519  1
  O  O302  1  0.24386825  0.74617481  0.61390083  1
  O  O303  1  0.76998005  0.23778965  0.12263177  1
  O  O304  1  0.74589481  0.25838416  0.61140147  1
  O  O305  1  0.76046355  0.75780299  0.12381618  1
  O  O306  1  0.76170115  0.76101736  0.66484833  1
  O  O307  1  0.25459268  0.23630911  0.37257177  1
  O  O308  1  0.24778630  0.24174269  0.88614114  1
  O  O309  1  0.24334898  0.74295167  0.37704226  1
  O  O310  1  0.24369282  0.74433314  0.88431859  1
  O  O311  1  0.74934346  0.24378837  0.37960993  1
  O  O312  1  0.74881222  0.23432458  0.87086332  1
  O  O313  1  0.73990773  0.73998348  0.36744768  1
  O  O314  1  0.73807661  0.74091974  0.87244837  1
  O  O315  1  -0.00175737  0.11241264  0.00677710  1
  O  O316  1  0.01343880  0.12247523  0.49264822  1
  O  O317  1  0.01206180  0.62396341  -0.00120683  1
  O  O318  1  0.00743715  0.61528566  0.50736085  1
  O  O319  1  0.48132472  0.11909723  0.01959432  1
  O  O320  1  0.51654858  0.12884536  0.49112722  1
  O  O321  1  0.50383911  0.62112628  0.00352449  1
  O  O322  1  0.50943154  0.61976648  0.50595827  1
  O  O323  1  0.49331306  0.38034841  0.49986547  1
  O  O324  1  0.49248220  0.38474453  0.99142746  1
  O  O325  1  0.49293704  0.87011542  0.48623774  1
  O  O326  1  0.48564652  0.87604913  1.00221531  1
  O  O327  1  1.00689594  0.38833567  0.49777264  1
  O  O328  1  1.01026127  0.38872240  1.00505545  1
  O  O329  1  1.00020509  0.87059782  0.48461010  1
  O  O330  1  0.99446623  0.87905260  0.99275666  1
  O  O331  1  0.49482997  0.49740515  0.38356515  1
  O  O332  1  0.50126545  0.49529469  0.88730775  1
  O  O333  1  0.49070889  0.99031202  0.36603937  1
  O  O334  1  0.48650903  0.99933414  0.87835472  1
  O  O335  1  0.99205344  0.49861793  0.38270663  1
  O  O336  1  0.98800520  0.50391087  0.88483859  1
  O  O337  1  0.98923301  0.98829239  0.36354455  1
  O  O338  1  0.99531488  0.99754589  0.88021500  1
  O  O339  1  0.00158235  0.00431288  0.11725960  1
  O  O340  1  0.01444528  -0.00013995  0.62714547  1
  O  O341  1  -0.00673848  0.50176530  0.11132294  1
  O  O342  1  0.00659623  0.50707128  0.61931257  1
  O  O343  1  0.50177041  0.00866372  0.13020443  1
  O  O344  1  0.51430210  0.00318269  0.62380263  1
  O  O345  1  0.50185518  0.51212652  0.11624110  1
  O  O346  1  0.50722546  0.50834156  0.61855106  1
  O  O347  1  0.24513618  0.38087672  0.24512839  1
  O  O348  1  0.24703033  0.38574648  0.74388090  1
  O  O349  1  0.25083511  0.88201232  0.24312737  1
  O  O350  1  0.23680266  0.88467686  0.75668553  1
  O  O351  1  0.74329264  0.36989106  0.23259413  1
  O  O352  1  0.74154316  0.37666706  0.74164658  1
  O  O353  1  0.75108863  0.88147242  0.24179050  1
  O  O354  1  0.73382326  0.89296273  0.75567184  1
  O  O355  1  0.25330912  0.11780688  0.25598266  1
  O  O356  1  0.26097851  0.11445447  0.76023785  1
  O  O357  1  0.25122171  0.61751645  0.25670166  1
  O  O358  1  0.25393420  0.62110564  0.75887628  1
  O  O359  1  0.75155503  0.11829367  0.25860869  1
  O  O360  1  0.75877813  0.11625879  0.75609260  1
  O  O361  1  0.75947871  0.62570395  0.25971812  1
  O  O362  1  0.74809400  0.61727718  0.76431448  1
  O  O363  1  0.36801573  0.11641295  0.37095159  1
  O  O364  1  0.36662835  0.11934481  0.87355954  1
  O  O365  1  0.37199192  0.61455885  0.37463262  1
  O  O366  1  0.36021675  0.62942357  0.87070515  1
  O  O367  1  0.86553366  0.11725607  0.37184817  1
  O  O368  1  0.86625872  0.11407705  0.86815299  1
  O  O369  1  0.86801317  0.61632757  0.36500045  1
  O  O370  1  0.86499294  0.61945053  0.87716790  1
  O  O371  1  0.13951754  0.37136311  0.13478031  1
  O  O372  1  0.13159024  0.39031044  0.62518361  1
  O  O373  1  0.13826501  0.87480762  0.12592331  1
  O  O374  1  0.12255925  0.88561293  0.63112931  1
  O  O375  1  0.60205145  0.39750679  0.13146557  1
  O  O376  1  0.63277110  0.38550582  0.63165798  1
  O  O377  1  0.63967055  0.87401897  0.12518542  1
  O  O378  1  0.62484664  0.88766711  0.63087200  1
  O  O379  1  0.11630596  0.25903282  0.24649835  1
  O  O380  1  0.14010681  0.25438317  0.77330720  1
  O  O381  1  0.11652537  0.75024899  0.25453296  1
  O  O382  1  0.11875606  0.75790303  0.75388492  1
  O  O383  1  0.61639902  0.25069910  0.25578133  1
  O  O384  1  0.62648011  0.26126834  0.74900094  1
  O  O385  1  0.61822837  0.75173474  0.25845524  1
  O  O386  1  0.62303922  0.76142706  0.75878632  1
  O  O387  1  0.38206810  0.24624163  0.24756309  1
  O  O388  1  0.36739036  0.23949381  0.74912759  1
  O  O389  1  0.38345195  0.74989018  0.24627169  1
  O  O390  1  0.36896541  0.74041214  0.75325862  1
  O  O391  1  0.88749011  0.24516527  0.23956861  1
  O  O392  1  0.87440619  0.23406632  0.75184831  1
  O  O393  1  0.88059445  0.73985838  0.24320631  1
  O  O394  1  0.89448773  0.74498717  0.75715490  1
  O  O395  1  0.38735788  0.50740457  0.49517744  1
  O  O396  1  0.38245725  0.49139891  1.00650996  1
  O  O397  1  0.36768507  0.99392629  0.48824759  1
  O  O398  1  0.37263980  0.99124546  0.99250041  1
  O  O399  1  0.88499025  0.50677825  0.48825864  1
  O  O400  1  0.88738787  0.50207427  0.99140140  1
  O  O401  1  0.86925463  0.99777583  0.48561858  1
  O  O402  1  0.88498129  0.99353132  0.99072929  1
  O  O403  1  0.11358024  -0.00887355  -0.00010181  1
  O  O404  1  0.12688319  -0.00049414  0.50927567  1
  O  O405  1  0.11157019  0.51264117  -0.00336555  1
  O  O406  1  0.12053845  0.50760652  0.50764015  1
  O  O407  1  0.62046823  0.00800063  0.00357404  1
  O  O408  1  0.63035914  0.00932173  0.51228834  1
  O  O409  1  0.61404813  0.51366948  0.00702320  1
  O  O410  1  0.61497633  0.50609980  0.50894975  1
  O  O411  1  0.36700948  0.37004407  0.11808795  1
  O  O412  1  0.36834443  0.37955311  0.62576624  1
  O  O413  1  0.36547183  0.87203193  0.12077940  1
  O  O414  1  0.38271416  0.88183319  0.60989177  1
  O  O415  1  0.87755618  0.35678488  0.12176700  1
  O  O416  1  0.86303938  0.38589957  0.62833056  1
  O  O417  1  0.86628282  0.86904270  0.12070218  1
  O  O418  1  0.87020199  0.87113016  0.61907392  1
  O  O419  1  0.13441146  0.11307686  0.38876654  1
  O  O420  1  0.13996085  0.13056506  0.87281121  1
  O  O421  1  0.13034707  0.62995572  0.38027800  1
  O  O422  1  0.13422898  0.63138316  0.88291300  1
  O  O423  1  0.63634168  0.12801393  0.37908579  1
  O  O424  1  0.64277086  0.12113247  0.86725352  1
  O  O425  1  0.63287920  0.62982458  0.38212595  1
  O  O426  1  0.62773138  0.62891630  0.88150267  1
