# generated using pymatgen
data_V85Zn86O256
_symmetry_space_group_name_H-M   'P 1'
_cell_length_a   16.92581003
_cell_length_b   16.93086176
_cell_length_c   16.92731355
_cell_angle_alpha   89.96907023
_cell_angle_beta   90.00351500
_cell_angle_gamma   90.03353514
_symmetry_Int_Tables_number   1
_chemical_formula_structural   V85Zn86O256
_chemical_formula_sum   'V85 Zn86 O256'
_cell_volume   4850.83415013
_cell_formula_units_Z   1
loop_
 _symmetry_equiv_pos_site_id
 _symmetry_equiv_pos_as_xyz
  1  'x, y, z'
loop_
 _atom_site_type_symbol
 _atom_site_label
 _atom_site_symmetry_multiplicity
 _atom_site_fract_x
 _atom_site_fract_y
 _atom_site_fract_z
 _atom_site_occupancy
  V  V0  1  0.62402875  0.50693980  0.62794393  1
  V  V1  1  0.00480783  0.48782632  -0.00766421  1
  V  V2  1  0.62558070  0.13685067  -0.00426635  1
  V  V3  1  0.50135315  0.37468523  0.37501312  1
  V  V4  1  0.49781242  0.87175359  0.37375092  1
  V  V5  1  0.37392364  0.24806855  0.13259242  1
  V  V6  1  0.50241686  0.12209027  0.62241272  1
  V  V7  1  0.00141027  0.87248496  0.37702493  1
  V  V8  1  0.00142087  0.50358377  0.50492193  1
  V  V9  1  0.86871164  0.00490764  0.37944049  1
  V  V10  1  0.00131842  0.37595541  0.37678749  1
  V  V11  1  0.87559894  0.74701569  0.64042182  1
  V  V12  1  0.49614110  -0.00216874  -0.00522055  1
  V  V13  1  0.24989638  0.37901742  0.62996473  1
  V  V14  1  0.62417013  0.50213495  0.12592026  1
  V  V15  1  0.37458367  0.24690153  0.62456454  1
  V  V16  1  0.50041760  0.37154581  0.87462507  1
  V  V17  1  0.74679922  0.00315085  0.25224346  1
  V  V18  1  0.62610208  0.37412255  0.74961094  1
  V  V19  1  0.12530348  0.75100100  0.37750843  1
  V  V20  1  0.24631557  -0.01109359  0.24410490  1
  V  V21  1  0.36757116  0.50287391  0.37533833  1
  V  V22  1  0.25024515  0.24776425  0.00339346  1
  V  V23  1  0.62988066  0.37553400  0.24946749  1
  V  V24  1  0.12294073  0.74225366  0.86637408  1
  V  V25  1  0.75161177  0.24143092  0.49796831  1
  V  V26  1  0.49259713  0.73947837  0.74301518  1
  V  V27  1  0.49939640  0.24730836  0.25120701  1
  V  V28  1  0.24528427  0.74063522  0.00166268  1
  V  V29  1  0.62829314  -0.00358538  0.63604340  1
  V  V30  1  0.12775573  0.37852895  0.75461458  1
  V  V31  1  0.49726957  0.12213957  0.12846054  1
  V  V32  1  -0.00179400  0.12527884  0.12585711  1
  V  V33  1  0.00039861  0.87451608  0.86392784  1
  V  V34  1  0.37535476  0.75739648  0.12395063  1
  V  V35  1  0.50159213  0.50303342  0.50315477  1
  V  V36  1  0.82992514  0.44147605  0.93234269  1
  V  V37  1  0.87222660  0.87222098  0.00020500  1
  V  V38  1  -0.00265581  0.00119808  -0.00211038  1
  V  V39  1  0.12370642  0.24333916  0.38364035  1
  V  V40  1  0.86075739  -0.00052046  0.87267754  1
  V  V41  1  0.12357450  0.25187935  0.87852302  1
  V  V42  1  -0.00129425  0.63090282  0.63745722  1
  V  V43  1  0.05336957  0.80801582  0.19979345  1
  V  V44  1  0.49678215  -0.00649542  0.50086120  1
  V  V45  1  0.12605519  0.50398442  0.12318933  1
  V  V46  1  0.76587196  0.50259589  0.74827659  1
  V  V47  1  0.74543352  0.13968037  0.87495079  1
  V  V48  1  0.37129184  0.62918278  0.25128349  1
  V  V49  1  0.75018957  0.87552346  0.12499772  1
  V  V50  1  -0.00104223  0.24958899  0.25102213  1
  V  V51  1  0.12685564  0.37563243  0.25121476  1
  V  V52  1  -0.00060853  0.62426376  0.12150676  1
  V  V53  1  0.37524769  0.00426659  0.37052850  1
  V  V54  1  0.63127574  0.63113098  0.50029074  1
  V  V55  1  0.50631626  0.24923198  0.75094160  1
  V  V56  1  0.00735226  0.12573380  0.62334742  1
  V  V57  1  0.76270878  0.62748563  0.87261529  1
  V  V58  1  0.87610340  0.50245919  0.37034415  1
  V  V59  1  0.75119686  0.37487968  0.62350670  1
  V  V60  1  0.87102642  0.12039536  0.74895538  1
  V  V61  1  0.86573403  0.86464511  0.50003329  1
  V  V62  1  0.37450828  0.37676572  0.00202825  1
  V  V63  1  0.62088788  0.62900522  -0.00202937  1
  V  V64  1  0.86803406  0.25588270  0.11191130  1
  V  V65  1  0.12726089  0.62870238  0.49887614  1
  V  V66  1  0.37498247  0.11650294  0.75689776  1
  V  V67  1  0.37462566  0.37277955  0.50022607  1
  V  V68  1  0.24936796  0.12308534  0.37267041  1
  V  V69  1  0.62358374  0.75470887  0.86561198  1
  V  V70  1  0.62998742  0.24112251  0.37439770  1
  V  V71  1  0.25726071  0.86299001  0.61380552  1
  V  V72  1  0.74693421  0.87486117  0.63971465  1
  V  V73  1  0.12624244  0.12106307  0.00243934  1
  V  V74  1  0.87909431  0.63959295  0.24562715  1
  V  V75  1  0.49646917  0.87762767  0.86541198  1
  V  V76  1  0.86729357  0.12952018  0.25383201  1
  V  V77  1  0.36814976  0.50129954  0.86544837  1
  V  V78  1  0.13059334  -0.00110714  0.62660137  1
  V  V79  1  0.75027809  0.75089719  0.00423924  1
  V  V80  1  0.75304690  0.63396637  0.37694998  1
  V  V81  1  0.00398560  0.00308222  0.49987195  1
  V  V82  1  0.00094728  0.25122446  0.75413933  1
  V  V83  1  0.36445426  0.87898264  -0.00538769  1
  V  V84  1  0.87444933  0.37543824  0.50022874  1
  Zn  Zn85  1  0.12908401  0.50687509  0.63530386  1
  Zn  Zn86  1  0.49925553  0.62741667  0.12637930  1
  Zn  Zn87  1  0.49635939  0.50333243  -0.00066846  1
  Zn  Zn88  1  0.62495913  0.87316857  0.24954276  1
  Zn  Zn89  1  0.37825338  0.74450838  0.59852142  1
  Zn  Zn90  1  0.75367651  0.50065417  0.24658094  1
  Zn  Zn91  1  0.24751062  0.50480120  0.25296095  1
  Zn  Zn92  1  0.75163406  0.37500091  0.11069974  1
  Zn  Zn93  1  0.25570823  -0.00907976  0.75497540  1
  Zn  Zn94  1  0.12447566  -0.01103781  0.12979778  1
  Zn  Zn95  1  0.25148706  0.37761073  0.12780388  1
  Zn  Zn96  1  0.24446213  0.24113654  0.50385277  1
  Zn  Zn97  1  0.29070876  0.68830117  0.43678956  1
  Zn  Zn98  1  0.50647997  0.75052968  0.24606612  1
  Zn  Zn99  1  0.12707663  0.87233301  0.74698466  1
  Zn  Zn100  1  0.36486933  0.62051065  0.73477315  1
  Zn  Zn101  1  0.62431349  0.00047959  0.12259790  1
  Zn  Zn102  1  0.62974827  0.11927240  0.49828249  1
  Zn  Zn103  1  0.87619354  0.24778150  0.62381153  1
  Zn  Zn104  1  0.25577577  0.11678807  0.87992989  1
  Zn  Zn105  1  0.63100678  0.75539692  0.37398045  1
  Zn  Zn106  1  0.24286407  0.61817638  0.86878734  1
  Zn  Zn107  1  0.18886245  0.18312696  0.19307355  1
  Zn  Zn108  1  0.18913986  0.18704296  0.68887170  1
  Zn  Zn109  1  0.19303992  0.68403872  0.18429668  1
  Zn  Zn110  1  0.19154106  0.68575952  0.68831753  1
  Zn  Zn111  1  0.68690057  0.18816924  0.18199229  1
  Zn  Zn112  1  0.68873246  0.18429998  0.68575253  1
  Zn  Zn113  1  0.69007577  0.68795848  0.18883377  1
  Zn  Zn114  1  0.69120492  0.68856392  0.68840301  1
  Zn  Zn115  1  0.31001577  0.31226531  0.31448815  1
  Zn  Zn116  1  0.31210552  0.30635156  0.81404578  1
  Zn  Zn117  1  0.31572865  0.81863782  0.31387627  1
  Zn  Zn118  1  0.30948534  0.81266803  0.80986101  1
  Zn  Zn119  1  0.81109616  0.31342125  0.31223721  1
  Zn  Zn120  1  0.81279073  0.30863413  0.80656647  1
  Zn  Zn121  1  0.81360370  0.81590895  0.31265219  1
  Zn  Zn122  1  0.81198910  0.81121370  0.81499339  1
  Zn  Zn123  1  0.18753434  0.43430104  0.44368722  1
  Zn  Zn124  1  0.18739840  0.43485394  0.94090015  1
  Zn  Zn125  1  0.18528027  0.93892413  0.43712915  1
  Zn  Zn126  1  0.18701536  0.93804387  0.93423694  1
  Zn  Zn127  1  0.68971319  0.43882747  0.43632256  1
  Zn  Zn128  1  0.66860369  0.44004778  0.93438457  1
  Zn  Zn129  1  0.68419367  0.93749106  0.44117213  1
  Zn  Zn130  1  0.67981552  0.94021743  0.93585783  1
  Zn  Zn131  1  0.31393368  0.06005649  0.06713789  1
  Zn  Zn132  1  0.31175098  0.05979162  0.55896430  1
  Zn  Zn133  1  0.31297300  0.56451947  0.06343444  1
  Zn  Zn134  1  0.31345257  0.56203387  0.56784692  1
  Zn  Zn135  1  0.80936512  0.06502048  0.06158222  1
  Zn  Zn136  1  0.81437947  0.05847424  0.56629673  1
  Zn  Zn137  1  0.80956737  0.56808246  0.06782962  1
  Zn  Zn138  1  0.81419612  0.56517127  0.56326786  1
  Zn  Zn139  1  0.44000746  0.43940626  0.18919536  1
  Zn  Zn140  1  0.43941201  0.43716176  0.68552217  1
  Zn  Zn141  1  0.43277487  0.93813520  0.18910564  1
  Zn  Zn142  1  0.43641104  0.93053859  0.68284423  1
  Zn  Zn143  1  0.93869195  0.43767422  0.18554681  1
  Zn  Zn144  1  0.94276131  0.43434400  0.68751293  1
  Zn  Zn145  1  0.92799936  0.94375203  0.18471865  1
  Zn  Zn146  1  0.93528973  0.93942594  0.68557912  1
  Zn  Zn147  1  0.06283973  0.06041971  0.31175505  1
  Zn  Zn148  1  0.06320063  0.06154770  0.81311814  1
  Zn  Zn149  1  0.06125892  0.56671235  0.31088541  1
  Zn  Zn150  1  0.05975985  0.56243746  0.81517266  1
  Zn  Zn151  1  0.56128612  0.06117325  0.31193788  1
  Zn  Zn152  1  0.56179056  0.06187123  0.81417620  1
  Zn  Zn153  1  0.55990805  0.56456218  0.31315158  1
  Zn  Zn154  1  0.56308602  0.56197409  0.81400946  1
  Zn  Zn155  1  0.43772358  0.18208734  0.43789626  1
  Zn  Zn156  1  0.44009925  0.18989754  0.93993021  1
  Zn  Zn157  1  0.45224951  0.68635414  0.43609167  1
  Zn  Zn158  1  0.43568889  0.68979726  0.93478331  1
  Zn  Zn159  1  0.93733092  0.18626121  0.43841946  1
  Zn  Zn160  1  0.93738184  0.18795137  0.93440626  1
  Zn  Zn161  1  0.94312518  0.68903470  0.43796488  1
  Zn  Zn162  1  0.94109219  0.68661918  0.93930188  1
  Zn  Zn163  1  0.06085378  0.31338752  0.06481561  1
  Zn  Zn164  1  0.06250326  0.31420108  0.56651728  1
  Zn  Zn165  1  0.05798921  0.80806846  0.03885211  1
  Zn  Zn166  1  0.06178093  0.81369087  0.56321656  1
  Zn  Zn167  1  0.56023279  0.31375837  0.06449610  1
  Zn  Zn168  1  0.56479956  0.31320985  0.56236991  1
  Zn  Zn169  1  0.56087897  0.81549759  0.06035291  1
  Zn  Zn170  1  0.56395602  0.81403029  0.56182192  1
  O  O171  1  0.11452761  0.12864468  0.11656427  1
  O  O172  1  0.11511395  0.11891725  0.62863000  1
  O  O173  1  0.11528802  0.61263495  0.13260786  1
  O  O174  1  0.11589492  0.62571102  0.61776202  1
  O  O175  1  0.61706917  0.12417834  0.11295392  1
  O  O176  1  0.61999568  0.11530254  0.62306105  1
  O  O177  1  0.62596529  0.61920027  0.11679154  1
  O  O178  1  0.63494437  0.61387092  0.61741962  1
  O  O179  1  0.38208578  0.37846321  0.38043175  1
  O  O180  1  0.37811613  0.38099816  0.88138050  1
  O  O181  1  0.38728751  0.88949370  0.37077347  1
  O  O182  1  0.38322062  0.86880048  0.88409806  1
  O  O183  1  0.88117354  0.38341270  0.37854494  1
  O  O184  1  0.87856705  0.37778098  0.87440365  1
  O  O185  1  0.88110146  0.88074505  0.38383896  1
  O  O186  1  0.87794076  0.88249097  0.87945553  1
  O  O187  1  0.25543492  0.00335265  0.36948372  1
  O  O188  1  0.24326959  0.00585684  0.86708733  1
  O  O189  1  0.26441132  0.49027280  0.37606261  1
  O  O190  1  0.26492378  0.49693229  0.88143632  1
  O  O191  1  0.76097696  -0.00479595  0.36984323  1
  O  O192  1  0.75820392  0.00581484  0.87833400  1
  O  O193  1  0.76453010  0.50691770  0.37421891  1
  O  O194  1  0.75944124  0.50213852  0.87384404  1
  O  O195  1  0.24045843  0.49856876  0.12631632  1
  O  O196  1  0.24663561  0.48317137  0.62091888  1
  O  O197  1  0.24573553  1.00277548  0.13873661  1
  O  O198  1  0.24248621  0.99757253  0.62865988  1
  O  O199  1  0.73817598  0.49607314  0.12504886  1
  O  O200  1  0.74627045  0.49560027  0.63171673  1
  O  O201  1  0.74993817  0.99469020  0.13384031  1
  O  O202  1  0.74425451  0.98565524  0.62206303  1
  O  O203  1  0.00902422  0.37144492  0.25643640  1
  O  O204  1  0.00923818  0.35833580  0.74361394  1
  O  O205  1  -0.00946009  0.87204851  0.25466490  1
  O  O206  1  -0.00135083  0.87832248  0.76135438  1
  O  O207  1  0.51207356  0.36834982  0.25310326  1
  O  O208  1  0.50406603  0.36721679  0.75426000  1
  O  O209  1  0.50345275  0.87747184  0.25824867  1
  O  O210  1  0.49362308  0.86577653  0.76137792  1
  O  O211  1  0.50668815  0.13149982  0.23727626  1
  O  O212  1  0.49295367  0.13167834  0.74521550  1
  O  O213  1  0.48715245  0.62786489  0.24915328  1
  O  O214  1  0.49931251  0.63726750  0.75380161  1
  O  O215  1  0.98947366  0.12742739  0.24326129  1
  O  O216  1  0.99488717  0.13241886  0.74424328  1
  O  O217  1  0.98689364  0.62167217  0.23970895  1
  O  O218  1  1.00141740  0.62105981  0.73669625  1
  O  O219  1  0.37294337  0.25919461  0.00947504  1
  O  O220  1  0.37936793  0.25334603  0.51235564  1
  O  O221  1  0.36572913  0.75627747  0.00298629  1
  O  O222  1  0.37279409  0.74698071  0.48425866  1
  O  O223  1  0.87900832  0.24678822  0.01373177  1
  O  O224  1  0.86811762  0.25657710  0.49934470  1
  O  O225  1  0.86564551  0.76388247  -0.00784327  1
  O  O226  1  0.87890628  0.76280024  0.50393652  1
  O  O227  1  0.12328976  0.25542977  0.48709717  1
  O  O228  1  0.12757653  0.24422619  0.99668793  1
  O  O229  1  0.11841189  0.74101946  0.49107784  1
  O  O230  1  0.14072541  0.75053188  0.99181074  1
  O  O231  1  0.63353859  0.24978796  0.49170017  1
  O  O232  1  0.61725367  0.23600932  1.00016005  1
  O  O233  1  0.62107729  0.73433924  0.49869760  1
  O  O234  1  0.63076920  0.74511417  0.99171534  1
  O  O235  1  0.49354581  0.24387997  0.13092408  1
  O  O236  1  0.49477280  0.24547498  0.63068953  1
  O  O237  1  0.49071841  0.74913367  0.12437371  1
  O  O238  1  0.50021637  0.75878297  0.64125438  1
  O  O239  1  0.99117833  0.24210418  0.13083866  1
  O  O240  1  0.99972159  0.24050742  0.63093393  1
  O  O241  1  1.00590088  0.74694424  0.12960027  1
  O  O242  1  0.98558854  0.74604827  0.62198992  1
  O  O243  1  0.00532333  0.25431677  0.37013515  1
  O  O244  1  0.00977661  0.24433133  0.86635406  1
  O  O245  1  0.00717452  0.76094204  0.37359275  1
  O  O246  1  0.01411749  0.75958063  0.88812332  1
  O  O247  1  0.50662093  0.25437807  0.37046330  1
  O  O248  1  0.49201196  0.26255142  0.86524914  1
  O  O249  1  0.50701920  0.76162884  0.36883099  1
  O  O250  1  0.50652515  0.75551610  0.86761291  1
  O  O251  1  0.25444169  0.12537317  0.48294812  1
  O  O252  1  0.24142986  0.12847529  1.00394817  1
  O  O253  1  0.23162317  0.61173488  0.49880930  1
  O  O254  1  0.25651161  0.63823622  0.99103455  1
  O  O255  1  0.75204657  0.13756510  0.50593809  1
  O  O256  1  0.73316576  0.12058758  0.99379338  1
  O  O257  1  0.74383580  0.61736074  0.48910448  1
  O  O258  1  0.74345479  0.63358001  0.99492986  1
  O  O259  1  0.25841803  0.36614916  0.00500245  1
  O  O260  1  0.25809845  0.36672748  0.50833671  1
  O  O261  1  0.26010381  0.86636268  -0.00486016  1
  O  O262  1  0.24679491  0.88449308  0.51602076  1
  O  O263  1  0.76039126  0.38873905  -0.01216086  1
  O  O264  1  0.75590549  0.36894459  0.50424859  1
  O  O265  1  0.75299838  0.87119004  0.00294285  1
  O  O266  1  0.76346976  0.87845404  0.50557538  1
  O  O267  1  0.12514256  0.49294848  0.24576224  1
  O  O268  1  0.11756139  0.48229945  0.75417137  1
  O  O269  1  0.13781545  1.00272407  0.24783689  1
  O  O270  1  0.12196099  0.99866708  0.73600913  1
  O  O271  1  0.62592235  0.49379077  0.24344168  1
  O  O272  1  0.63133866  0.49558403  0.74297735  1
  O  O273  1  0.63850517  1.00204493  0.24843342  1
  O  O274  1  0.61813711  1.00061930  0.73567717  1
  O  O275  1  0.36096570  0.00019685  0.25684653  1
  O  O276  1  0.37950663  0.01473379  0.74333666  1
  O  O277  1  0.37494136  0.50636703  0.25861334  1
  O  O278  1  0.37901805  0.49762618  0.76260741  1
  O  O279  1  0.86532430  0.00861224  0.25800524  1
  O  O280  1  0.88035469  0.01192032  0.75843041  1
  O  O281  1  0.87576523  0.50557240  0.25758074  1
  O  O282  1  0.86533151  0.49625093  0.74577098  1
  O  O283  1  0.11937131  0.36969025  0.36971692  1
  O  O284  1  0.13151841  0.36013937  0.87082040  1
  O  O285  1  0.10923183  0.87194198  0.37932875  1
  O  O286  1  0.11484322  0.86696411  0.87426486  1
  O  O287  1  0.62062282  0.36967375  0.36760634  1
  O  O288  1  0.61294387  0.37564278  0.86374028  1
  O  O289  1  0.61554781  0.87672574  0.37274505  1
  O  O290  1  0.61363589  0.86442514  0.87977315  1
  O  O291  1  0.38650973  0.13594305  0.11828839  1
  O  O292  1  0.38147919  0.13130960  0.63116514  1
  O  O293  1  0.37695744  0.63606551  0.13035552  1
  O  O294  1  0.37801270  0.63166412  0.62212329  1
  O  O295  1  0.87880132  0.13397552  0.13119116  1
  O  O296  1  0.88439545  0.12359975  0.63400672  1
  O  O297  1  0.87966325  0.62411386  0.13836471  1
  O  O298  1  0.87915625  0.64117436  0.62056443  1
  O  O299  1  0.25788220  0.24996793  0.12287124  1
  O  O300  1  0.25889667  0.25446651  0.62308628  1
  O  O301  1  0.25541180  0.74722772  0.10907256  1
  O  O302  1  0.24591586  0.76057376  0.61863071  1
  O  O303  1  0.76294915  0.25355754  0.12400221  1
  O  O304  1  0.75114139  0.25714628  0.61677621  1
  O  O305  1  0.74727030  0.75705306  0.11121491  1
  O  O306  1  0.76178332  0.76122035  0.62836997  1
  O  O307  1  0.24086336  0.24194052  0.37497763  1
  O  O308  1  0.24335522  0.24064458  0.88489470  1
  O  O309  1  0.23109174  0.75798591  0.36656879  1
  O  O310  1  0.23756825  0.75036403  0.88230491  1
  O  O311  1  0.74122064  0.25607738  0.38444768  1
  O  O312  1  0.75270063  0.23907974  0.87541893  1
  O  O313  1  0.75282117  0.73842003  0.37448705  1
  O  O314  1  0.74204392  0.74575164  0.88156534  1
  O  O315  1  0.00403854  0.12078432  0.00730767  1
  O  O316  1  -0.00724627  0.11581712  0.51087046  1
  O  O317  1  -0.00832198  0.61735047  0.01653775  1
  O  O318  1  0.00525920  0.61856528  0.50806761  1
  O  O319  1  0.50650505  0.11899098  0.00390178  1
  O  O320  1  0.50464494  0.11726644  0.50754458  1
  O  O321  1  0.51067391  0.62644525  -0.00026280  1
  O  O322  1  0.51488474  0.60854503  0.49183959  1
  O  O323  1  0.49627875  0.38324659  0.49603727  1
  O  O324  1  0.49294932  0.37504612  0.99161566  1
  O  O325  1  0.50553181  0.88321590  0.48998989  1
  O  O326  1  0.49174375  0.88170827  0.99133858  1
  O  O327  1  0.99463182  0.38248809  0.49685213  1
  O  O328  1  0.99828354  0.38841221  1.00349079  1
  O  O329  1  0.98943988  0.88332060  0.49434618  1
  O  O330  1  0.98786198  0.88279384  0.99128692  1
  O  O331  1  0.49212451  0.49269091  0.38119223  1
  O  O332  1  0.49143680  0.48775308  0.87635142  1
  O  O333  1  0.49447978  0.99698823  0.37999568  1
  O  O334  1  0.50166941  0.99028485  0.88183837  1
  O  O335  1  0.99122238  0.49779510  0.38166146  1
  O  O336  1  1.00025287  0.50431612  0.89358266  1
  O  O337  1  0.99094373  0.99520841  0.38072040  1
  O  O338  1  0.99131708  0.99409104  0.88043580  1
  O  O339  1  -0.00187519  0.01218559  0.12122937  1
  O  O340  1  0.00499717  0.00541122  0.61795694  1
  O  O341  1  0.00571321  0.50616532  0.11814821  1
  O  O342  1  0.00165287  0.50820409  0.61850403  1
  O  O343  1  0.49966391  0.00807777  0.11935531  1
  O  O344  1  0.50576818  -0.00075069  0.61770564  1
  O  O345  1  0.51233020  0.50260570  0.12248593  1
  O  O346  1  0.51175053  0.49445324  0.61612227  1
  O  O347  1  0.23662526  0.37641521  0.24967979  1
  O  O348  1  0.24070173  0.36400708  0.74275541  1
  O  O349  1  0.24841070  0.88970111  0.25178226  1
  O  O350  1  0.24749027  0.87502474  0.73577574  1
  O  O351  1  0.73827600  0.37826699  0.24956329  1
  O  O352  1  0.74537321  0.38112991  0.74462141  1
  O  O353  1  0.75266828  0.88416565  0.24163958  1
  O  O354  1  0.75398085  0.87683390  0.73883981  1
  O  O355  1  0.24835074  0.11606648  0.26449436  1
  O  O356  1  0.26861219  0.12763758  0.74929847  1
  O  O357  1  0.26434414  0.62246995  0.24904266  1
  O  O358  1  0.25214077  0.62253505  0.75597092  1
  O  O359  1  0.75960232  0.12028900  0.24482479  1
  O  O360  1  0.75975992  0.12913909  0.75823250  1
  O  O361  1  0.76361966  0.62186034  0.25565963  1
  O  O362  1  0.74423226  0.61374497  0.76105019  1
  O  O363  1  0.37030631  0.11320882  0.37356410  1
  O  O364  1  0.37872069  0.13084634  0.86010833  1
  O  O365  1  0.37356967  0.61767739  0.36986001  1
  O  O366  1  0.37856761  0.60542840  0.87765851  1
  O  O367  1  0.87823970  0.11656793  0.36641617  1
  O  O368  1  0.86643681  0.11874169  0.87066667  1
  O  O369  1  0.87439893  0.62114778  0.36660761  1
  O  O370  1  0.86232667  0.63177317  0.87735586  1
  O  O371  1  0.12377065  0.38381537  0.13460912  1
  O  O372  1  0.13358182  0.37342771  0.63547908  1
  O  O373  1  0.10537352  0.86701426  0.13411728  1
  O  O374  1  0.13023493  0.88264206  0.62618410  1
  O  O375  1  0.62871612  0.38114660  0.12994322  1
  O  O376  1  0.63230679  0.38513529  0.62893764  1
  O  O377  1  0.63760659  0.87913597  0.12339045  1
  O  O378  1  0.64137278  0.87777921  0.62106164  1
  O  O379  1  0.11799784  0.25692357  0.25669357  1
  O  O380  1  0.12009438  0.25146265  0.76001948  1
  O  O381  1  0.11977528  0.74901610  0.25186717  1
  O  O382  1  0.12417896  0.75237710  0.76371668  1
  O  O383  1  0.62331183  0.25623678  0.25584046  1
  O  O384  1  0.61252520  0.25374248  0.74245779  1
  O  O385  1  0.62585162  0.75350493  0.25343129  1
  O  O386  1  0.61667797  0.74443934  0.76058971  1
  O  O387  1  0.38011369  0.25715662  0.23905030  1
  O  O388  1  0.38520383  0.24442040  0.74026791  1
  O  O389  1  0.37425596  0.74686328  0.24110203  1
  O  O390  1  0.38864060  0.74428925  0.75624442  1
  O  O391  1  0.87937902  0.24369049  0.24733300  1
  O  O392  1  0.88421937  0.23912669  0.74796267  1
  O  O393  1  0.87453058  0.73817926  0.25144089  1
  O  O394  1  0.87640719  0.75229424  0.73937037  1
  O  O395  1  0.38378273  0.49423046  0.49449345  1
  O  O396  1  0.37647049  0.48823903  0.99710286  1
  O  O397  1  0.38974756  1.00419809  0.49213060  1
  O  O398  1  0.38480602  0.99221454  1.00473934  1
  O  O399  1  0.88522129  0.49803515  0.49389543  1
  O  O400  1  0.88216149  0.49930558  1.00157988  1
  O  O401  1  0.88167071  0.99285412  0.49444231  1
  O  O402  1  0.87607596  0.99369119  0.99213173  1
  O  O403  1  0.11803620  0.00549002  0.00761873  1
  O  O404  1  0.11100917  -0.00234505  0.50886268  1
  O  O405  1  0.11502905  0.49586918  0.00851577  1
  O  O406  1  0.11169803  0.50362539  0.49987077  1
  O  O407  1  0.61045492  0.00752652  0.00178145  1
  O  O408  1  0.61578180  0.00187314  0.50858455  1
  O  O409  1  0.62068265  0.51151232  0.00693236  1
  O  O410  1  0.62090741  0.50322155  0.50753125  1
  O  O411  1  0.37655302  0.36934187  0.11836698  1
  O  O412  1  0.36967572  0.36680462  0.62246379  1
  O  O413  1  0.37860564  0.86396229  0.11397272  1
  O  O414  1  0.36246038  0.86582257  0.62410096  1
  O  O415  1  0.87289880  0.36025601  0.12982943  1
  O  O416  1  0.86987316  0.37219450  0.61804785  1
  O  O417  1  0.86186714  0.88025658  0.11396942  1
  O  O418  1  0.86825197  0.86832236  0.61908017  1
  O  O419  1  0.12966877  0.13442537  0.37163219  1
  O  O420  1  0.12169713  0.13165627  0.88992920  1
  O  O421  1  0.11445428  0.63669684  0.38371346  1
  O  O422  1  0.12164451  0.63833920  0.87668335  1
  O  O423  1  0.62317105  0.13781992  0.37581230  1
  O  O424  1  0.63006396  0.12268465  0.88546407  1
  O  O425  1  0.63785499  0.62123229  0.38116148  1
  O  O426  1  0.63320108  0.62978108  0.88359652  1
