# generated using pymatgen
data_V85Zn86O256
_symmetry_space_group_name_H-M   'P 1'
_cell_length_a   16.90220458
_cell_length_b   16.89879874
_cell_length_c   16.89849717
_cell_angle_alpha   90.02156984
_cell_angle_beta   89.99699785
_cell_angle_gamma   89.96228603
_symmetry_Int_Tables_number   1
_chemical_formula_structural   V85Zn86O256
_chemical_formula_sum   'V85 Zn86 O256'
_cell_volume   4826.66487263
_cell_formula_units_Z   1
loop_
 _symmetry_equiv_pos_site_id
 _symmetry_equiv_pos_as_xyz
  1  'x, y, z'
loop_
 _atom_site_type_symbol
 _atom_site_label
 _atom_site_symmetry_multiplicity
 _atom_site_fract_x
 _atom_site_fract_y
 _atom_site_fract_z
 _atom_site_occupancy
  V  V0  1  0.50153943  0.25816762  0.75286351  1
  V  V1  1  0.38017612  0.12044062  0.25275154  1
  V  V2  1  -0.00289648  0.24822822  0.25249597  1
  V  V3  1  0.00186171  0.24967221  0.74791128  1
  V  V4  1  0.25303268  0.49581851  0.74522965  1
  V  V5  1  0.11949791  0.12047625  -0.00492529  1
  V  V6  1  0.74576647  0.25103518  0.50564508  1
  V  V7  1  -0.00421235  0.11965615  0.12270562  1
  V  V8  1  0.74998856  0.62257082  0.87501414  1
  V  V9  1  0.87032138  0.76277326  0.62495304  1
  V  V10  1  0.37278780  0.25874291  0.62267732  1
  V  V11  1  0.24784195  0.00119312  0.74334993  1
  V  V12  1  0.24432997  0.24856129  -0.00346394  1
  V  V13  1  0.87540688  0.62249478  0.74681627  1
  V  V14  1  0.12739714  0.62451866  -0.00132745  1
  V  V15  1  0.75139530  0.48899720  0.74509280  1
  V  V16  1  0.37575681  0.12547909  0.74863810  1
  V  V17  1  0.62668271  0.25614446  0.37569864  1
  V  V18  1  0.62897102  0.87556468  0.74433449  1
  V  V19  1  0.50219546  0.88893644  0.87813668  1
  V  V20  1  0.49925211  0.00658286  0.49590594  1
  V  V21  1  0.12491320  0.87917650  0.74784549  1
  V  V22  1  0.50477477  0.12818644  0.62166705  1
  V  V23  1  0.12191352  0.11086675  0.50342407  1
  V  V24  1  0.00156659  0.50875597  0.50068897  1
  V  V25  1  0.12409238  0.37462838  0.25130017  1
  V  V26  1  0.25030876  0.37349484  0.12513278  1
  V  V27  1  0.49379824  0.37993879  0.36939693  1
  V  V28  1  0.49412932  0.88028752  0.37381566  1
  V  V29  1  0.62792747  0.49483554  0.62080836  1
  V  V30  1  0.75005380  0.74923602  0.00021446  1
  V  V31  1  0.62596346  0.62127511  0.00530647  1
  V  V32  1  0.00093250  0.62021616  0.12445654  1
  V  V33  1  0.62339665  0.75253708  0.37481265  1
  V  V34  1  0.62536475  0.00525178  0.10749717  1
  V  V35  1  0.24617655  0.12766993  0.87295366  1
  V  V36  1  0.75348248  -0.00141464  0.74555915  1
  V  V37  1  0.50201125  0.12212141  0.11127361  1
  V  V38  1  0.25221196  -0.00206820  0.25187474  1
  V  V39  1  0.37788548  0.87712371  0.00815434  1
  V  V40  1  0.12496556  -0.00201239  0.12282326  1
  V  V41  1  0.74956910  0.88039415  0.12879650  1
  V  V42  1  0.73438672  0.49653768  0.24770828  1
  V  V43  1  0.73295366  0.37851066  0.12492321  1
  V  V44  1  0.75053468  0.76266605  0.50392201  1
  V  V45  1  0.00277251  0.36825288  0.88007956  1
  V  V46  1  0.00005686  0.11200504  0.62285896  1
  V  V47  1  0.74710073  0.62522760  0.37756269  1
  V  V48  1  0.87509993  0.26081147  0.12420675  1
  V  V49  1  0.87025706  0.37603743  0.51084783  1
  V  V50  1  0.75082931  0.24855904  0.00185022  1
  V  V51  1  0.87177686  0.62149921  0.24976565  1
  V  V52  1  0.12212887  0.74902588  0.37804179  1
  V  V53  1  0.24325902  0.74634166  0.50080649  1
  V  V54  1  -0.06070031  0.93270964  0.43397126  1
  V  V55  1  0.50169967  0.75216087  0.75096966  1
  V  V56  1  0.12826894  0.50336681  0.62294764  1
  V  V57  1  0.24629155  0.25547920  0.50275854  1
  V  V58  1  0.74556335  0.12319457  0.88077028  1
  V  V59  1  0.13034136  0.37025101  0.75000463  1
  V  V60  1  -0.00080129  0.75403390  0.25527416  1
  V  V61  1  0.86888988  0.11473110  0.25522122  1
  V  V62  1  0.88194963  0.00236803  0.87917257  1
  V  V63  1  0.88329780  0.87965326  0.00238667  1
  V  V64  1  0.37664297  0.62639119  0.75159667  1
  V  V65  1  0.25344699  0.12041897  0.37713804  1
  V  V66  1  0.49212745  0.50278485  0.49639427  1
  V  V67  1  0.25064777  0.61706726  0.37808767  1
  V  V68  1  0.49367484  0.62744339  0.12075531  1
  V  V69  1  0.50567338  0.49370133  0.00148393  1
  V  V70  1  0.37434971  0.61756193  0.25236159  1
  V  V71  1  0.49281035  0.75218412  0.24426397  1
  V  V72  1  0.74569410  0.11691752  0.37729064  1
  V  V73  1  0.87290289  0.74845245  0.12485853  1
  V  V74  1  0.37265895  0.88040293  0.49775207  1
  V  V75  1  0.38125278  0.49791414  0.87437301  1
  V  V76  1  0.63049753  0.00177027  0.61873760  1
  V  V77  1  0.37765810  0.37238766  -0.00499083  1
  V  V78  1  0.62500101  0.88549169  0.24902596  1
  V  V79  1  0.00123373  0.74994838  0.75524413  1
  V  V80  1  0.37330608  0.75377328  0.62624563  1
  V  V81  1  0.87696118  0.49272786  0.88110560  1
  V  V82  1  -0.00358996  0.37405561  0.37946130  1
  V  V83  1  0.62295073  0.25519878  0.87914709  1
  V  V84  1  0.50636934  0.25169149  0.24740537  1
  Zn  Zn85  1  0.87199387  0.24974102  0.62601244  1
  Zn  Zn86  1  0.87483394  0.12601507  0.74853979  1
  Zn  Zn87  1  0.87081982  0.49857191  0.37688876  1
  Zn  Zn88  1  0.00597981  0.87967223  0.88208717  1
  Zn  Zn89  1  0.25408441  0.86930963  0.12777460  1
  Zn  Zn90  1  0.24381962  0.88133287  0.62184493  1
  Zn  Zn91  1  0.25095814  0.62621302  0.87620659  1
  Zn  Zn92  1  0.62441398  0.62634167  0.50214160  1
  Zn  Zn93  1  0.25645180  0.49371955  0.25574559  1
  Zn  Zn94  1  0.11978164  0.87796700  0.25441148  1
  Zn  Zn95  1  0.36861535  0.38087770  0.49554770  1
  Zn  Zn96  1  0.50282533  0.62644826  0.62287280  1
  Zn  Zn97  1  0.12216787  0.24680611  0.37919885  1
  Zn  Zn98  1  0.00482109  0.62918203  0.62204191  1
  Zn  Zn99  1  0.13200551  0.75184957  0.87663714  1
  Zn  Zn100  1  0.37909254  0.00474111  0.87927952  1
  Zn  Zn101  1  -0.00029330  0.49238422  0.00177922  1
  Zn  Zn102  1  0.62679340  0.37363959  0.74839771  1
  Zn  Zn103  1  0.12642894  0.49861103  0.12501387  1
  Zn  Zn104  1  0.62600307  0.75046582  0.87455194  1
  Zn  Zn105  1  0.26022828  0.74636846  0.00474630  1
  Zn  Zn106  1  0.37622561  0.24610341  0.12384412  1
  Zn  Zn107  1  0.18653863  0.18675279  0.18738141  1
  Zn  Zn108  1  0.18503755  0.18815034  0.68381067  1
  Zn  Zn109  1  0.18931652  0.68890257  0.18700856  1
  Zn  Zn110  1  0.18803589  0.68635646  0.68981048  1
  Zn  Zn111  1  0.68715372  0.18597517  0.18826384  1
  Zn  Zn112  1  0.68686382  0.18439918  0.68917304  1
  Zn  Zn113  1  0.68169451  0.68922557  0.18733874  1
  Zn  Zn114  1  0.68858505  0.68211854  0.68586763  1
  Zn  Zn115  1  0.31455253  0.30476711  0.31315812  1
  Zn  Zn116  1  0.31210297  0.31142338  0.81300932  1
  Zn  Zn117  1  0.31180351  0.80906296  0.31284944  1
  Zn  Zn118  1  0.31238914  0.81537795  0.82008548  1
  Zn  Zn119  1  0.81116237  0.31192066  0.31198849  1
  Zn  Zn120  1  0.81703182  0.30963830  0.81370253  1
  Zn  Zn121  1  0.81084121  0.81344305  0.31269902  1
  Zn  Zn122  1  0.81370374  0.81413663  0.81389222  1
  Zn  Zn123  1  0.18300187  0.43714069  0.43786580  1
  Zn  Zn124  1  0.18691542  0.44089424  0.93386762  1
  Zn  Zn125  1  0.18380921  0.93439673  0.43411934  1
  Zn  Zn126  1  0.19284349  0.93840444  0.93473231  1
  Zn  Zn127  1  0.68337073  0.43524386  0.43626678  1
  Zn  Zn128  1  0.69066827  0.43392880  0.93886294  1
  Zn  Zn129  1  0.68611163  0.93856343  0.43724826  1
  Zn  Zn130  1  0.69295469  0.93396035  0.93413167  1
  Zn  Zn131  1  0.31543010  0.05741165  0.06156843  1
  Zn  Zn132  1  0.31475816  0.06641563  0.56226781  1
  Zn  Zn133  1  0.31325612  0.56017559  0.06467650  1
  Zn  Zn134  1  0.31299976  0.56584972  0.56561133  1
  Zn  Zn135  1  0.81082049  0.06361750  0.06419802  1
  Zn  Zn136  1  0.81740090  0.05970793  0.55609313  1
  Zn  Zn137  1  0.81211238  0.55668672  0.06314681  1
  Zn  Zn138  1  0.81256507  0.56500046  0.56246519  1
  Zn  Zn139  1  0.44089612  0.43677689  0.18197659  1
  Zn  Zn140  1  0.44124589  0.43797938  0.68296494  1
  Zn  Zn141  1  0.44084019  0.94409290  0.18527253  1
  Zn  Zn142  1  0.43770052  0.93963609  0.68741838  1
  Zn  Zn143  1  0.93476831  0.43888555  0.19198026  1
  Zn  Zn144  1  0.94248669  0.43755344  0.68914318  1
  Zn  Zn145  1  0.93713127  0.93930564  0.19067092  1
  Zn  Zn146  1  0.93897673  0.93675234  0.69019074  1
  Zn  Zn147  1  0.06173173  0.06137877  0.31473729  1
  Zn  Zn148  1  0.06365992  0.06324448  0.81051258  1
  Zn  Zn149  1  0.06506710  0.56324307  0.31500200  1
  Zn  Zn150  1  0.06329376  0.56023026  0.81341078  1
  Zn  Zn151  1  0.56633512  0.06558254  0.31203963  1
  Zn  Zn152  1  0.56741570  0.06872195  0.80831870  1
  Zn  Zn153  1  0.56000217  0.56358246  0.31260493  1
  Zn  Zn154  1  0.56436297  0.56152688  0.81397280  1
  Zn  Zn155  1  0.43624576  0.19018332  0.43518720  1
  Zn  Zn156  1  0.43505466  0.18924892  0.93454624  1
  Zn  Zn157  1  0.43462534  0.68920580  0.43605251  1
  Zn  Zn158  1  0.43841706  0.69187098  0.93516455  1
  Zn  Zn159  1  0.93389983  0.18462286  0.44053440  1
  Zn  Zn160  1  0.93514471  0.18940705  0.93712358  1
  Zn  Zn161  1  0.93288315  0.69309890  0.43851244  1
  Zn  Zn162  1  0.93845713  0.68501201  0.93752391  1
  Zn  Zn163  1  0.06392027  0.30682965  0.06393433  1
  Zn  Zn164  1  0.06387182  0.31381260  0.56653922  1
  Zn  Zn165  1  0.06651742  0.80709254  0.06770558  1
  Zn  Zn166  1  0.05986714  0.81502905  0.56558079  1
  Zn  Zn167  1  0.56251543  0.30788526  0.05971689  1
  Zn  Zn168  1  0.56252856  0.31678477  0.55830821  1
  Zn  Zn169  1  0.56116443  0.81267932  0.05989807  1
  Zn  Zn170  1  0.56341415  0.81536402  0.56230722  1
  O  O171  1  0.11684858  0.11692703  0.12036723  1
  O  O172  1  0.11496318  0.12666606  0.61284194  1
  O  O173  1  0.11568179  0.62012448  0.12098639  1
  O  O174  1  0.12293984  0.61003733  0.63165737  1
  O  O175  1  0.62115819  0.11190092  0.12752200  1
  O  O176  1  0.61234309  0.11735749  0.62779710  1
  O  O177  1  0.61554250  0.62709345  0.11241290  1
  O  O178  1  0.62193335  0.61275388  0.62333009  1
  O  O179  1  0.38834665  0.36782188  0.37618404  1
  O  O180  1  0.37159307  0.38008392  0.88695325  1
  O  O181  1  0.38589550  0.87139434  0.38219325  1
  O  O182  1  0.38775629  0.88209344  0.87922358  1
  O  O183  1  0.88510559  0.37638519  0.37999866  1
  O  O184  1  0.88691809  0.38211474  0.87025328  1
  O  O185  1  0.88089417  0.87118608  0.37551904  1
  O  O186  1  0.87483665  0.88379880  0.88579680  1
  O  O187  1  0.24447134  0.01157927  0.36800489  1
  O  O188  1  0.25312839  0.01352189  0.86501608  1
  O  O189  1  0.24606155  0.51181661  0.37619681  1
  O  O190  1  0.26369484  0.50064103  0.86474411  1
  O  O191  1  0.74018210  0.01734963  0.37522601  1
  O  O192  1  0.75651509  0.00660893  0.86859548  1
  O  O193  1  0.74795454  0.50725929  0.36713186  1
  O  O194  1  0.75791463  0.50234832  0.86836591  1
  O  O195  1  0.24983507  0.48404744  0.12843792  1
  O  O196  1  0.24652310  0.50144724  0.63601741  1
  O  O197  1  0.24193334  0.99912957  0.13407647  1
  O  O198  1  0.25587421  1.00204132  0.63825930  1
  O  O199  1  0.75204678  0.48591308  0.13051146  1
  O  O200  1  0.74286852  0.50514644  0.63348556  1
  O  O201  1  0.73801391  0.99291776  0.12406378  1
  O  O202  1  0.74198894  1.00951901  0.63079722  1
  O  O203  1  0.00471804  0.37027189  0.25778910  1
  O  O204  1  0.00732910  0.36733478  0.75668092  1
  O  O205  1  -0.00219891  0.85747683  0.24223400  1
  O  O206  1  0.00698927  0.86837329  0.75466934  1
  O  O207  1  0.49427699  0.36443772  0.25386267  1
  O  O208  1  0.49991851  0.36163887  0.74828980  1
  O  O209  1  0.50246324  0.87127109  0.25525568  1
  O  O210  1  0.50764865  0.87096654  0.75505258  1
  O  O211  1  0.49488581  0.12937466  0.24405358  1
  O  O212  1  0.49549748  0.13448289  0.74090293  1
  O  O213  1  0.49549121  0.63200591  0.24222235  1
  O  O214  1  0.49612902  0.63536324  0.74995323  1
  O  O215  1  0.98957781  0.12942620  0.24608114  1
  O  O216  1  1.00238794  0.13104003  0.73835150  1
  O  O217  1  0.99083575  0.62760466  0.24488182  1
  O  O218  1  0.99199278  0.63135084  0.75020415  1
  O  O219  1  0.36361728  0.25593563  0.00019543  1
  O  O220  1  0.36610297  0.24859540  0.50711957  1
  O  O221  1  0.37996623  0.76960361  -0.00560164  1
  O  O222  1  0.36960907  0.76098985  0.50706637  1
  O  O223  1  0.86241684  0.24540052  0.01031218  1
  O  O224  1  0.86676640  0.25906490  0.50146104  1
  O  O225  1  0.86913252  0.75441175  0.00664193  1
  O  O226  1  0.86765596  0.74502519  0.51742037  1
  O  O227  1  0.13243362  0.24299550  0.50189484  1
  O  O228  1  0.13753620  0.23733366  1.00574919  1
  O  O229  1  0.13599200  0.75247637  0.49772564  1
  O  O230  1  0.11999366  0.73471913  0.99717873  1
  O  O231  1  0.63235383  0.25378204  0.49005578  1
  O  O232  1  0.63774778  0.25157354  0.99321614  1
  O  O233  1  0.63085028  0.74935441  0.49497227  1
  O  O234  1  0.63237189  0.74234240  0.99755146  1
  O  O235  1  0.50046531  0.24137453  0.13152748  1
  O  O236  1  0.49659522  0.24442516  0.62796187  1
  O  O237  1  0.50528393  0.74158685  0.13286969  1
  O  O238  1  0.49359163  0.75284701  0.63467593  1
  O  O239  1  0.99271496  0.24014578  0.13033339  1
  O  O240  1  0.99897248  0.24444323  0.63521511  1
  O  O241  1  0.99321887  0.73668447  0.13283159  1
  O  O242  1  0.98845689  0.74795776  0.63589299  1
  O  O243  1  -0.00085592  0.25657237  0.37156604  1
  O  O244  1  -0.00493380  0.25478202  0.86153155  1
  O  O245  1  0.00820865  0.73855295  0.36687351  1
  O  O246  1  -0.00412375  0.75325257  0.86312830  1
  O  O247  1  0.50748052  0.25380222  0.36800439  1
  O  O248  1  0.51050079  0.24280379  0.86603033  1
  O  O249  1  0.50532236  0.75935229  0.36897204  1
  O  O250  1  0.50332611  0.75942525  0.86155376  1
  O  O251  1  0.24148990  0.12926063  0.49515967  1
  O  O252  1  0.24601622  0.12972505  0.99325365  1
  O  O253  1  0.25861210  0.63569511  0.49209577  1
  O  O254  1  0.24151174  0.62186237  1.00007500  1
  O  O255  1  0.75807287  0.13464570  0.48340504  1
  O  O256  1  0.75119594  0.13367029  0.99335534  1
  O  O257  1  0.74831072  0.63222320  0.49039429  1
  O  O258  1  0.74343201  0.62653594  0.99768246  1
  O  O259  1  0.25207043  0.36745296  0.00437004  1
  O  O260  1  0.25042414  0.36044036  0.49188520  1
  O  O261  1  0.26626187  0.87700798  0.00041896  1
  O  O262  1  0.25763133  0.86964085  0.50058343  1
  O  O263  1  0.74965474  0.36910484  0.01646165  1
  O  O264  1  0.75936470  0.36631931  0.49246624  1
  O  O265  1  0.75753113  0.86908645  0.00979945  1
  O  O266  1  0.74578605  0.86242686  0.49743359  1
  O  O267  1  0.12649526  0.48499131  0.24962901  1
  O  O268  1  0.13571534  0.49450768  0.74610667  1
  O  O269  1  0.13367355  1.00063146  0.24280552  1
  O  O270  1  0.13455148  0.99262321  0.75362914  1
  O  O271  1  0.63512268  0.50554034  0.24752975  1
  O  O272  1  0.63399982  0.49773073  0.74491536  1
  O  O273  1  0.62125350  0.98802596  0.24294026  1
  O  O274  1  0.63194605  0.99543382  0.73964771  1
  O  O275  1  0.36907543  0.01179344  0.24681965  1
  O  O276  1  0.36998544  0.00991512  0.75126996  1
  O  O277  1  0.37750447  0.51275642  0.24598415  1
  O  O278  1  0.37322522  0.50199219  0.75435476  1
  O  O279  1  0.87210137  0.01584398  0.24607765  1
  O  O280  1  0.86790403  0.00134576  0.75757250  1
  O  O281  1  0.86629136  0.51127635  0.25295033  1
  O  O282  1  0.87026930  0.50546778  0.75516168  1
  O  O283  1  0.11308267  0.37099585  0.36957179  1
  O  O284  1  0.11760517  0.38029916  0.86098852  1
  O  O285  1  0.13122554  0.85635859  0.37032191  1
  O  O286  1  0.12358898  0.87346595  0.86667452  1
  O  O287  1  0.61342183  0.36403387  0.37354172  1
  O  O288  1  0.63202139  0.35990998  0.87105456  1
  O  O289  1  0.61618064  0.87276473  0.36673605  1
  O  O290  1  0.62041444  0.87413749  0.86341041  1
  O  O291  1  0.38458972  0.12375656  0.13137177  1
  O  O292  1  0.38656741  0.13337819  0.62917700  1
  O  O293  1  0.38692921  0.62373688  0.12985747  1
  O  O294  1  0.37902348  0.63955125  0.63120487  1
  O  O295  1  0.87866436  0.13169609  0.13421976  1
  O  O296  1  0.88980739  0.12648541  0.62262443  1
  O  O297  1  0.87854214  0.62714114  0.13115755  1
  O  O298  1  0.87621987  0.62965872  0.63814827  1
  O  O299  1  0.25199634  0.25770958  0.11829716  1
  O  O300  1  0.26039960  0.24220642  0.61493078  1
  O  O301  1  0.24281949  0.75714783  0.11827436  1
  O  O302  1  0.25716279  0.75166852  0.61862793  1
  O  O303  1  0.75386596  0.25870121  0.12238706  1
  O  O304  1  0.74896216  0.24101182  0.61009953  1
  O  O305  1  0.75377212  0.75661887  0.12033094  1
  O  O306  1  0.76105315  0.74546873  0.61988771  1
  O  O307  1  0.24678975  0.23636356  0.38163838  1
  O  O308  1  0.25189463  0.23778462  0.88160231  1
  O  O309  1  0.24525221  0.74160175  0.38270530  1
  O  O310  1  0.25026686  0.74464702  0.88332809  1
  O  O311  1  0.74226228  0.24716858  0.38028245  1
  O  O312  1  0.74839613  0.24382607  0.88319147  1
  O  O313  1  0.74384741  0.74436989  0.38149548  1
  O  O314  1  0.75063690  0.74217496  0.88181054  1
  O  O315  1  0.00807881  0.13171173  0.00908930  1
  O  O316  1  0.01132418  0.12862741  0.50974020  1
  O  O317  1  0.00420417  0.62114648  0.00920615  1
  O  O318  1  -0.00760393  0.61229031  0.50034682  1
  O  O319  1  0.49667664  0.13115113  0.01182597  1
  O  O320  1  0.49368457  0.11433886  0.50449755  1
  O  O321  1  0.50554735  0.62048677  0.00381015  1
  O  O322  1  0.50204553  0.61842321  0.49781274  1
  O  O323  1  0.49643678  0.38422237  0.48934185  1
  O  O324  1  0.49103422  0.38100873  1.00456268  1
  O  O325  1  0.49390565  0.88324471  0.49286500  1
  O  O326  1  0.49550360  0.87397817  0.98814613  1
  O  O327  1  0.99337252  0.38143591  0.49476130  1
  O  O328  1  1.00909078  0.37033171  0.98532199  1
  O  O329  1  0.99577555  0.87443362  0.49680715  1
  O  O330  1  0.98687334  0.86813616  1.00347554  1
  O  O331  1  0.50422697  0.49168964  0.38150902  1
  O  O332  1  0.48959810  0.50146232  0.88350194  1
  O  O333  1  0.50708779  0.99376097  0.38368126  1
  O  O334  1  0.50434380  0.99214585  0.86669275  1
  O  O335  1  0.99870957  0.49286427  0.38273310  1
  O  O336  1  0.99258534  0.48882055  0.87342123  1
  O  O337  1  1.00114382  0.98753959  0.37247084  1
  O  O338  1  0.98596582  1.00136987  0.87224735  1
  O  O339  1  0.00553202  0.01257717  0.12995148  1
  O  O340  1  0.00063519  0.01300335  0.63052124  1
  O  O341  1  -0.00201008  0.50888049  0.12455968  1
  O  O342  1  0.00746001  0.50310989  0.61828678  1
  O  O343  1  0.51607884  0.00739837  0.12488655  1
  O  O344  1  0.50567285  0.00814036  0.61813057  1
  O  O345  1  0.49787818  0.50833704  0.10952290  1
  O  O346  1  0.50728663  0.50344074  0.61549405  1
  O  O347  1  0.24396936  0.37086731  0.24475249  1
  O  O348  1  0.24329054  0.38185934  0.75365180  1
  O  O349  1  0.25377852  0.88839042  0.25108689  1
  O  O350  1  0.24521316  0.88505510  0.75086287  1
  O  O351  1  0.75480507  0.38294251  0.23716399  1
  O  O352  1  0.75291804  0.38589914  0.75117687  1
  O  O353  1  0.74012263  0.86782856  0.23732536  1
  O  O354  1  0.74282496  0.88825642  0.75549023  1
  O  O355  1  0.25592740  0.11876783  0.25627670  1
  O  O356  1  0.25279765  0.12268445  0.75492343  1
  O  O357  1  0.25839768  0.62158922  0.25664748  1
  O  O358  1  0.25978019  0.61607623  0.75174053  1
  O  O359  1  0.76127889  0.13201303  0.25989339  1
  O  O360  1  0.75202167  0.11400285  0.75703265  1
  O  O361  1  0.75391239  0.62054445  0.25334933  1
  O  O362  1  0.75695816  0.61629263  0.75692296  1
  O  O363  1  0.36606785  0.12679182  0.36689992  1
  O  O364  1  0.36707887  0.12519159  0.86622587  1
  O  O365  1  0.36536839  0.63043175  0.36425474  1
  O  O366  1  0.37712435  0.61594455  0.86906036  1
  O  O367  1  0.86424294  0.13128072  0.36257150  1
  O  O368  1  0.86469587  0.11863824  0.87445579  1
  O  O369  1  0.86181994  0.62586275  0.36749261  1
  O  O370  1  0.87090494  0.61751656  0.86518744  1
  O  O371  1  0.13117965  0.37367427  0.13289421  1
  O  O372  1  0.11992825  0.38801032  0.63946443  1
  O  O373  1  0.12198081  0.88907821  0.12737930  1
  O  O374  1  0.12768733  0.86896275  0.64161243  1
  O  O375  1  0.63450473  0.37222672  0.12667835  1
  O  O376  1  0.62123846  0.38900375  0.62790306  1
  O  O377  1  0.62937520  0.88452963  0.12775607  1
  O  O378  1  0.62054200  0.88521938  0.63660339  1
  O  O379  1  0.11719642  0.25817107  0.25176808  1
  O  O380  1  0.11884208  0.25934728  0.74531644  1
  O  O381  1  0.11420639  0.74904099  0.25744496  1
  O  O382  1  0.11626014  0.75405164  0.75346733  1
  O  O383  1  0.61329861  0.24588448  0.25581934  1
  O  O384  1  0.61872914  0.25134709  0.75577925  1
  O  O385  1  0.61366359  0.76058114  0.25374401  1
  O  O386  1  0.62021975  0.75814267  0.74749487  1
  O  O387  1  0.38440765  0.23698693  0.24680286  1
  O  O388  1  0.38095877  0.24512541  0.74316805  1
  O  O389  1  0.38751426  0.74226234  0.25283628  1
  O  O390  1  0.38205809  0.75053211  0.74398429  1
  O  O391  1  0.87978271  0.24350541  0.24243626  1
  O  O392  1  0.88308290  0.24568168  0.74465438  1
  O  O393  1  0.87731783  0.73819366  0.24497110  1
  O  O394  1  0.87748920  0.74346102  0.74360679  1
  O  O395  1  0.38724792  0.49908700  0.50671757  1
  O  O396  1  0.38064324  0.49233833  0.99226489  1
  O  O397  1  0.38231312  0.98823151  0.50583301  1
  O  O398  1  0.37775028  0.98736066  0.99550082  1
  O  O399  1  0.88011586  0.49303501  0.49831915  1
  O  O400  1  0.87789048  0.50317213  0.98519955  1
  O  O401  1  0.87944424  0.99555628  0.48894598  1
  O  O402  1  0.86858442  0.99125326  0.99345174  1
  O  O403  1  0.13137707  0.01060120  0.00784397  1
  O  O404  1  0.13106626  0.01200320  0.50192037  1
  O  O405  1  0.12113898  0.50886945  0.00255125  1
  O  O406  1  0.11523494  0.49394737  0.51058504  1
  O  O407  1  0.62875379  -0.00304416  0.00887902  1
  O  O408  1  0.61551959  -0.00540457  0.51163347  1
  O  O409  1  0.61661642  0.50643472  -0.00764018  1
  O  O410  1  0.61686739  0.50158574  0.50537338  1
  O  O411  1  0.36761406  0.37177589  0.11323795  1
  O  O412  1  0.37878186  0.36197526  0.62047692  1
  O  O413  1  0.37984119  0.87994604  0.11244985  1
  O  O414  1  0.37371696  0.86672473  0.61862310  1
  O  O415  1  0.87464169  0.36331390  0.12791831  1
  O  O416  1  0.87864169  0.37442920  0.61402590  1
  O  O417  1  0.86676195  0.87271132  0.12175819  1
  O  O418  1  0.87227140  0.86137747  0.63388240  1
  O  O419  1  0.12861336  0.12638860  0.38788540  1
  O  O420  1  0.13068000  0.12192702  0.88494563  1
  O  O421  1  0.13703272  0.63579785  0.37056353  1
  O  O422  1  0.12659579  0.62479704  0.88421651  1
  O  O423  1  0.63860705  0.13708481  0.36878559  1
  O  O424  1  0.63879872  0.13534563  0.86994069  1
  O  O425  1  0.63446770  0.63302558  0.37284008  1
  O  O426  1  0.63116303  0.62693466  0.88558649  1
