# generated using pymatgen
data_V85Zn86O256
_symmetry_space_group_name_H-M   'P 1'
_cell_length_a   16.93950452
_cell_length_b   16.92965682
_cell_length_c   16.93160226
_cell_angle_alpha   90.01817736
_cell_angle_beta   90.07780033
_cell_angle_gamma   89.96228182
_symmetry_Int_Tables_number   1
_chemical_formula_structural   V85Zn86O256
_chemical_formula_sum   'V85 Zn86 O256'
_cell_volume   4855.63909408
_cell_formula_units_Z   1
loop_
 _symmetry_equiv_pos_site_id
 _symmetry_equiv_pos_as_xyz
  1  'x, y, z'
loop_
 _atom_site_type_symbol
 _atom_site_label
 _atom_site_symmetry_multiplicity
 _atom_site_fract_x
 _atom_site_fract_y
 _atom_site_fract_z
 _atom_site_occupancy
  V  V0  1  0.24980287  0.36632382  0.12022301  1
  V  V1  1  0.24998046  0.49870016  0.24859830  1
  V  V2  1  0.50346151  0.25096100  0.74790597  1
  V  V3  1  0.37729839  0.49900379  0.37324168  1
  V  V4  1  0.75358730  0.23378675  0.49215444  1
  V  V5  1  0.86982430  0.49909816  0.86644185  1
  V  V6  1  0.50347168  0.36668941  0.36756803  1
  V  V7  1  0.87561750  0.62392738  0.26040800  1
  V  V8  1  0.25478032  0.76482106  0.50283960  1
  V  V9  1  -0.00148976  0.88336346  0.37307542  1
  V  V10  1  0.24458142  0.63398029  0.87503105  1
  V  V11  1  0.12255994  0.01835830  0.11741987  1
  V  V12  1  0.12834694  0.24802462  0.88423987  1
  V  V13  1  0.37488882  -0.00121008  0.87684491  1
  V  V14  1  0.11804718  0.37096743  0.24865370  1
  V  V15  1  0.62743872  0.23465484  0.37362339  1
  V  V16  1  0.37687897  0.50131994  0.87605034  1
  V  V17  1  0.50012055  0.86925186  0.38613654  1
  V  V18  1  0.50286527  0.13256478  0.13132630  1
  V  V19  1  0.87497565  0.11953906  0.75484503  1
  V  V20  1  0.74589748  0.75058911  -0.00631738  1
  V  V21  1  0.12670543  0.37240480  0.74869223  1
  V  V22  1  0.75142163  0.87808676  0.12985853  1
  V  V23  1  0.49557125  0.62176792  0.62666911  1
  V  V24  1  -0.00414057  0.38092938  0.37495275  1
  V  V25  1  0.75030229  -0.00300545  0.75821332  1
  V  V26  1  0.62698125  0.62668060  0.49812181  1
  V  V27  1  0.12465456  -0.00497358  0.62532539  1
  V  V28  1  0.62899110  0.36817138  0.24521832  1
  V  V29  1  -0.00039174  0.01273566  -0.00637062  1
  V  V30  1  0.24424526  0.75871654  0.00801442  1
  V  V31  1  0.38246623  0.62590915  0.23790134  1
  V  V32  1  0.00339814  0.63074014  0.63469656  1
  V  V33  1  0.63271926  0.50059123  0.12523581  1
  V  V34  1  0.37822950  0.12856393  0.25151302  1
  V  V35  1  0.00461919  0.86227911  0.87276166  1
  V  V36  1  0.25390080  -0.00638924  0.24226016  1
  V  V37  1  0.62113482  0.63030262  0.00165821  1
  V  V38  1  0.74755270  0.87352478  0.62603459  1
  V  V39  1  0.89048239  0.24465300  0.13675899  1
  V  V40  1  0.86423546  0.38162357  0.49229306  1
  V  V41  1  0.63056083  0.00133530  0.13508949  1
  V  V42  1  0.00144850  0.25124633  0.74481392  1
  V  V43  1  0.87539306  0.74840955  0.12276547  1
  V  V44  1  0.37426071  0.36633507  -0.00136920  1
  V  V45  1  0.12231864  0.12500392  0.50120223  1
  V  V46  1  0.75016221  0.25212829  0.01456120  1
  V  V47  1  0.24794096  0.12890222  0.88919475  1
  V  V48  1  0.37611126  0.37327592  0.49710997  1
  V  V49  1  0.37750753  -0.00718481  0.38772372  1
  V  V50  1  0.87771783  0.88057401  0.50079185  1
  V  V51  1  -0.00651329  0.12520065  0.62395274  1
  V  V52  1  0.24845586  0.12251429  0.37342038  1
  V  V53  1  -0.00231486  0.49990831  -0.00191143  1
  V  V54  1  0.81836503  0.30361983  0.66202887  1
  V  V55  1  0.25099038  0.37330366  0.62303401  1
  V  V56  1  0.12642978  0.87475042  0.23579039  1
  V  V57  1  0.62822216  0.25010260  0.87594354  1
  V  V58  1  0.49962248  0.50254975  0.00823923  1
  V  V59  1  0.88381186  0.10563672  0.25634269  1
  V  V60  1  0.87742605  0.87904792  -0.00729997  1
  V  V61  1  0.75263004  0.49905887  0.25883747  1
  V  V62  1  0.25233858  0.49933104  0.75080285  1
  V  V63  1  0.87871727  0.75138916  0.63317211  1
  V  V64  1  0.50246955  0.49634354  0.50055295  1
  V  V65  1  0.50639200  0.11739021  0.61078227  1
  V  V66  1  0.37582693  0.76672642  0.62377984  1
  V  V67  1  0.24748865  0.24975375  0.50000267  1
  V  V68  1  0.50624931  0.86745043  0.87709488  1
  V  V69  1  0.12607731  0.49997819  0.62150601  1
  V  V70  1  0.12518125  0.62714115  0.49945984  1
  V  V71  1  -0.00181951  0.62376296  0.12441996  1
  V  V72  1  0.50160472  0.00082630  0.00257271  1
  V  V73  1  0.12501111  0.86433485  0.75182488  1
  V  V74  1  0.62828678  0.12577602  0.00150494  1
  V  V75  1  0.37486683  0.12695560  0.74912823  1
  V  V76  1  0.86948867  0.37697850  0.00872023  1
  V  V77  1  0.25273743  0.62569078  0.37496132  1
  V  V78  1  0.11559019  0.24718976  0.37143544  1
  V  V79  1  -0.00042944  0.74956828  0.24863001  1
  V  V80  1  0.74418334  0.62360279  0.86611934  1
  V  V81  1  0.63695376  0.49468039  0.63255398  1
  V  V82  1  0.12738959  0.75309406  0.37337326  1
  V  V83  1  0.24692816  -0.00304595  0.74829211  1
  V  V84  1  0.12406577  0.49943558  0.12309756  1
  Zn  Zn85  1  0.36905661  0.87923731  0.00839825  1
  Zn  Zn86  1  0.75132128  0.75073663  0.49856332  1
  Zn  Zn87  1  0.37610530  0.62766150  0.75082295  1
  Zn  Zn88  1  0.62787622  0.74932654  0.36919882  1
  Zn  Zn89  1  0.75688145  0.11912240  0.88149164  1
  Zn  Zn90  1  -0.00834493  0.50603734  0.49639159  1
  Zn  Zn91  1  0.50394321  0.74516776  0.75516161  1
  Zn  Zn92  1  0.62755152  0.86764689  0.75479728  1
  Zn  Zn93  1  0.12115961  0.62817066  -0.00554935  1
  Zn  Zn94  1  0.62153011  0.87407959  0.25135850  1
  Zn  Zn95  1  0.64268954  0.37416947  0.74644389  1
  Zn  Zn96  1  -0.00288882  0.00462769  0.49446166  1
  Zn  Zn97  1  0.50451512  0.75177556  0.24000561  1
  Zn  Zn98  1  0.37807306  0.24907860  0.62250475  1
  Zn  Zn99  1  0.37484787  0.24798990  0.12564636  1
  Zn  Zn100  1  0.62124414  -0.00256820  0.62595402  1
  Zn  Zn101  1  0.75748423  0.08282788  0.36407930  1
  Zn  Zn102  1  0.75267018  0.63560428  0.37422772  1
  Zn  Zn103  1  0.00101001  0.37569949  0.87369692  1
  Zn  Zn104  1  0.50597097  0.37799111  0.87296051  1
  Zn  Zn105  1  0.87357827  0.62449655  0.74921996  1
  Zn  Zn106  1  0.37442373  0.76790784  0.12697385  1
  Zn  Zn107  1  0.18783056  0.18757171  0.18918222  1
  Zn  Zn108  1  0.18706060  0.18370598  0.68947379  1
  Zn  Zn109  1  0.18828307  0.68449697  0.18517971  1
  Zn  Zn110  1  0.19488438  0.68722907  0.68509092  1
  Zn  Zn111  1  0.69660564  0.18274101  0.19464023  1
  Zn  Zn112  1  0.68452988  0.18007141  0.69082325  1
  Zn  Zn113  1  0.68785014  0.68952170  0.18553741  1
  Zn  Zn114  1  0.68209502  0.69186280  0.68721583  1
  Zn  Zn115  1  0.30770108  0.31099219  0.31207480  1
  Zn  Zn116  1  0.31311390  0.31183883  0.81416080  1
  Zn  Zn117  1  0.31360394  0.81295029  0.31108278  1
  Zn  Zn118  1  0.31593406  0.81448061  0.81107508  1
  Zn  Zn119  1  0.80900553  0.31211152  0.31139967  1
  Zn  Zn120  1  0.81467981  0.30833558  0.82986546  1
  Zn  Zn121  1  0.78196516  0.86518716  0.34344356  1
  Zn  Zn122  1  0.81531617  0.81120557  0.81364732  1
  Zn  Zn123  1  0.18551979  0.43802281  0.43549865  1
  Zn  Zn124  1  0.18796183  0.43705462  0.93650537  1
  Zn  Zn125  1  0.18393901  0.94000431  0.43257533  1
  Zn  Zn126  1  0.18244320  0.93998279  0.93483070  1
  Zn  Zn127  1  0.68575410  0.43753483  0.43560135  1
  Zn  Zn128  1  0.68784486  0.43736063  0.93699149  1
  Zn  Zn129  1  0.66937202  0.95290006  0.45018772  1
  Zn  Zn130  1  0.68755875  0.93897642  0.94199406  1
  Zn  Zn131  1  0.31418518  0.05866468  0.06693951  1
  Zn  Zn132  1  0.31071148  0.06332728  0.56634849  1
  Zn  Zn133  1  0.30782077  0.55921943  0.05819853  1
  Zn  Zn134  1  0.31274806  0.56358322  0.55977796  1
  Zn  Zn135  1  0.81808116  0.06500942  0.06802649  1
  Zn  Zn136  1  0.81128538  0.05840378  0.56767666  1
  Zn  Zn137  1  0.80889368  0.56359151  0.06274171  1
  Zn  Zn138  1  0.81216042  0.56513581  0.56223476  1
  Zn  Zn139  1  0.43994874  0.43705783  0.18613506  1
  Zn  Zn140  1  0.43927904  0.43564040  0.68712745  1
  Zn  Zn141  1  0.43969326  0.93460603  0.18937478  1
  Zn  Zn142  1  0.43789005  0.93903377  0.69317937  1
  Zn  Zn143  1  0.93383444  0.43677311  0.18797031  1
  Zn  Zn144  1  0.94294340  0.44347601  0.68435572  1
  Zn  Zn145  1  0.94372861  0.93573700  0.17796818  1
  Zn  Zn146  1  0.93860328  0.93886999  0.69087591  1
  Zn  Zn147  1  0.05908821  0.06440697  0.30353801  1
  Zn  Zn148  1  0.06292275  0.06243652  0.81604411  1
  Zn  Zn149  1  0.06313254  0.56123282  0.31260685  1
  Zn  Zn150  1  0.06405267  0.55970642  0.81225830  1
  Zn  Zn151  1  0.55794633  0.05639910  0.31698965  1
  Zn  Zn152  1  0.56525511  0.06127838  0.81098313  1
  Zn  Zn153  1  0.56368959  0.56075319  0.31300889  1
  Zn  Zn154  1  0.56353499  0.56275358  0.81317478  1
  Zn  Zn155  1  0.43560573  0.18874975  0.43235260  1
  Zn  Zn156  1  0.44112051  0.18566871  0.93565704  1
  Zn  Zn157  1  0.43833377  0.68831813  0.43873325  1
  Zn  Zn158  1  0.43151566  0.68673029  0.94756981  1
  Zn  Zn159  1  0.93163864  0.18892250  0.43264491  1
  Zn  Zn160  1  0.93852541  0.19444275  0.93610972  1
  Zn  Zn161  1  0.93941938  0.69826839  0.44060634  1
  Zn  Zn162  1  0.93291207  0.68592387  0.93540894  1
  Zn  Zn163  1  0.05989364  0.31440173  0.06119126  1
  Zn  Zn164  1  0.05695276  0.31343805  0.55958795  1
  Zn  Zn165  1  0.06365730  0.81151019  0.05649814  1
  Zn  Zn166  1  0.06356220  0.81306643  0.56300684  1
  Zn  Zn167  1  0.56115350  0.31549588  0.06307196  1
  Zn  Zn168  1  0.56876898  0.30821576  0.56011188  1
  Zn  Zn169  1  0.55921078  0.81161997  0.06705669  1
  Zn  Zn170  1  0.56104066  0.81282241  0.56452500  1
  O  O171  1  0.12311016  0.11672866  0.12575339  1
  O  O172  1  0.11512450  0.11688323  0.62236843  1
  O  O173  1  0.11590831  0.61631855  0.12297170  1
  O  O174  1  0.12202311  0.62283524  0.61793299  1
  O  O175  1  0.62186588  0.12082300  0.12299276  1
  O  O176  1  0.60824912  0.12579553  0.62755403  1
  O  O177  1  0.63019104  0.61579038  0.11109984  1
  O  O178  1  0.61400075  0.61412803  0.62014320  1
  O  O179  1  0.38278156  0.37712260  0.37568355  1
  O  O180  1  0.37391829  0.38543166  0.88237804  1
  O  O181  1  0.37901685  0.88659229  0.37192128  1
  O  O182  1  0.38088916  0.88855570  0.87900506  1
  O  O183  1  0.88131634  0.37219392  0.38392819  1
  O  O184  1  0.87863095  0.38228467  0.88812756  1
  O  O185  1  0.88947392  0.86642167  0.38767807  1
  O  O186  1  0.88635392  0.87311835  0.88509484  1
  O  O187  1  0.25638544  0.00415658  0.36560357  1
  O  O188  1  0.25642482  0.00821972  0.87118139  1
  O  O189  1  0.25610659  0.50336972  0.36821436  1
  O  O190  1  0.25751102  0.50730983  0.87120180  1
  O  O191  1  0.74718176  -0.02927288  0.37532503  1
  O  O192  1  0.74751658  -0.00004122  0.86425911  1
  O  O193  1  0.74460712  0.50647848  0.36154943  1
  O  O194  1  0.75912712  0.50957660  0.88155393  1
  O  O195  1  0.24303795  0.49019993  0.12918450  1
  O  O196  1  0.24578349  0.49538338  0.62986622  1
  O  O197  1  0.23533324  1.00430202  0.13061277  1
  O  O198  1  0.23940361  1.00659196  0.63691870  1
  O  O199  1  0.73810503  0.50137838  0.13200491  1
  O  O200  1  0.73532440  0.50475537  0.62538220  1
  O  O201  1  0.74197388  0.99109375  0.11440041  1
  O  O202  1  0.75033793  0.99050909  0.63795951  1
  O  O203  1  0.01086001  0.38048555  0.25626388  1
  O  O204  1  0.00682157  0.36774395  0.74776838  1
  O  O205  1  0.00655941  0.86925368  0.25375798  1
  O  O206  1  0.00713933  0.88091883  0.76562539  1
  O  O207  1  0.50819864  0.37874858  0.26104470  1
  O  O208  1  0.49817771  0.35907184  0.75144034  1
  O  O209  1  0.50095257  0.87435547  0.26329272  1
  O  O210  1  0.49863175  0.87697118  0.76888773  1
  O  O211  1  0.49087843  0.11828505  0.24292226  1
  O  O212  1  0.49239360  0.13471817  0.74950394  1
  O  O213  1  0.48420196  0.62260912  0.25396727  1
  O  O214  1  0.49601237  0.62375703  0.74178891  1
  O  O215  1  0.98427518  0.12981139  0.25102368  1
  O  O216  1  0.99457025  0.13120420  0.74523559  1
  O  O217  1  0.99536187  0.62699125  0.24418027  1
  O  O218  1  1.00130297  0.62103344  0.73791779  1
  O  O219  1  0.38144368  0.26313045  -0.00141797  1
  O  O220  1  0.36472940  0.25627447  0.49724104  1
  O  O221  1  0.35790433  0.75353097  0.00228645  1
  O  O222  1  0.36732082  0.74467882  0.51315333  1
  O  O223  1  0.86923401  0.25700152  0.00693523  1
  O  O224  1  0.86097721  0.26014673  0.49865901  1
  O  O225  1  0.86994142  0.75752945  0.00451150  1
  O  O226  1  0.87630886  0.76137571  0.51349497  1
  O  O227  1  0.12865683  0.24526702  0.49296284  1
  O  O228  1  0.11947274  0.25790262  0.98321342  1
  O  O229  1  0.13339475  0.74378386  0.49657428  1
  O  O230  1  0.13820772  0.74506730  0.99971044  1
  O  O231  1  0.64341195  0.25287578  0.48955130  1
  O  O232  1  0.63147201  0.24766482  0.99653999  1
  O  O233  1  0.62315150  0.73417999  0.50441576  1
  O  O234  1  0.63353409  0.74248120  1.00320130  1
  O  O235  1  0.49935171  0.23605401  0.12135137  1
  O  O236  1  0.49999231  0.24134652  0.63156705  1
  O  O237  1  0.48817177  0.75197576  0.12615766  1
  O  O238  1  0.48750514  0.74119765  0.62361900  1
  O  O239  1  0.98849624  0.25070581  0.12204011  1
  O  O240  1  1.00734144  0.24133192  0.63629222  1
  O  O241  1  0.99675816  0.74331864  0.12669310  1
  O  O242  1  0.99456198  0.74077764  0.62109873  1
  O  O243  1  0.01051904  0.26103006  0.38081075  1
  O  O244  1  0.00699764  0.25305035  0.86111733  1
  O  O245  1  0.00970679  0.75799223  0.36728260  1
  O  O246  1  -0.00028202  0.76270668  0.87973355  1
  O  O247  1  0.51249114  0.25600102  0.37918426  1
  O  O248  1  0.51316276  0.25077585  0.86983114  1
  O  O249  1  0.49524883  0.76073875  0.36968161  1
  O  O250  1  0.48838593  0.76606285  0.88083618  1
  O  O251  1  0.24239984  0.13055012  0.49435197  1
  O  O252  1  0.25898499  0.12446521  0.98805107  1
  O  O253  1  0.24046322  0.63006266  0.49433947  1
  O  O254  1  0.24742296  0.63102300  0.98859062  1
  O  O255  1  0.76187764  0.13161953  0.49094224  1
  O  O256  1  0.74723734  0.13260008  1.00102822  1
  O  O257  1  0.74194829  0.62666829  0.49569710  1
  O  O258  1  0.74381435  0.63348171  0.99356473  1
  O  O259  1  0.26028047  0.38252750  0.00938056  1
  O  O260  1  0.25390076  0.36953602  0.50277461  1
  O  O261  1  0.24664130  0.86089596  -0.01000740  1
  O  O262  1  0.24267821  0.86350686  0.49591111  1
  O  O263  1  0.75845187  0.36601273  -0.00285571  1
  O  O264  1  0.76113265  0.36978486  0.49535533  1
  O  O265  1  0.75924380  0.86911567  0.00152573  1
  O  O266  1  0.75981364  0.87437235  0.51646989  1
  O  O267  1  0.13052440  0.49202993  0.24419448  1
  O  O268  1  0.13174033  0.49193034  0.74287856  1
  O  O269  1  0.12913459  0.99533458  0.23651699  1
  O  O270  1  0.13085380  0.99591628  0.74460489  1
  O  O271  1  0.63126372  0.49556660  0.24258001  1
  O  O272  1  0.62169141  0.49458088  0.73709746  1
  O  O273  1  0.62282806  0.99832557  0.23782957  1
  O  O274  1  0.63427976  0.99419419  0.74607569  1
  O  O275  1  0.36551474  0.00895898  0.25543662  1
  O  O276  1  0.36687661  0.00645746  0.75778914  1
  O  O277  1  0.37068381  0.50632937  0.25401664  1
  O  O278  1  0.36985312  0.49852562  0.75958586  1
  O  O279  1  0.88266884  0.00588012  0.24267933  1
  O  O280  1  0.86772900  0.00958848  0.74908632  1
  O  O281  1  0.86492560  0.51017715  0.24295968  1
  O  O282  1  0.87886336  0.49877483  0.76279021  1
  O  O283  1  0.11930140  0.36767618  0.36784269  1
  O  O284  1  0.12549185  0.36953601  0.86439352  1
  O  O285  1  0.11887069  0.86988227  0.36334207  1
  O  O286  1  0.11361969  0.87517134  0.86743577  1
  O  O287  1  0.61911703  0.36785023  0.36624033  1
  O  O288  1  0.62716389  0.36656217  0.86795609  1
  O  O289  1  0.60793458  0.87362496  0.37646840  1
  O  O290  1  0.60879902  0.87947851  0.87965013  1
  O  O291  1  0.38386564  0.12543359  0.13295410  1
  O  O292  1  0.38032923  0.12722480  0.63671196  1
  O  O293  1  0.36873674  0.61747918  0.13837923  1
  O  O294  1  0.38705989  0.62245101  0.62548314  1
  O  O295  1  0.87518512  0.13835774  0.13595640  1
  O  O296  1  0.88722104  0.12236505  0.63380860  1
  O  O297  1  0.88188259  0.62907959  0.12836339  1
  O  O298  1  0.88530242  0.63091339  0.62540226  1
  O  O299  1  0.25123135  0.26254363  0.12759054  1
  O  O300  1  0.25014082  0.25331817  0.61697718  1
  O  O301  1  0.25103490  0.74630335  0.11106950  1
  O  O302  1  0.26686661  0.74626183  0.61714086  1
  O  O303  1  0.75724086  0.24888700  0.11654104  1
  O  O304  1  0.74890826  0.24093335  0.61180078  1
  O  O305  1  0.75714823  0.75568194  0.11194512  1
  O  O306  1  0.75937061  0.75591110  0.62352141  1
  O  O307  1  0.23816617  0.24405601  0.38099508  1
  O  O308  1  0.24109360  0.24108090  0.86896920  1
  O  O309  1  0.24660169  0.74517466  0.38184268  1
  O  O310  1  0.25699353  0.73663551  0.87885816  1
  O  O311  1  0.74468293  0.24877988  0.38411427  1
  O  O312  1  0.73957021  0.24424719  0.88697557  1
  O  O313  1  0.74580918  0.75774011  0.38135607  1
  O  O314  1  0.75703075  0.74154405  0.88683729  1
  O  O315  1  -0.00470114  0.11183517  -0.00799337  1
  O  O316  1  0.00282163  0.12690633  0.50729873  1
  O  O317  1  -0.00127135  0.61483122  0.00348183  1
  O  O318  1  0.01284796  0.62676265  0.50288642  1
  O  O319  1  0.50560790  0.11670483  0.00661243  1
  O  O320  1  0.48955510  0.12942203  0.51384713  1
  O  O321  1  0.50850499  0.61521654  -0.00568133  1
  O  O322  1  0.50546420  0.61591123  0.50543341  1
  O  O323  1  0.49661720  0.37640073  0.49023424  1
  O  O324  1  0.49256366  0.38387643  0.99677902  1
  O  O325  1  0.49481513  0.86753874  0.48623508  1
  O  O326  1  0.49874495  0.88834517  0.99231272  1
  O  O327  1  0.98710124  0.37620420  0.49219668  1
  O  O328  1  0.99261303  0.38743227  0.99810827  1
  O  O329  1  0.99707516  0.87634370  0.49061339  1
  O  O330  1  0.99608173  0.88048665  0.99018432  1
  O  O331  1  0.49677011  0.48957101  0.38132055  1
  O  O332  1  0.49175353  0.49790105  0.88293246  1
  O  O333  1  0.48438812  0.98965877  0.37554349  1
  O  O334  1  0.49287281  0.99784037  0.88253507  1
  O  O335  1  1.00723974  0.48572755  0.37910161  1
  O  O336  1  0.99218811  0.49974980  0.88267729  1
  O  O337  1  1.01068614  0.98696856  0.37518059  1
  O  O338  1  1.00713183  0.99142531  0.88966677  1
  O  O339  1  0.01482132  -0.00289667  0.11023652  1
  O  O340  1  0.00784703  0.00929611  0.62488746  1
  O  O341  1  0.00297927  0.50374847  0.11754917  1
  O  O342  1  0.00873655  0.51088679  0.61773453  1
  O  O343  1  0.50931661  0.00916610  0.11780511  1
  O  O344  1  0.49538561  0.01580271  0.63339223  1
  O  O345  1  0.50973290  0.49705264  0.11443764  1
  O  O346  1  0.50379891  0.50444264  0.61777083  1
  O  O347  1  0.24073763  0.38061376  0.24408745  1
  O  O348  1  0.24681472  0.37879709  0.74252901  1
  O  O349  1  0.24055666  0.88653557  0.25516565  1
  O  O350  1  0.24170809  0.88896813  0.76058253  1
  O  O351  1  0.74060292  0.38526235  0.25305100  1
  O  O352  1  0.76140091  0.35392244  0.73607891  1
  O  O353  1  0.74963980  0.86889334  0.23107902  1
  O  O354  1  0.75343737  0.88020219  0.74419179  1
  O  O355  1  0.25385701  0.11442503  0.25531701  1
  O  O356  1  0.25872708  0.11699863  0.75628880  1
  O  O357  1  0.25521905  0.61663741  0.25566675  1
  O  O358  1  0.25364060  0.61931914  0.75997723  1
  O  O359  1  0.77299023  0.12624469  0.25451536  1
  O  O360  1  0.75853026  0.11610375  0.75101656  1
  O  O361  1  0.76027216  0.62003175  0.25036270  1
  O  O362  1  0.74906718  0.62865969  0.76315755  1
  O  O363  1  0.37076122  0.11427080  0.36949841  1
  O  O364  1  0.37193747  0.11788070  0.86667137  1
  O  O365  1  0.36935207  0.61761435  0.36952983  1
  O  O366  1  0.36598214  0.61452175  0.87614237  1
  O  O367  1  0.87547979  0.11836207  0.36331166  1
  O  O368  1  0.87411800  0.13692200  0.85879092  1
  O  O369  1  0.87937320  0.63178625  0.36337286  1
  O  O370  1  0.86641627  0.61607545  0.87235459  1
  O  O371  1  0.12954162  0.37794337  0.13106734  1
  O  O372  1  0.13044042  0.37920022  0.62761987  1
  O  O373  1  0.12083975  0.87882864  0.13391697  1
  O  O374  1  0.11692255  0.88874284  0.63321796  1
  O  O375  1  0.61903870  0.38210361  0.13773137  1
  O  O376  1  0.62229621  0.38959133  0.62504777  1
  O  O377  1  0.63459529  0.88553951  0.11992217  1
  O  O378  1  0.63532657  0.87310284  0.62872450  1
  O  O379  1  0.12956551  0.25922279  0.25919780  1
  O  O380  1  0.11857596  0.25511577  0.75362413  1
  O  O381  1  0.12200703  0.75652869  0.25145062  1
  O  O382  1  0.13328061  0.76553787  0.74027649  1
  O  O383  1  0.63474497  0.25887337  0.25846790  1
  O  O384  1  0.62056370  0.25077213  0.75819691  1
  O  O385  1  0.62219961  0.75324972  0.25046763  1
  O  O386  1  0.61677969  0.75356692  0.75204936  1
  O  O387  1  0.36738752  0.23325258  0.25156403  1
  O  O388  1  0.38256136  0.24192013  0.75044721  1
  O  O389  1  0.36792795  0.73337287  0.24732941  1
  O  O390  1  0.37809983  0.74879973  0.73665012  1
  O  O391  1  0.87709493  0.25901909  0.23645318  1
  O  O392  1  0.87983142  0.24964231  0.74014483  1
  O  O393  1  0.88588881  0.73879961  0.23741090  1
  O  O394  1  0.87550747  0.74694086  0.73787551  1
  O  O395  1  0.38044007  0.49254191  0.49238569  1
  O  O396  1  0.38243124  0.49375799  0.99559396  1
  O  O397  1  0.36408012  1.00200444  0.48525416  1
  O  O398  1  0.38414387  1.00325530  0.99241398  1
  O  O399  1  0.87314592  0.48609699  0.50193040  1
  O  O400  1  0.87927087  0.49451446  0.99628701  1
  O  O401  1  0.88058770  0.98547919  0.50937054  1
  O  O402  1  0.89039954  0.99260366  1.00694623  1
  O  O403  1  0.11792894  0.00019671  0.00996072  1
  O  O404  1  0.12390407  0.00729978  0.50810462  1
  O  O405  1  0.11464551  0.50015705  0.00438065  1
  O  O406  1  0.12642180  0.51029296  0.50463962  1
  O  O407  1  0.61833892  0.00804197  0.00683174  1
  O  O408  1  0.60879724  0.01059873  0.51592378  1
  O  O409  1  0.61894036  0.50221167  0.00789524  1
  O  O410  1  0.62100969  0.50676517  0.50722988  1
  O  O411  1  0.36812695  0.37241315  0.11905786  1
  O  O412  1  0.36859937  0.37210720  0.61635230  1
  O  O413  1  0.36676940  0.88458255  0.12254848  1
  O  O414  1  0.37973749  0.86539388  0.62571777  1
  O  O415  1  0.87857614  0.36613316  0.11448809  1
  O  O416  1  0.87940093  0.37376748  0.61306719  1
  O  O417  1  0.87124592  0.86881419  0.11289938  1
  O  O418  1  0.87340761  0.86823981  0.62355198  1
  O  O419  1  0.12652678  0.13104216  0.37777903  1
  O  O420  1  0.13616066  0.13467402  0.86941042  1
  O  O421  1  0.13065408  0.63160269  0.38038306  1
  O  O422  1  0.14082494  0.61878482  0.87458560  1
  O  O423  1  0.63160716  0.13191598  0.36422506  1
  O  O424  1  0.62704653  0.13241072  0.88362527  1
  O  O425  1  0.62460584  0.62675646  0.38464982  1
  O  O426  1  0.63362909  0.61562547  0.88891118  1
