# generated using pymatgen
data_V85Zn86O256
_symmetry_space_group_name_H-M   'P 1'
_cell_length_a   16.97076422
_cell_length_b   16.98254487
_cell_length_c   16.97769834
_cell_angle_alpha   90.01709764
_cell_angle_beta   89.96205654
_cell_angle_gamma   90.00186581
_symmetry_Int_Tables_number   1
_chemical_formula_structural   V85Zn86O256
_chemical_formula_sum   'V85 Zn86 O256'
_cell_volume   4893.08621972
_cell_formula_units_Z   1
loop_
 _symmetry_equiv_pos_site_id
 _symmetry_equiv_pos_as_xyz
  1  'x, y, z'
loop_
 _atom_site_type_symbol
 _atom_site_label
 _atom_site_symmetry_multiplicity
 _atom_site_fract_x
 _atom_site_fract_y
 _atom_site_fract_z
 _atom_site_occupancy
  V  V0  1  0.12552050  0.87069831  0.25346509  1
  V  V1  1  0.36718195  0.62081463  0.75153388  1
  V  V2  1  -0.00877958  0.37381143  0.87429077  1
  V  V3  1  0.87119178  0.37863506  0.00796241  1
  V  V4  1  0.37600443  0.87173921  0.50461903  1
  V  V5  1  0.00611020  0.13012882  0.12483588  1
  V  V6  1  0.75065900  0.12745406  0.87728632  1
  V  V7  1  -0.00723076  0.50304560  -0.00680436  1
  V  V8  1  0.25273691  0.38553354  0.62824639  1
  V  V9  1  0.25060606  0.25750737  0.50370791  1
  V  V10  1  0.75594641  0.24662587  0.50445092  1
  V  V11  1  0.50167875  0.12516278  0.62530076  1
  V  V12  1  0.49746405  0.87442529  0.87284567  1
  V  V13  1  0.00599800  0.00453767  0.51457722  1
  V  V14  1  0.37020856  0.86758834  0.00187501  1
  V  V15  1  0.57907961  -0.04496009  0.17619653  1
  V  V16  1  0.00323563  0.75021836  0.75478724  1
  V  V17  1  0.00309618  0.00259615  -0.00128910  1
  V  V18  1  0.62980087  0.61646333  -0.01397532  1
  V  V19  1  0.75473157  0.36871550  0.62844620  1
  V  V20  1  0.11932616  0.62592780  0.49889082  1
  V  V21  1  0.26080384  0.50559847  0.24581248  1
  V  V22  1  0.87406068  0.86905971  0.50089207  1
  V  V23  1  0.24788864  0.85894459  0.11850529  1
  V  V24  1  0.88136670  -0.00056883  0.87224882  1
  V  V25  1  0.74898509  0.25300351  0.01018449  1
  V  V26  1  0.37567898  0.25749427  0.62549757  1
  V  V27  1  0.37534615  0.49369096  0.38315658  1
  V  V28  1  0.61691640  0.36459642  0.24547588  1
  V  V29  1  0.75175513  0.48475496  0.25235113  1
  V  V30  1  0.88067678  0.12830083  0.25144054  1
  V  V31  1  0.62556596  0.49800005  0.62517457  1
  V  V32  1  0.37519320  0.11931273  0.74994378  1
  V  V33  1  0.24689243  0.12460807  0.37933829  1
  V  V34  1  0.00186606  0.37828651  0.37639401  1
  V  V35  1  0.00602015  0.87347026  0.37848176  1
  V  V36  1  0.75197844  0.86415293  0.62372286  1
  V  V37  1  0.87801604  0.12949126  0.73816203  1
  V  V38  1  0.49774407  0.74662604  0.75377897  1
  V  V39  1  0.49883062  0.62330906  0.62715177  1
  V  V40  1  0.75319812  0.88416946  0.12298627  1
  V  V41  1  0.23505125  0.87478211  0.62483864  1
  V  V42  1  -0.00072145  0.75022996  0.25302493  1
  V  V43  1  0.75398854  -0.00200884  0.24885124  1
  V  V44  1  0.62035978  0.25116275  0.37938463  1
  V  V45  1  0.12953789  0.38265257  0.24680818  1
  V  V46  1  0.87892521  -0.00045204  0.37808954  1
  V  V47  1  -0.00144561  0.62291494  0.12584375  1
  V  V48  1  0.13157490  0.37969967  0.75354613  1
  V  V49  1  0.62610274  -0.00125130  0.62496461  1
  V  V50  1  0.35838322  0.48941168  0.87256740  1
  V  V51  1  0.50400429  0.00237186  -0.00387544  1
  V  V52  1  0.87932833  0.37263041  0.50560249  1
  V  V53  1  0.87002037  0.75071540  0.12727939  1
  V  V54  1  0.61213700  0.54138423  0.15809454  1
  V  V55  1  0.75087141  0.75239827  -0.00407088  1
  V  V56  1  0.62244853  0.75821418  0.37106348  1
  V  V57  1  0.24449223  -0.00106391  0.74568651  1
  V  V58  1  0.76643805  0.61648127  0.87248114  1
  V  V59  1  0.12927864  0.25008693  0.37440495  1
  V  V60  1  0.50045442  -0.00420648  0.49858080  1
  V  V61  1  0.75312985  -0.00105483  0.74989355  1
  V  V62  1  0.86723471  0.62319223  0.25207183  1
  V  V63  1  0.48024513  0.51756151  0.00713897  1
  V  V64  1  0.12394160  0.63661745  -0.00375677  1
  V  V65  1  0.88570348  0.61784541  0.73996813  1
  V  V66  1  0.62542150  0.87382428  0.74906586  1
  V  V67  1  0.11891472  0.87401990  0.76893319  1
  V  V68  1  -0.00608191  0.25095108  0.73440959  1
  V  V69  1  0.38141120  0.12705149  0.25231502  1
  V  V70  1  0.11798974  0.50550087  0.62732017  1
  V  V71  1  0.62903038  0.63295197  0.50630256  1
  V  V72  1  0.50169677  0.25020220  0.75249378  1
  V  V73  1  0.24075839  0.75101751  0.49846401  1
  V  V74  1  0.62494903  0.37502068  0.75284286  1
  V  V75  1  0.50129649  0.13325265  0.12859770  1
  V  V76  1  0.24283004  0.64120510  0.87592349  1
  V  V77  1  0.25334142  0.62991508  0.37311159  1
  V  V78  1  0.24879392  0.00032059  0.24675127  1
  V  V79  1  0.49855032  0.37816359  0.88700958  1
  V  V80  1  0.75258163  0.12455638  0.37686784  1
  V  V81  1  0.88134231  0.87590936  -0.00584254  1
  V  V82  1  0.37375924  -0.00388010  0.37980007  1
  V  V83  1  0.75351725  0.63064586  0.38449352  1
  V  V84  1  0.12406679  0.12668720  0.52532342  1
  Zn  Zn85  1  0.62454824  0.24973759  0.87984650  1
  Zn  Zn86  1  0.38144460  0.27239840  0.15617115  1
  Zn  Zn87  1  0.49197784  0.36460260  0.38094690  1
  Zn  Zn88  1  0.37191882  0.74711045  0.62457433  1
  Zn  Zn89  1  0.12551666  0.00068547  0.12570429  1
  Zn  Zn90  1  0.62836299  0.12335250  0.00782835  1
  Zn  Zn91  1  0.13207612  0.12647629  -0.00055187  1
  Zn  Zn92  1  0.12135039  0.24498863  0.87751417  1
  Zn  Zn93  1  -0.00273202  0.50623305  0.50209529  1
  Zn  Zn94  1  0.62729640  0.12448949  0.50251577  1
  Zn  Zn95  1  0.25254612  0.25633357  0.01262203  1
  Zn  Zn96  1  0.75731530  0.49499629  0.75426357  1
  Zn  Zn97  1  0.00572883  0.25318935  0.24815290  1
  Zn  Zn98  1  0.87606089  0.25401215  0.12772819  1
  Zn  Zn99  1  0.49327760  0.49376959  0.50411256  1
  Zn  Zn100  1  0.63066353  0.74844737  0.86999100  1
  Zn  Zn101  1  0.24609720  0.12608236  0.88007436  1
  Zn  Zn102  1  0.87461362  0.49876100  0.37798428  1
  Zn  Zn103  1  0.12913232  0.50101245  0.12032685  1
  Zn  Zn104  1  0.87975973  0.74359240  0.62170061  1
  Zn  Zn105  1  0.37185803  -0.00085006  0.87487815  1
  Zn  Zn106  1  0.49069038  0.74533092  0.24448118  1
  Zn  Zn107  1  0.19564095  0.19202367  0.18756280  1
  Zn  Zn108  1  0.19727648  0.20285317  0.71175503  1
  Zn  Zn109  1  0.18317748  0.68536616  0.18934625  1
  Zn  Zn110  1  0.18491921  0.68929768  0.68816815  1
  Zn  Zn111  1  0.68557999  0.18446069  0.18908814  1
  Zn  Zn112  1  0.68851240  0.18717045  0.69016049  1
  Zn  Zn113  1  0.64636986  0.71755709  0.16755929  1
  Zn  Zn114  1  0.69067644  0.68517438  0.69304590  1
  Zn  Zn115  1  0.27233648  0.38229743  0.11909516  1
  Zn  Zn116  1  0.32116044  0.29507905  0.84333905  1
  Zn  Zn117  1  0.30754713  0.80976206  0.32025321  1
  Zn  Zn118  1  0.31259573  0.81279420  0.81064553  1
  Zn  Zn119  1  0.81411150  0.30927404  0.31902833  1
  Zn  Zn120  1  0.81458739  0.31072836  0.81915442  1
  Zn  Zn121  1  0.80746938  0.81091992  0.31551931  1
  Zn  Zn122  1  0.81896251  0.80855339  0.81075406  1
  Zn  Zn123  1  0.19025077  0.44066536  0.43724604  1
  Zn  Zn124  1  0.17806004  0.43791953  0.94090427  1
  Zn  Zn125  1  0.18424309  0.94072766  0.44060897  1
  Zn  Zn126  1  0.18974136  0.94386998  0.93669466  1
  Zn  Zn127  1  0.68665820  0.43702444  0.43990401  1
  Zn  Zn128  1  0.69010009  0.43707291  0.93801684  1
  Zn  Zn129  1  0.69024310  0.93708903  0.43967828  1
  Zn  Zn130  1  0.68738021  0.93921722  0.93557043  1
  Zn  Zn131  1  0.31748011  0.06214194  0.06297561  1
  Zn  Zn132  1  0.30928644  0.06405834  0.56822085  1
  Zn  Zn133  1  0.30927110  0.55317029  0.04925995  1
  Zn  Zn134  1  0.30881415  0.56573262  0.56196759  1
  Zn  Zn135  1  0.81864542  0.06706215  0.06260352  1
  Zn  Zn136  1  0.81464244  0.05545046  0.56296688  1
  Zn  Zn137  1  0.80395289  0.55847637  0.06954542  1
  Zn  Zn138  1  0.81067214  0.55487316  0.56482894  1
  Zn  Zn139  1  0.44547682  0.44678615  0.19640922  1
  Zn  Zn140  1  0.43818178  0.43823056  0.69327209  1
  Zn  Zn141  1  0.40971487  0.89563467  0.21381688  1
  Zn  Zn142  1  0.43463343  0.93508735  0.68329608  1
  Zn  Zn143  1  0.94025173  0.43786300  0.18790240  1
  Zn  Zn144  1  0.93968186  0.43774875  0.68600571  1
  Zn  Zn145  1  0.93906417  0.94057680  0.18607410  1
  Zn  Zn146  1  0.94039154  0.93342602  0.68911097  1
  Zn  Zn147  1  0.06429236  0.06126631  0.31662449  1
  Zn  Zn148  1  0.06319837  0.06443250  0.80790177  1
  Zn  Zn149  1  0.06514167  0.56368588  0.31600592  1
  Zn  Zn150  1  0.06147222  0.56019081  0.81419153  1
  Zn  Zn151  1  0.56159595  0.06663455  0.32100827  1
  Zn  Zn152  1  0.56493590  0.06140062  0.81396949  1
  Zn  Zn153  1  0.56916062  0.56082782  0.32628908  1
  Zn  Zn154  1  0.56204873  0.55970657  0.81683373  1
  Zn  Zn155  1  0.43446967  0.18488396  0.44199990  1
  Zn  Zn156  1  0.43077336  0.18875648  0.94260159  1
  Zn  Zn157  1  0.44031076  0.68573124  0.43569921  1
  Zn  Zn158  1  0.42338520  0.67443288  0.95433552  1
  Zn  Zn159  1  0.94359964  0.18919594  0.44218150  1
  Zn  Zn160  1  0.93712071  0.19027810  0.93612412  1
  Zn  Zn161  1  0.93920307  0.69054330  0.43602302  1
  Zn  Zn162  1  0.93982934  0.69170441  0.93556008  1
  Zn  Zn163  1  0.07158365  0.31424247  0.05823732  1
  Zn  Zn164  1  0.06643413  0.31490921  0.56541583  1
  Zn  Zn165  1  0.06019412  0.81371659  0.06487591  1
  Zn  Zn166  1  0.05774819  0.80807065  0.56678897  1
  Zn  Zn167  1  0.55837413  0.31180449  0.06268522  1
  Zn  Zn168  1  0.56272093  0.31485674  0.55954737  1
  Zn  Zn169  1  0.55783800  0.80781338  0.05279794  1
  Zn  Zn170  1  0.56055519  0.81064082  0.56447765  1
  O  O171  1  0.11567572  0.12330254  0.12904468  1
  O  O172  1  0.13339130  0.13759571  0.62248137  1
  O  O173  1  0.11320776  0.62498332  0.11793544  1
  O  O174  1  0.13496820  0.61417640  0.61638737  1
  O  O175  1  0.61108025  0.12576139  0.12550501  1
  O  O176  1  0.61981917  0.11738460  0.62559157  1
  O  O177  1  0.64525518  0.62702727  0.09326798  1
  O  O178  1  0.62387838  0.61724822  0.62448844  1
  O  O179  1  0.37515616  0.39568757  0.37248759  1
  O  O180  1  0.38804246  0.38850531  0.84736637  1
  O  O181  1  0.36454799  0.88859255  0.39386627  1
  O  O182  1  0.38409103  0.87623613  0.87802451  1
  O  O183  1  0.88551745  0.37417150  0.38443745  1
  O  O184  1  0.88435451  0.37412781  0.88734498  1
  O  O185  1  0.87969717  0.88030498  0.38284402  1
  O  O186  1  0.86976448  0.88571934  0.88352353  1
  O  O187  1  0.25420395  0.00422259  0.36997285  1
  O  O188  1  0.25349102  0.00149349  0.85902831  1
  O  O189  1  0.25916881  0.50670462  0.36740717  1
  O  O190  1  0.25747853  0.49489182  0.87204309  1
  O  O191  1  0.75678758  0.00458052  0.36889222  1
  O  O192  1  0.76007517  0.00613156  0.86952985  1
  O  O193  1  0.75123147  0.50845941  0.36878078  1
  O  O194  1  0.75318371  0.51267653  0.87260900  1
  O  O195  1  0.24947558  0.51131526  0.13602135  1
  O  O196  1  0.24450591  0.48885112  0.62095969  1
  O  O197  1  0.24742569  0.99837077  0.13980861  1
  O  O198  1  0.25330406  0.98720179  0.63524912  1
  O  O199  1  0.72679458  0.51253012  0.14668779  1
  O  O200  1  0.74321023  0.48526193  0.63108886  1
  O  O201  1  0.76045675  0.99260928  0.13128008  1
  O  O202  1  0.74439906  0.99129319  0.63243013  1
  O  O203  1  0.00488241  0.37438834  0.26209757  1
  O  O204  1  -0.00304257  0.36754254  0.75716135  1
  O  O205  1  0.00582667  0.87411819  0.25665936  1
  O  O206  1  0.01301140  0.87080524  0.75260554  1
  O  O207  1  0.51471703  0.37584955  0.26304495  1
  O  O208  1  0.51383067  0.37226642  0.75470997  1
  O  O209  1  0.52299801  0.90205559  0.23834978  1
  O  O210  1  0.50198428  0.86787300  0.75390323  1
  O  O211  1  0.49353321  0.11146973  0.24148497  1
  O  O212  1  0.49670556  0.12757712  0.74339558  1
  O  O213  1  0.57310026  0.61267295  0.22515735  1
  O  O214  1  0.49374755  0.63110874  0.74932840  1
  O  O215  1  0.99573313  0.12632625  0.24608909  1
  O  O216  1  0.99269972  0.14174751  0.75111424  1
  O  O217  1  0.99047257  0.62748811  0.24621494  1
  O  O218  1  0.99060933  0.63031177  0.75251881  1
  O  O219  1  0.35029818  0.26327044  -0.04840612  1
  O  O220  1  0.36520045  0.24371479  0.51601875  1
  O  O221  1  0.38376307  0.76839923  0.00069376  1
  O  O222  1  0.36851214  0.75763071  0.49992641  1
  O  O223  1  0.86738388  0.25878811  0.00191520  1
  O  O224  1  0.86493039  0.25825134  0.49580525  1
  O  O225  1  0.87127402  0.75933672  0.00558414  1
  O  O226  1  0.88238499  0.76469916  0.50346955  1
  O  O227  1  0.13094592  0.24417724  0.49783427  1
  O  O228  1  0.13187114  0.24413368  0.99538211  1
  O  O229  1  0.13275727  0.74289788  0.50631248  1
  O  O230  1  0.11093892  0.73580202  1.00023497  1
  O  O231  1  0.64022686  0.24772513  0.49699014  1
  O  O232  1  0.63350251  0.24730219  0.99886921  1
  O  O233  1  0.62003209  0.73648533  0.49861825  1
  O  O234  1  0.63550274  0.74250905  0.98846754  1
  O  O235  1  0.48919820  0.23677517  0.11879242  1
  O  O236  1  0.49506656  0.24597607  0.62995840  1
  O  O237  1  0.53841433  0.75192850  0.14447209  1
  O  O238  1  0.49644288  0.74331263  0.63793073  1
  O  O239  1  0.99898149  0.24229897  0.12810879  1
  O  O240  1  0.99234096  0.25893943  0.63593608  1
  O  O241  1  0.99031160  0.74043343  0.13191607  1
  O  O242  1  0.99441021  0.75575230  0.64351153  1
  O  O243  1  0.01413499  0.25974694  0.37657193  1
  O  O244  1  -0.00019428  0.26062278  0.86830293  1
  O  O245  1  -0.00481496  0.76592301  0.36811490  1
  O  O246  1  -0.00740047  0.75184602  0.85658180  1
  O  O247  1  0.51646615  0.24354040  0.38582669  1
  O  O248  1  0.50326104  0.26029230  0.86905874  1
  O  O249  1  0.51723705  0.73440116  0.36148045  1
  O  O250  1  0.49983742  0.75666110  0.86298516  1
  O  O251  1  0.24225395  0.13312720  0.49941756  1
  O  O252  1  0.25172701  0.12499007  0.99764666  1
  O  O253  1  0.24220824  0.63512526  0.49564535  1
  O  O254  1  0.23818581  0.61993431  0.98511468  1
  O  O255  1  0.75338786  0.13092194  0.49768208  1
  O  O256  1  0.75130429  0.13028538  0.99328138  1
  O  O257  1  0.74334998  0.61858892  0.49633362  1
  O  O258  1  0.75205613  0.62722243  0.98530692  1
  O  O259  1  0.22336007  0.37542938  0.01884335  1
  O  O260  1  0.24354074  0.36344882  0.50994036  1
  O  O261  1  0.25289121  0.88045506  0.01092130  1
  O  O262  1  0.25066947  0.86909383  0.50705709  1
  O  O263  1  0.75862183  0.36691695  -0.00341091  1
  O  O264  1  0.75758869  0.36771888  0.50882547  1
  O  O265  1  0.76056477  0.87679587  0.00502429  1
  O  O266  1  0.76304924  0.88304127  0.51140158  1
  O  O267  1  0.13381828  0.49757857  0.25035453  1
  O  O268  1  0.11676669  0.49097481  0.74094798  1
  O  O269  1  0.13187979  0.98936745  0.25163600  1
  O  O270  1  0.13009677  0.98471283  0.75131164  1
  O  O271  1  0.63281299  0.47969066  0.25715868  1
  O  O272  1  0.62814208  0.49310493  0.74182085  1
  O  O273  1  0.63696483  1.00881895  0.24612778  1
  O  O274  1  0.63133446  0.99220827  0.74480948  1
  O  O275  1  0.36555424  -0.00436531  0.26468275  1
  O  O276  1  0.36852939  0.00417516  0.74741989  1
  O  O277  1  0.36458302  0.50863828  0.25875240  1
  O  O278  1  0.38028269  0.51475997  0.75981832  1
  O  O279  1  0.87278064  0.01031739  0.25694838  1
  O  O280  1  0.87441609  0.00544228  0.75691224  1
  O  O281  1  0.86778042  0.50471655  0.25171571  1
  O  O282  1  0.87720883  0.51383331  0.74741388  1
  O  O283  1  0.12154726  0.37203881  0.36814856  1
  O  O284  1  0.11026934  0.37731797  0.86529465  1
  O  O285  1  0.11678060  0.87895268  0.36746813  1
  O  O286  1  0.12794072  0.87395061  0.86670440  1
  O  O287  1  0.62988356  0.36332357  0.37051664  1
  O  O288  1  0.61739054  0.37755577  0.86744560  1
  O  O289  1  0.62569648  0.85537150  0.39461162  1
  O  O290  1  0.61428563  0.87373237  0.86731010  1
  O  O291  1  0.38688157  0.11334952  0.14032635  1
  O  O292  1  0.38285785  0.13114416  0.63269175  1
  O  O293  1  0.41474268  0.59461888  0.04921152  1
  O  O294  1  0.37708246  0.62495725  0.63562972  1
  O  O295  1  0.88827598  0.12607172  0.13580403  1
  O  O296  1  0.86906167  0.12043084  0.63954345  1
  O  O297  1  0.87526330  0.63099151  0.13396143  1
  O  O298  1  0.87059815  0.62423270  0.63695318  1
  O  O299  1  0.26867527  0.25395756  0.13001695  1
  O  O300  1  0.25801270  0.26189083  0.62399059  1
  O  O301  1  0.24594650  0.76075249  0.12629453  1
  O  O302  1  0.25172195  0.75688584  0.61663945  1
  O  O303  1  0.75502958  0.23992569  0.11309818  1
  O  O304  1  0.74558984  0.26062428  0.61967477  1
  O  O305  1  0.74918667  0.76734068  0.11810834  1
  O  O306  1  0.75295019  0.76161160  0.62995904  1
  O  O307  1  0.23838548  0.24626048  0.38971003  1
  O  O308  1  0.23007789  0.23240817  0.82764674  1
  O  O309  1  0.24661437  0.74419023  0.38702227  1
  O  O310  1  0.25278724  0.73895406  0.87769089  1
  O  O311  1  0.74525694  0.24249221  0.38583018  1
  O  O312  1  0.74951544  0.24127994  0.88590182  1
  O  O313  1  0.74759277  0.73660779  0.38174716  1
  O  O314  1  0.75486813  0.73925336  0.87955862  1
  O  O315  1  -0.00318024  0.11823105  0.00971053  1
  O  O316  1  0.01156057  0.11749152  0.49993446  1
  O  O317  1  -0.00223107  0.62066918  0.00661028  1
  O  O318  1  0.01435873  0.62655145  0.49383415  1
  O  O319  1  0.49606173  0.11794663  0.00691153  1
  O  O320  1  0.50126909  0.11562808  0.51040813  1
  O  O321  1  0.52751391  0.62444797  -0.03002270  1
  O  O322  1  0.50854650  0.62073581  0.51094590  1
  O  O323  1  0.50704544  0.38171269  0.49217999  1
  O  O324  1  0.50652540  0.38627366  0.98897555  1
  O  O325  1  0.48791271  0.88278039  0.50978643  1
  O  O326  1  0.49657985  0.88125344  0.98975168  1
  O  O327  1  0.99354054  0.37262448  0.49463991  1
  O  O328  1  0.99485082  0.38380249  0.99350323  1
  O  O329  1  0.99818687  0.88175678  0.49392120  1
  O  O330  1  0.98789146  0.88437029  1.00712983  1
  O  O331  1  0.48285234  0.51018106  0.37642058  1
  O  O332  1  0.48850013  0.49764923  0.88470550  1
  O  O333  1  0.49133129  1.00372975  0.39111532  1
  O  O334  1  0.49680279  0.99134672  0.87777999  1
  O  O335  1  0.99980291  0.48879029  0.38008615  1
  O  O336  1  0.99797394  0.49332466  0.88534951  1
  O  O337  1  0.99600582  0.99007408  0.38170390  1
  O  O338  1  0.98765932  1.00655553  0.88173620  1
  O  O339  1  0.00114486  0.00903965  0.11647673  1
  O  O340  1  -0.00185567  -0.00345646  0.61322931  1
  O  O341  1  -0.00291633  0.51451438  0.12049688  1
  O  O342  1  0.01332329  0.49565789  0.61880875  1
  O  O343  1  0.50969923  0.00444830  0.11557904  1
  O  O344  1  0.50511871  0.00384669  0.61778810  1
  O  O345  1  0.52388898  0.49928550  0.11758021  1
  O  O346  1  0.50860896  0.50580974  0.62784585  1
  O  O347  1  0.24251169  0.39813170  0.24297237  1
  O  O348  1  0.23396934  0.37346805  0.74230233  1
  O  O349  1  0.24051666  0.87951558  0.24216321  1
  O  O350  1  0.23965234  0.87679416  0.74470270  1
  O  O351  1  0.74840088  0.38149142  0.25581218  1
  O  O352  1  0.74276276  0.37232477  0.74739004  1
  O  O353  1  0.75898220  0.89041882  0.24326188  1
  O  O354  1  0.74762798  0.87955155  0.74431770  1
  O  O355  1  0.25651544  0.11499435  0.25948637  1
  O  O356  1  0.26175128  0.10933058  0.73591396  1
  O  O357  1  0.24216001  0.61671972  0.25949235  1
  O  O358  1  0.25511966  0.63007064  0.76276793  1
  O  O359  1  0.76037649  0.11578255  0.25367857  1
  O  O360  1  0.75748969  0.11986416  0.75717240  1
  O  O361  1  0.76323045  0.61782237  0.26285162  1
  O  O362  1  0.76421908  0.62282014  0.75854804  1
  O  O363  1  0.36828035  0.11155230  0.37667194  1
  O  O364  1  0.37678841  0.12002229  0.85676714  1
  O  O365  1  0.35892861  0.62251137  0.38046012  1
  O  O366  1  0.35886749  0.61304813  0.87364616  1
  O  O367  1  0.87402044  0.12045014  0.37048407  1
  O  O368  1  0.86571727  0.11851209  0.86886258  1
  O  O369  1  0.87127703  0.62241142  0.37171064  1
  O  O370  1  0.86969811  0.62651393  0.86479025  1
  O  O371  1  0.10961862  0.38260012  0.14398567  1
  O  O372  1  0.13235584  0.38447169  0.63114842  1
  O  O373  1  0.13354120  0.87831276  0.13058890  1
  O  O374  1  0.13376867  0.87335387  0.62803372  1
  O  O375  1  0.62170061  0.36152930  0.14588890  1
  O  O376  1  0.63155902  0.38053949  0.63357616  1
  O  O377  1  0.63504517  0.88983096  0.11733756  1
  O  O378  1  0.63240521  0.87849758  0.62927575  1
  O  O379  1  0.12976870  0.26083245  0.26041545  1
  O  O380  1  0.10406580  0.26563124  0.74395898  1
  O  O381  1  0.11557593  0.76309820  0.24563530  1
  O  O382  1  0.11798333  0.76351692  0.74809409  1
  O  O383  1  0.63573029  0.25839017  0.26390273  1
  O  O384  1  0.61989303  0.25820624  0.75337208  1
  O  O385  1  0.64555179  0.76094227  0.27380219  1
  O  O386  1  0.61717235  0.75556204  0.75073946  1
  O  O387  1  0.38095313  0.22513321  0.26470179  1
  O  O388  1  0.38352751  0.24013195  0.74037158  1
  O  O389  1  0.38886481  0.78934286  0.25097341  1
  O  O390  1  0.38096666  0.73839510  0.75088997  1
  O  O391  1  0.87726013  0.23785897  0.25209608  1
  O  O392  1  0.88397030  0.24300920  0.75415318  1
  O  O393  1  0.87711545  0.74277530  0.24641447  1
  O  O394  1  0.88216549  0.73734823  0.74559887  1
  O  O395  1  0.37170099  0.50426179  0.48770896  1
  O  O396  1  0.37263428  0.47743101  0.97714602  1
  O  O397  1  0.37987444  0.99485699  0.50001516  1
  O  O398  1  0.38775075  0.98966906  0.99671851  1
  O  O399  1  0.87713578  0.48622534  0.49916313  1
  O  O400  1  0.88113449  0.49445538  1.00894844  1
  O  O401  1  0.88497546  0.99206965  0.49500781  1
  O  O402  1  0.88370998  0.99538067  0.99313755  1
  O  O403  1  0.11151080  -0.00008473  0.00188187  1
  O  O404  1  0.11829349  0.01432259  0.49985107  1
  O  O405  1  0.10766523  0.51346874  0.00230779  1
  O  O406  1  0.12570379  0.50848996  0.50771429  1
  O  O407  1  0.61017015  0.00477276  -0.01034333  1
  O  O408  1  0.61687767  0.00038047  0.50585572  1
  O  O409  1  0.62145878  0.51249031  -0.00651047  1
  O  O410  1  0.62753816  0.50701231  0.51514375  1
  O  O411  1  0.38589194  0.38161700  0.13064890  1
  O  O412  1  0.36707935  0.36791110  0.63582190  1
  O  O413  1  0.35375112  0.88329079  0.11483749  1
  O  O414  1  0.36326160  0.87093628  0.61632922  1
  O  O415  1  0.88102303  0.37251541  0.11311102  1
  O  O416  1  0.86622945  0.37744478  0.61840452  1
  O  O417  1  0.86976811  0.87068403  0.11884700  1
  O  O418  1  0.86728631  0.87618912  0.61862912  1
  O  O419  1  0.13094001  0.13510771  0.37801256  1
  O  O420  1  0.12477923  0.12389143  0.87932534  1
  O  O421  1  0.13939111  0.61818918  0.38718475  1
  O  O422  1  0.13651595  0.62160607  0.87834108  1
  O  O423  1  0.63580191  0.13125547  0.38009741  1
  O  O424  1  0.64091117  0.12512817  0.87395165  1
  O  O425  1  0.63635208  0.63072133  0.38945901  1
  O  O426  1  0.64568781  0.62537163  0.87218806  1
