# generated using pymatgen
data_V85Zn86O256
_symmetry_space_group_name_H-M   'P 1'
_cell_length_a   16.93811092
_cell_length_b   16.92606703
_cell_length_c   16.93063910
_cell_angle_alpha   89.98903973
_cell_angle_beta   90.02307434
_cell_angle_gamma   89.97449296
_symmetry_Int_Tables_number   1
_chemical_formula_structural   V85Zn86O256
_chemical_formula_sum   'V85 Zn86 O256'
_cell_volume   4853.93878614
_cell_formula_units_Z   1
loop_
 _symmetry_equiv_pos_site_id
 _symmetry_equiv_pos_as_xyz
  1  'x, y, z'
loop_
 _atom_site_type_symbol
 _atom_site_label
 _atom_site_symmetry_multiplicity
 _atom_site_fract_x
 _atom_site_fract_y
 _atom_site_fract_z
 _atom_site_occupancy
  V  V0  1  0.87773805  0.62541461  0.75357684  1
  V  V1  1  0.75091048  0.87753054  0.12711394  1
  V  V2  1  0.50032966  0.49624296  -0.00427456  1
  V  V3  1  -0.00864747  0.49791359  0.48394721  1
  V  V4  1  0.38115253  0.12496531  0.75143630  1
  V  V5  1  0.62189376  0.62675930  0.49811854  1
  V  V6  1  -0.00108914  0.88796286  0.87937809  1
  V  V7  1  0.75090473  0.87780527  0.62882504  1
  V  V8  1  0.12467072  0.13700903  0.49772520  1
  V  V9  1  0.11967393  0.11077398  -0.00197114  1
  V  V10  1  0.74910100  0.36529095  0.12195433  1
  V  V11  1  0.50494009  0.36886461  0.35623835  1
  V  V12  1  -0.00420017  0.13259796  0.12354440  1
  V  V13  1  0.25397296  0.00104380  0.74975648  1
  V  V14  1  0.50652501  0.12203919  0.61192078  1
  V  V15  1  0.12671688  0.87443806  0.75143511  1
  V  V16  1  0.37575868  0.88297779  0.50048054  1
  V  V17  1  0.58211500  0.53393262  0.66061288  1
  V  V18  1  0.74029556  0.12216945  0.38415350  1
  V  V19  1  0.25785886  0.62767655  0.87527271  1
  V  V20  1  0.25434828  0.50484749  0.74925607  1
  V  V21  1  0.12935109  0.74956509  0.88316499  1
  V  V22  1  0.25375231  0.62722359  0.36838092  1
  V  V23  1  0.50359401  0.50137153  0.49413507  1
  V  V24  1  0.49894372  -0.00271250  -0.00566841  1
  V  V25  1  0.75319616  0.62796081  0.87953442  1
  V  V26  1  0.37651980  0.25112455  0.62324738  1
  V  V27  1  0.25327466  0.87313994  0.62575537  1
  V  V28  1  0.01102370  0.87747879  0.37082831  1
  V  V29  1  0.62467382  0.63136128  0.00344082  1
  V  V30  1  0.87912341  0.75003196  0.12579228  1
  V  V31  1  0.61878594  -0.00144421  0.12553749  1
  V  V32  1  0.75437695  0.49818681  0.74672167  1
  V  V33  1  0.12486236  0.00315086  0.62532482  1
  V  V34  1  0.73534968  0.25213243  0.50502642  1
  V  V35  1  0.24531587  0.12598446  0.36892786  1
  V  V36  1  0.87733630  0.49981347  0.88269909  1
  V  V37  1  0.88103480  0.12475802  0.25142334  1
  V  V38  1  0.87822336  0.75111916  0.62555399  1
  V  V39  1  0.13000965  0.61746400  0.00217324  1
  V  V40  1  0.36558673  0.86599140  -0.00383377  1
  V  V41  1  0.62592842  0.25921327  0.87825670  1
  V  V42  1  0.37492580  0.50248706  0.36209253  1
  V  V43  1  0.24850357  0.87756143  0.14045767  1
  V  V44  1  0.49959092  0.88025873  0.37587849  1
  V  V45  1  0.87182688  0.12366299  0.75400310  1
  V  V46  1  0.54456997  0.18314204  0.18393119  1
  V  V47  1  0.00552294  0.61857857  0.12448935  1
  V  V48  1  0.12005732  0.37122467  0.74868922  1
  V  V49  1  0.37623589  0.37318461  -0.00693161  1
  V  V50  1  -0.00146909  0.36953821  0.87403549  1
  V  V51  1  0.36829945  0.11296163  0.24336247  1
  V  V52  1  0.37615134  0.37464062  0.49358981  1
  V  V53  1  0.48989444  0.62300741  0.12873678  1
  V  V54  1  0.87339474  -0.00192505  0.37654113  1
  V  V55  1  0.75852424  0.49965765  0.25113411  1
  V  V56  1  0.62790952  0.74899629  0.37140450  1
  V  V57  1  0.12188690  0.50066838  0.62243541  1
  V  V58  1  0.24841386  0.37484999  0.62226151  1
  V  V59  1  0.88018602  0.89020514  -0.00139930  1
  V  V60  1  0.00178220  0.62400058  0.62490460  1
  V  V61  1  0.12240791  0.24663373  0.87190219  1
  V  V62  1  0.62662670  0.49721430  0.13091895  1
  V  V63  1  0.87286328  0.35869691  0.00406929  1
  V  V64  1  0.24894749  0.24535798  -0.00208035  1
  V  V65  1  0.62188017  0.12887573  -0.00213175  1
  V  V66  1  0.00328178  0.75122189  0.75315693  1
  V  V67  1  0.49060767  0.74489324  0.24973772  1
  V  V68  1  0.00191478  0.00172014  0.50313931  1
  V  V69  1  0.74983250  0.75228201  -0.00155638  1
  V  V70  1  0.25057921  0.74746658  0.50149913  1
  V  V71  1  0.12199887  -0.00356146  0.14274117  1
  V  V72  1  0.24027878  0.50371606  0.24309736  1
  V  V73  1  -0.05031484  0.30388768  0.31286055  1
  V  V74  1  0.61980041  0.86499408  0.75770329  1
  V  V75  1  0.75058895  0.12312511  0.88044469  1
  V  V76  1  -0.00202265  0.13481634  0.63220288  1
  V  V77  1  0.38863223  0.73768311  0.62841061  1
  V  V78  1  0.87825329  0.87433175  0.50160818  1
  V  V79  1  0.87050276  0.25980212  0.62916747  1
  V  V80  1  0.37324927  0.24613597  0.12888421  1
  V  V81  1  0.23705147  0.37716561  0.12158934  1
  V  V82  1  0.50048245  0.25841192  0.75524039  1
  V  V83  1  0.01047092  0.75518247  0.24834380  1
  V  V84  1  0.12609797  0.36056339  0.26401200  1
  Zn  Zn85  1  0.12460247  0.62505502  0.49587771  1
  Zn  Zn86  1  0.75588539  0.61615481  0.37722261  1
  Zn  Zn87  1  0.74837280  -0.00195405  0.75626028  1
  Zn  Zn88  1  0.00483568  0.49507397  0.00544625  1
  Zn  Zn89  1  0.87187125  0.37699245  0.48726117  1
  Zn  Zn90  1  0.62226890  0.38075659  0.75345490  1
  Zn  Zn91  1  0.62307027  0.00290838  0.62008320  1
  Zn  Zn92  1  0.88293725  0.62138712  0.25734712  1
  Zn  Zn93  1  0.37950191  0.49774657  0.86896145  1
  Zn  Zn94  1  0.13094355  0.75517752  0.37143790  1
  Zn  Zn95  1  0.38050407  -0.00545308  0.87241298  1
  Zn  Zn96  1  0.73521237  0.38471570  0.62111079  1
  Zn  Zn97  1  0.36292826  0.74327466  0.12467687  1
  Zn  Zn98  1  0.37201483  0.00084879  0.37374976  1
  Zn  Zn99  1  0.50437939  0.85028433  0.87805703  1
  Zn  Zn100  1  0.75255418  0.74652659  0.49718517  1
  Zn  Zn101  1  0.24483787  0.25565802  0.49172111  1
  Zn  Zn102  1  0.50595972  0.71896719  0.74601767  1
  Zn  Zn103  1  0.62345242  0.87224083  0.24815990  1
  Zn  Zn104  1  0.74744333  -0.00113412  0.25245215  1
  Zn  Zn105  1  0.61565581  0.24391849  0.36934155  1
  Zn  Zn106  1  0.25253306  0.12225926  0.87517717  1
  Zn  Zn107  1  0.18642460  0.18416128  0.18410551  1
  Zn  Zn108  1  0.19056415  0.18884037  0.68591324  1
  Zn  Zn109  1  0.18819581  0.69063862  0.18465873  1
  Zn  Zn110  1  0.19012336  0.68731204  0.68809688  1
  Zn  Zn111  1  0.70751648  0.18080404  0.18488795  1
  Zn  Zn112  1  0.68516169  0.18860375  0.69076809  1
  Zn  Zn113  1  0.68610446  0.68580645  0.18746130  1
  Zn  Zn114  1  0.69191052  0.69075572  0.68824365  1
  Zn  Zn115  1  0.31061978  0.30900115  0.30944488  1
  Zn  Zn116  1  0.30938032  0.31228832  0.81069997  1
  Zn  Zn117  1  0.31530311  0.81269828  0.31204171  1
  Zn  Zn118  1  0.31828084  0.80696193  0.80975191  1
  Zn  Zn119  1  0.78633100  0.31057571  0.30976768  1
  Zn  Zn120  1  0.80814746  0.30849126  0.81277836  1
  Zn  Zn121  1  0.81736271  0.80885885  0.31146698  1
  Zn  Zn122  1  0.81492412  0.81579516  0.81533591  1
  Zn  Zn123  1  0.18642717  0.44134849  0.43559350  1
  Zn  Zn124  1  0.18857766  0.43826381  0.93530012  1
  Zn  Zn125  1  0.19128629  0.94480534  0.43835226  1
  Zn  Zn126  1  0.19077753  0.93620460  0.93478489  1
  Zn  Zn127  1  0.68247822  0.43263780  0.43392249  1
  Zn  Zn128  1  0.69023023  0.44063575  0.94083574  1
  Zn  Zn129  1  0.68749328  0.93515583  0.44308510  1
  Zn  Zn130  1  0.68790928  0.93907510  0.93771568  1
  Zn  Zn131  1  0.31035442  0.05699490  0.06248131  1
  Zn  Zn132  1  0.31237413  0.06683552  0.56218668  1
  Zn  Zn133  1  0.31002113  0.55973690  0.05835226  1
  Zn  Zn134  1  0.31416451  0.56110436  0.55683749  1
  Zn  Zn135  1  0.80931789  0.06678972  0.06331054  1
  Zn  Zn136  1  0.81202543  0.06511238  0.56477915  1
  Zn  Zn137  1  0.81591406  0.56244083  0.06733313  1
  Zn  Zn138  1  0.81374754  0.56580848  0.55910696  1
  Zn  Zn139  1  0.42936104  0.43671717  0.17923989  1
  Zn  Zn140  1  0.43395046  0.43600883  0.68564186  1
  Zn  Zn141  1  0.43805550  0.93255767  0.18376907  1
  Zn  Zn142  1  0.44127184  0.93548084  0.68479232  1
  Zn  Zn143  1  0.93845585  0.43601645  0.18390390  1
  Zn  Zn144  1  0.93824683  0.43741661  0.68920669  1
  Zn  Zn145  1  0.94058887  0.94139891  0.18690622  1
  Zn  Zn146  1  0.93827226  0.94168922  0.69266635  1
  Zn  Zn147  1  0.06074013  0.06875676  0.31587423  1
  Zn  Zn148  1  0.06207155  0.06484712  0.80859447  1
  Zn  Zn149  1  0.06976795  0.56565279  0.30809772  1
  Zn  Zn150  1  0.06569410  0.56046969  0.81456364  1
  Zn  Zn151  1  0.56284279  0.05475778  0.31661776  1
  Zn  Zn152  1  0.56703362  0.05851757  0.80833033  1
  Zn  Zn153  1  0.56562404  0.56199621  0.31075255  1
  Zn  Zn154  1  0.56438669  0.57179301  0.82772854  1
  Zn  Zn155  1  0.43232461  0.18925922  0.43067476  1
  Zn  Zn156  1  0.44146972  0.18518166  0.93761349  1
  Zn  Zn157  1  0.43703321  0.69049002  0.43898703  1
  Zn  Zn158  1  0.43879471  0.68727273  0.93721996  1
  Zn  Zn159  1  0.92600798  0.18374466  0.45049431  1
  Zn  Zn160  1  0.93995509  0.18214918  0.93608119  1
  Zn  Zn161  1  0.94035998  0.68532782  0.43498377  1
  Zn  Zn162  1  0.94203873  0.69299701  0.94214235  1
  Zn  Zn163  1  0.06163284  0.30811779  0.06032495  1
  Zn  Zn164  1  0.05440816  0.31662010  0.55885609  1
  Zn  Zn165  1  0.06624119  0.81512144  0.06170233  1
  Zn  Zn166  1  0.06609435  0.81335569  0.56160312  1
  Zn  Zn167  1  0.56522742  0.31723949  0.05666334  1
  Zn  Zn168  1  0.56099057  0.32687893  0.57087744  1
  Zn  Zn169  1  0.55906620  0.81241493  0.06353180  1
  Zn  Zn170  1  0.57577301  0.83934552  0.54946697  1
  O  O171  1  0.12069387  0.11284237  0.11779333  1
  O  O172  1  0.11641199  0.12383344  0.62269655  1
  O  O173  1  0.11862740  0.63229446  0.11321784  1
  O  O174  1  0.12053356  0.61636946  0.62336821  1
  O  O175  1  0.61918375  0.12213701  0.12302459  1
  O  O176  1  0.61135324  0.12482682  0.62583418  1
  O  O177  1  0.61910949  0.61673370  0.11751474  1
  O  O178  1  0.63472272  0.61479416  0.61533817  1
  O  O179  1  0.38033280  0.38078433  0.37682958  1
  O  O180  1  0.36661139  0.37504213  0.88908747  1
  O  O181  1  0.37896241  0.87782811  0.38206413  1
  O  O182  1  0.37747359  0.87304263  0.88527549  1
  O  O183  1  0.88142049  0.36089498  0.36493399  1
  O  O184  1  0.87965839  0.37788641  0.88376569  1
  O  O185  1  0.88211934  0.88114906  0.38137748  1
  O  O186  1  0.88679982  0.87151585  0.88553730  1
  O  O187  1  0.25500334  0.01780409  0.38018378  1
  O  O188  1  0.25354311  0.00085599  0.86063384  1
  O  O189  1  0.25584621  0.50723485  0.36656897  1
  O  O190  1  0.24858180  0.50719112  0.86474914  1
  O  O191  1  0.75563435  0.00307686  0.37869219  1
  O  O192  1  0.74509166  0.01664659  0.87559336  1
  O  O193  1  0.74250901  0.49405205  0.35386645  1
  O  O194  1  0.76021907  0.50630568  0.87047182  1
  O  O195  1  0.25486771  0.48933474  0.13185025  1
  O  O196  1  0.24195019  0.49584492  0.62792778  1
  O  O197  1  0.23510137  0.98931400  0.12040443  1
  O  O198  1  0.24684910  0.99615775  0.63400337  1
  O  O199  1  0.74443622  0.49326367  0.12919031  1
  O  O200  1  0.76433232  0.50258744  0.64271246  1
  O  O201  1  0.73829763  0.99356682  0.12519516  1
  O  O202  1  0.75183829  0.98635088  0.62409889  1
  O  O203  1  0.00854846  0.36997948  0.25111255  1
  O  O204  1  0.01209386  0.37711056  0.75757189  1
  O  O205  1  -0.00509677  0.86925359  0.26021635  1
  O  O206  1  0.00694202  0.87090290  0.75671628  1
  O  O207  1  0.49287861  0.37966004  0.25824224  1
  O  O208  1  0.49662235  0.36330565  0.74994737  1
  O  O209  1  0.49925383  0.86437352  0.25717732  1
  O  O210  1  0.51435471  0.87479171  0.75152744  1
  O  O211  1  0.49190054  0.12179585  0.24948127  1
  O  O212  1  0.49456476  0.13442385  0.74412075  1
  O  O213  1  0.50421709  0.62977704  0.23974780  1
  O  O214  1  0.52198834  0.59881553  0.72716468  1
  O  O215  1  0.98795045  0.12185337  0.24518111  1
  O  O216  1  0.99253940  0.12477966  0.73918799  1
  O  O217  1  1.00328501  0.63419726  0.24144343  1
  O  O218  1  0.99641026  0.62928623  0.74665325  1
  O  O219  1  0.36833212  0.25166799  0.00516481  1
  O  O220  1  0.37470937  0.26396945  0.50187221  1
  O  O221  1  0.37966960  0.76313669  0.00592565  1
  O  O222  1  0.36410594  0.75549749  0.50685255  1
  O  O223  1  0.87558131  0.26061795  -0.00342420  1
  O  O224  1  0.86014071  0.25526301  0.51159819  1
  O  O225  1  0.87083339  0.75754071  0.01225194  1
  O  O226  1  0.88140298  0.75445736  0.51369215  1
  O  O227  1  0.12375500  0.24045588  0.50709457  1
  O  O228  1  0.13162583  0.24167342  0.99029624  1
  O  O229  1  0.13918534  0.74977331  0.49821631  1
  O  O230  1  0.12174739  0.74265683  0.98739214  1
  O  O231  1  0.63291694  0.26128316  0.50432532  1
  O  O232  1  0.61762932  0.24050994  0.99128697  1
  O  O233  1  0.62556360  0.74290263  0.49096535  1
  O  O234  1  0.63670504  0.74294193  1.01020872  1
  O  O235  1  0.49199127  0.25056285  0.12152795  1
  O  O236  1  0.49492749  0.24623972  0.63278900  1
  O  O237  1  0.49956984  0.73993721  0.13308307  1
  O  O238  1  0.48951997  0.75043896  0.62512442  1
  O  O239  1  1.00577746  0.23252653  0.12494092  1
  O  O240  1  0.98758079  0.24376320  0.62008274  1
  O  O241  1  0.99650109  0.74652751  0.12952876  1
  O  O242  1  0.99781499  0.74595422  0.63180632  1
  O  O243  1  -0.00375511  0.24586259  0.37852313  1
  O  O244  1  0.00807699  0.26050534  0.87794711  1
  O  O245  1  0.00454952  0.76033526  0.36738293  1
  O  O246  1  0.00933738  0.75586481  0.86888318  1
  O  O247  1  0.49806171  0.26407250  0.37185911  1
  O  O248  1  0.51052282  0.24484240  0.86637707  1
  O  O249  1  0.50753389  0.75139585  0.36590816  1
  O  O250  1  0.49935017  0.73685881  0.85946774  1
  O  O251  1  0.23996048  0.13016691  0.49669710  1
  O  O252  1  0.24248720  0.13049904  0.99694119  1
  O  O253  1  0.24812426  0.63186826  0.49095243  1
  O  O254  1  0.24108598  0.62257202  0.99124121  1
  O  O255  1  0.75230015  0.13495301  0.49411119  1
  O  O256  1  0.73406274  0.12302649  0.99651170  1
  O  O257  1  0.73821303  0.62589801  0.49669670  1
  O  O258  1  0.74633818  0.63324505  1.00264636  1
  O  O259  1  0.25162636  0.36713436  0.00477099  1
  O  O260  1  0.25713371  0.37714615  0.50297473  1
  O  O261  1  0.26351433  0.87789883  0.00238473  1
  O  O262  1  0.25619865  0.86809306  0.50447887  1
  O  O263  1  0.76431613  0.37979339  0.00816740  1
  O  O264  1  0.75262639  0.37151584  0.50197202  1
  O  O265  1  0.75597724  0.86999878  0.00863948  1
  O  O266  1  0.76318951  0.86721877  0.50967150  1
  O  O267  1  0.13588246  0.48765324  0.25162500  1
  O  O268  1  0.13073273  0.49236510  0.73992357  1
  O  O269  1  0.12368420  1.00312252  0.24097655  1
  O  O270  1  0.13429354  0.99643226  0.74440337  1
  O  O271  1  0.63226985  0.50164373  0.23536958  1
  O  O272  1  0.63704619  0.50360248  0.75617373  1
  O  O273  1  0.62672731  0.99554596  0.24032837  1
  O  O274  1  0.62881188  0.98600565  0.74146784  1
  O  O275  1  0.37780088  0.01037345  0.24460218  1
  O  O276  1  0.37097799  0.00617802  0.74931514  1
  O  O277  1  0.36153363  0.49322657  0.25761501  1
  O  O278  1  0.35906856  0.49246682  0.75064021  1
  O  O279  1  0.87375315  0.00486630  0.26335776  1
  O  O280  1  0.87031354  0.01753186  0.74446166  1
  O  O281  1  0.86251482  0.50058529  0.24343658  1
  O  O282  1  0.87346164  0.50378102  0.76411234  1
  O  O283  1  0.13025392  0.37083112  0.36324749  1
  O  O284  1  0.11794094  0.36841286  0.86988073  1
  O  O285  1  0.11423761  0.87881494  0.38136381  1
  O  O286  1  0.12135721  0.86724944  0.87125593  1
  O  O287  1  0.60880547  0.37051927  0.36844810  1
  O  O288  1  0.63037706  0.36355081  0.87880520  1
  O  O289  1  0.61610612  0.86600399  0.37073719  1
  O  O290  1  0.62761624  0.87486239  0.86192648  1
  O  O291  1  0.36907928  0.13163962  0.12913912  1
  O  O292  1  0.38084163  0.13291305  0.63379145  1
  O  O293  1  0.38593505  0.62477217  0.11809573  1
  O  O294  1  0.37306144  0.63905573  0.61566247  1
  O  O295  1  0.88146610  0.11856833  0.13688845  1
  O  O296  1  0.88028710  0.13545576  0.62984600  1
  O  O297  1  0.88621405  0.63493698  0.12652996  1
  O  O298  1  0.88183625  0.63338757  0.63151698  1
  O  O299  1  0.25303392  0.25416261  0.11266960  1
  O  O300  1  0.25807444  0.25891419  0.62196580  1
  O  O301  1  0.24735572  0.76998091  0.12703536  1
  O  O302  1  0.25441339  0.75533541  0.61833746  1
  O  O303  1  0.75062942  0.26567155  0.12452282  1
  O  O304  1  0.75126959  0.25690400  0.62139318  1
  O  O305  1  0.75840646  0.75645152  0.11955709  1
  O  O306  1  0.76411767  0.75724400  0.62474256  1
  O  O307  1  0.25666354  0.23447455  0.37739248  1
  O  O308  1  0.24308250  0.24817407  0.88441760  1
  O  O309  1  0.25229162  0.74411499  0.38040656  1
  O  O310  1  0.24143331  0.74052327  0.86708910  1
  O  O311  1  0.73736511  0.24102711  0.38394583  1
  O  O312  1  0.73690194  0.23773219  0.87135810  1
  O  O313  1  0.73658871  0.75427625  0.37333849  1
  O  O314  1  0.76052611  0.74552105  0.89187337  1
  O  O315  1  0.00797248  0.12498995  0.00759335  1
  O  O316  1  0.00479195  0.12021032  0.51119989  1
  O  O317  1  0.00889630  0.62414447  0.00756801  1
  O  O318  1  0.00349329  0.61544645  0.50669156  1
  O  O319  1  0.51085941  0.11357091  -0.00196139  1
  O  O320  1  0.49227506  0.13357502  0.51376122  1
  O  O321  1  0.50822395  0.61937064  0.00862087  1
  O  O322  1  0.51216463  0.61803826  0.49177983  1
  O  O323  1  0.49263847  0.38380210  0.48926894  1
  O  O324  1  0.48855455  0.38413297  1.00607383  1
  O  O325  1  0.48271201  0.85469708  0.48463983  1
  O  O326  1  0.49113202  0.87860252  0.99652794  1
  O  O327  1  0.99366146  0.39236604  0.49922819  1
  O  O328  1  0.98963717  0.37516504  0.99547733  1
  O  O329  1  0.99652728  0.88183396  0.49542578  1
  O  O330  1  0.99224425  0.87118829  0.99187091  1
  O  O331  1  0.49272161  0.49252368  0.37522517  1
  O  O332  1  0.49745551  0.50329274  0.89082791  1
  O  O333  1  0.49473154  0.98419841  0.37409880  1
  O  O334  1  0.50214741  0.99593907  0.88573279  1
  O  O335  1  1.00536021  0.50757963  0.38626240  1
  O  O336  1  0.99462000  0.48738172  0.87644137  1
  O  O337  1  0.99277236  0.99564472  0.38140377  1
  O  O338  1  1.00610801  0.98718080  0.87045866  1
  O  O339  1  0.01558113  0.00619260  0.12751206  1
  O  O340  1  0.00557916  0.00857217  0.62187619  1
  O  O341  1  -0.00174315  0.51411121  0.12491475  1
  O  O342  1  0.00676648  0.50535517  0.62306929  1
  O  O343  1  0.51195123  -0.00959275  0.11338475  1
  O  O344  1  0.49637215  0.01972847  0.62771318  1
  O  O345  1  0.50571148  0.50433713  0.11873692  1
  O  O346  1  0.49200068  0.50027644  0.60774762  1
  O  O347  1  0.23989310  0.37784860  0.24224876  1
  O  O348  1  0.23790874  0.38110697  0.74493404  1
  O  O349  1  0.25493537  0.88000616  0.23938467  1
  O  O350  1  0.24793407  0.88154702  0.74553368  1
  O  O351  1  0.75187899  0.38527251  0.23162579  1
  O  O352  1  0.74720165  0.38596267  0.75035893  1
  O  O353  1  0.75209784  0.87560446  0.23651477  1
  O  O354  1  0.74653950  0.87579316  0.74617696  1
  O  O355  1  0.25628481  0.12658814  0.25470811  1
  O  O356  1  0.25998051  0.11751056  0.74878829  1
  O  O357  1  0.24578818  0.61658303  0.25370997  1
  O  O358  1  0.24224080  0.61443293  0.75968811  1
  O  O359  1  0.76447885  0.12049891  0.26138155  1
  O  O360  1  0.75464815  0.12265842  0.75780075  1
  O  O361  1  0.75164287  0.60861347  0.24437265  1
  O  O362  1  0.75937452  0.62204123  0.75907606  1
  O  O363  1  0.36979213  0.12249450  0.36141075  1
  O  O364  1  0.37507685  0.12283250  0.86218580  1
  O  O365  1  0.36465570  0.61608107  0.37863982  1
  O  O366  1  0.36080690  0.61915287  0.88241391  1
  O  O367  1  0.86720076  0.11504194  0.37399009  1
  O  O368  1  0.86515905  0.13253862  0.86699893  1
  O  O369  1  0.86628196  0.63822629  0.36803320  1
  O  O370  1  0.87505643  0.61853521  0.87449055  1
  O  O371  1  0.13393606  0.37092718  0.12715443  1
  O  O372  1  0.12608745  0.37955664  0.63125799  1
  O  O373  1  0.13374115  0.88735382  0.12206058  1
  O  O374  1  0.13259054  0.88146995  0.63134901  1
  O  O375  1  0.64078938  0.38227892  0.11442541  1
  O  O376  1  0.61734946  0.40748513  0.63463220  1
  O  O377  1  0.63371518  0.88138057  0.12443082  1
  O  O378  1  0.64136456  0.86270200  0.64180769  1
  O  O379  1  0.12881449  0.26182899  0.24777528  1
  O  O380  1  0.13237396  0.25663421  0.76256239  1
  O  O381  1  0.11435931  0.75302861  0.25055434  1
  O  O382  1  0.12161507  0.75584108  0.75739954  1
  O  O383  1  0.61605381  0.23306596  0.24101262  1
  O  O384  1  0.61640290  0.25554232  0.75805048  1
  O  O385  1  0.61649605  0.74992208  0.25535496  1
  O  O386  1  0.62421971  0.75923674  0.74990780  1
  O  O387  1  0.37098473  0.24333585  0.23325789  1
  O  O388  1  0.38011782  0.24414589  0.74633072  1
  O  O389  1  0.38624803  0.74921032  0.24567357  1
  O  O390  1  0.37798077  0.74747820  0.73229915  1
  O  O391  1  0.87982382  0.24503188  0.26031290  1
  O  O392  1  0.86778405  0.23925971  0.73992530  1
  O  O393  1  0.88570413  0.75235004  0.23624079  1
  O  O394  1  0.88253502  0.74664806  0.74288734  1
  O  O395  1  0.38016079  0.49203249  0.48606336  1
  O  O396  1  0.38242924  0.48951927  1.00018485  1
  O  O397  1  0.37130184  0.98634841  0.50330328  1
  O  O398  1  0.38278061  0.98985733  0.99768708  1
  O  O399  1  0.88676205  0.49968636  0.49834261  1
  O  O400  1  0.87848180  0.49612674  0.99081986  1
  O  O401  1  0.88092481  0.99670884  0.49313235  1
  O  O402  1  0.87122948  0.98898672  1.00475211  1
  O  O403  1  0.12818094  0.00939889  -0.00159094  1
  O  O404  1  0.12073345  0.01097191  0.50862344  1
  O  O405  1  0.12211363  0.51188834  -0.00536223  1
  O  O406  1  0.11645164  0.49932975  0.51012909  1
  O  O407  1  0.61861701  0.00481268  0.00699789  1
  O  O408  1  0.60987746  -0.04866171  0.51922900  1
  O  O409  1  0.61903879  0.50584874  0.00942873  1
  O  O410  1  0.61212054  0.50684210  0.49124980  1
  O  O411  1  0.36220370  0.36513460  0.11428566  1
  O  O412  1  0.36919756  0.37127507  0.61340469  1
  O  O413  1  0.36133487  0.87656835  0.11562414  1
  O  O414  1  0.37116421  0.86721980  0.61805645  1
  O  O415  1  0.86800546  0.37782116  0.11105628  1
  O  O416  1  0.87336204  0.36508330  0.62881198  1
  O  O417  1  0.87030018  0.87195101  0.11944104  1
  O  O418  1  0.87363330  0.86876511  0.62465506  1
  O  O419  1  0.13091250  0.12301890  0.38616006  1
  O  O420  1  0.12522877  0.13165352  0.87923429  1
  O  O421  1  0.14005953  0.62905733  0.37599555  1
  O  O422  1  0.13087123  0.63115575  0.88160157  1
  O  O423  1  0.63548400  0.12186060  0.37403665  1
  O  O424  1  0.62910632  0.13129412  0.88167992  1
  O  O425  1  0.63052754  0.63156556  0.37954504  1
  O  O426  1  0.63866541  0.62251577  0.89580701  1
