# generated using pymatgen
data_V85Zn86O256
_symmetry_space_group_name_H-M   'P 1'
_cell_length_a   16.98429359
_cell_length_b   16.95635386
_cell_length_c   16.94332576
_cell_angle_alpha   90.00705933
_cell_angle_beta   90.02708196
_cell_angle_gamma   90.06940552
_symmetry_Int_Tables_number   1
_chemical_formula_structural   V85Zn86O256
_chemical_formula_sum   'V85 Zn86 O256'
_cell_volume   4879.53289540
_cell_formula_units_Z   1
loop_
 _symmetry_equiv_pos_site_id
 _symmetry_equiv_pos_as_xyz
  1  'x, y, z'
loop_
 _atom_site_type_symbol
 _atom_site_label
 _atom_site_symmetry_multiplicity
 _atom_site_fract_x
 _atom_site_fract_y
 _atom_site_fract_z
 _atom_site_occupancy
  V  V0  1  -0.00655337  0.49674896  0.01591464  1
  V  V1  1  -0.00493956  0.00804295  -0.00123824  1
  V  V2  1  0.38526579  0.24993598  0.63078137  1
  V  V3  1  0.62453616  0.87749853  0.74311094  1
  V  V4  1  0.11662170  0.62024468  0.02172456  1
  V  V5  1  0.37437185  0.75162578  0.62498202  1
  V  V6  1  0.74356562  0.50105746  0.25126936  1
  V  V7  1  0.24901958  0.74658759  -0.00224494  1
  V  V8  1  0.49834830  0.62983242  0.13276990  1
  V  V9  1  0.88006375  0.73829903  0.12939088  1
  V  V10  1  0.29417716  0.44439717  0.18971108  1
  V  V11  1  0.87662743  0.25091797  0.62596238  1
  V  V12  1  0.00019978  0.88046993  0.87642841  1
  V  V13  1  0.87210959  0.87395638  0.51294198  1
  V  V14  1  0.49273275  0.50049426  -0.00177091  1
  V  V15  1  0.00194347  0.12672891  0.62689626  1
  V  V16  1  0.86932360  0.62788753  0.74771671  1
  V  V17  1  0.24947076  0.88045681  0.63101294  1
  V  V18  1  0.74292299  0.37150970  0.12941025  1
  V  V19  1  0.12764229  0.12683805  0.00288923  1
  V  V20  1  0.87673227  0.25210899  0.11769449  1
  V  V21  1  0.37596892  0.87698451  0.49991688  1
  V  V22  1  0.37082439  0.62987162  0.25270514  1
  V  V23  1  0.62731898  0.12519058  0.49437254  1
  V  V24  1  0.12188098  0.87604293  0.25037373  1
  V  V25  1  0.39183864  0.11816158  0.75159103  1
  V  V26  1  0.49951596  0.62341613  0.62366070  1
  V  V27  1  0.74995607  0.62149105  0.87722457  1
  V  V28  1  0.25629716  0.24951853  0.50300101  1
  V  V29  1  0.24846557  0.00053059  0.24865853  1
  V  V30  1  0.74706270  0.25433553  -0.00392710  1
  V  V31  1  0.00064924  0.24537613  0.24248870  1
  V  V32  1  -0.00855505  0.37861941  0.87206882  1
  V  V33  1  0.12442732  0.38555044  0.23948473  1
  V  V34  1  0.62760214  0.62455616  0.49862707  1
  V  V35  1  0.61941269  0.37131915  0.74927131  1
  V  V36  1  0.87467347  0.12243435  0.75602519  1
  V  V37  1  0.50603603  0.38003927  0.37149863  1
  V  V38  1  0.50189432  0.75442698  0.75242056  1
  V  V39  1  0.25002034  0.75439719  0.49630627  1
  V  V40  1  0.75417466  -0.00381271  0.24806955  1
  V  V41  1  0.75017516  0.11774560  0.88000130  1
  V  V42  1  0.87658456  0.50855551  0.36553066  1
  V  V43  1  0.50343770  0.00057802  0.49915501  1
  V  V44  1  0.62444753  0.62241757  0.00382686  1
  V  V45  1  0.25373282  0.26135643  0.00719628  1
  V  V46  1  0.12352752  0.73977990  0.87473336  1
  V  V47  1  0.25292297  0.87332004  0.11922650  1
  V  V48  1  0.12580556  0.25031446  0.37399089  1
  V  V49  1  -0.00161757  0.50134415  0.50237353  1
  V  V50  1  0.25247869  0.60701047  0.37625930  1
  V  V51  1  0.61733996  0.24268156  0.87381805  1
  V  V52  1  0.00347826  0.37447769  0.37354477  1
  V  V53  1  0.12591050  0.12396364  0.50105084  1
  V  V54  1  0.49750884  0.37570559  0.87525605  1
  V  V55  1  0.25105783  0.12335207  0.37434781  1
  V  V56  1  0.75461882  0.74777842  0.00166554  1
  V  V57  1  0.75801335  0.11976326  0.37379265  1
  V  V58  1  0.37595043  0.00156300  0.37450626  1
  V  V59  1  -0.00603977  0.62999664  0.62443132  1
  V  V60  1  0.37188289  0.62119077  0.76030020  1
  V  V61  1  0.50964305  0.25137682  0.24612386  1
  V  V62  1  0.74951349  0.37663208  0.62648952  1
  V  V63  1  -0.01122087  0.87879218  0.37218619  1
  V  V64  1  0.75168375  0.25002132  0.49681132  1
  V  V65  1  0.37816085  0.38118874  0.49684733  1
  V  V66  1  0.62380725  0.74887050  0.37203412  1
  V  V67  1  0.75355418  -0.00805841  0.74253491  1
  V  V68  1  0.50044741  0.87241942  0.36965469  1
  V  V69  1  0.37367412  -0.01109908  0.88679029  1
  V  V70  1  0.11925046  0.00213481  0.12304662  1
  V  V71  1  -0.00470372  0.75432971  0.74631402  1
  V  V72  1  0.75338631  0.75436431  0.51070200  1
  V  V73  1  0.37490352  0.13092549  0.24181405  1
  V  V74  1  0.62556908  0.87307162  0.24754940  1
  V  V75  1  0.12314340  0.62953269  0.50215969  1
  V  V76  1  0.87741996  0.87757841  0.00042726  1
  V  V77  1  0.12756441  0.00463542  0.63511445  1
  V  V78  1  0.12543816  0.75427553  0.37421360  1
  V  V79  1  0.87839838  0.12059253  0.24507320  1
  V  V80  1  0.24711351  0.12123262  0.86390362  1
  V  V81  1  0.12551778  0.26110415  0.87357746  1
  V  V82  1  0.87513812  0.37605303  0.49820555  1
  V  V83  1  -0.00294571  0.73655157  0.24865222  1
  V  V84  1  -0.00467850  0.00126645  0.49625501  1
  Zn  Zn85  1  0.37818367  0.75334664  0.12464729  1
  Zn  Zn86  1  0.62420078  0.49489223  0.12730603  1
  Zn  Zn87  1  0.49783405  0.50356185  0.49386039  1
  Zn  Zn88  1  0.52765141  0.90428815  0.92390704  1
  Zn  Zn89  1  -0.00144564  0.25715336  0.75040605  1
  Zn  Zn90  1  0.62682966  0.75240334  0.87359417  1
  Zn  Zn91  1  0.36844587  0.49291525  0.87477206  1
  Zn  Zn92  1  0.62466664  0.49944949  0.62497964  1
  Zn  Zn93  1  0.21105944  0.56204802  0.81617608  1
  Zn  Zn94  1  0.12797017  0.87719847  0.75451187  1
  Zn  Zn95  1  0.37388401  0.26783097  0.12402649  1
  Zn  Zn96  1  0.25602472  0.39924650  0.65644385  1
  Zn  Zn97  1  0.50007543  0.12029790  0.09911412  1
  Zn  Zn98  1  0.75521193  0.63070872  0.37007309  1
  Zn  Zn99  1  0.63348604  -0.00415179  0.61846414  1
  Zn  Zn100  1  0.86863725  0.49402493  0.88340231  1
  Zn  Zn101  1  0.74915595  0.49832114  0.75279925  1
  Zn  Zn102  1  0.61879109  -0.00155511  0.09458815  1
  Zn  Zn103  1  0.51011020  0.12636925  0.62839337  1
  Zn  Zn104  1  0.75103009  0.87567272  0.12422961  1
  Zn  Zn105  1  0.12233339  0.49358386  0.64867423  1
  Zn  Zn106  1  0.63151408  0.25407530  0.36859988  1
  Zn  Zn107  1  0.18580770  0.18983971  0.18553237  1
  Zn  Zn108  1  0.20510994  0.23078412  0.70614090  1
  Zn  Zn109  1  0.18882564  0.68584465  0.19176364  1
  Zn  Zn110  1  0.18334114  0.69060914  0.68464070  1
  Zn  Zn111  1  0.68893213  0.18239977  0.18134922  1
  Zn  Zn112  1  0.68758979  0.18588825  0.68855777  1
  Zn  Zn113  1  0.69099402  0.68553885  0.18749359  1
  Zn  Zn114  1  0.68632714  0.68875285  0.68577217  1
  Zn  Zn115  1  0.31636758  0.31201709  0.31925203  1
  Zn  Zn116  1  0.31605942  0.30785909  0.81574931  1
  Zn  Zn117  1  0.31144499  0.81314687  0.30931648  1
  Zn  Zn118  1  0.31001472  0.80700006  0.81228352  1
  Zn  Zn119  1  0.81480350  0.31437572  0.30866560  1
  Zn  Zn120  1  0.81093955  0.30942547  0.81203511  1
  Zn  Zn121  1  0.81227209  0.81009876  0.31517872  1
  Zn  Zn122  1  0.81578324  0.81159578  0.81584965  1
  Zn  Zn123  1  0.19040663  0.44119977  0.50415322  1
  Zn  Zn124  1  0.18048603  0.44018705  0.94382194  1
  Zn  Zn125  1  0.18406429  0.93893811  0.44036056  1
  Zn  Zn126  1  0.18851246  0.93698571  0.93532718  1
  Zn  Zn127  1  0.68696690  0.43906667  0.43592062  1
  Zn  Zn128  1  0.68489538  0.43392858  0.93966871  1
  Zn  Zn129  1  0.69188775  0.93830052  0.43176539  1
  Zn  Zn130  1  0.69825665  0.93270259  0.92641347  1
  Zn  Zn131  1  0.30879128  0.06515498  0.05970793  1
  Zn  Zn132  1  0.31449506  0.06460898  0.56721392  1
  Zn  Zn133  1  0.31016510  0.57072191  0.05279995  1
  Zn  Zn134  1  0.31546008  0.56683307  0.56228644  1
  Zn  Zn135  1  0.81021358  0.06419481  0.06496364  1
  Zn  Zn136  1  0.81754305  0.06243315  0.56345196  1
  Zn  Zn137  1  0.81446377  0.55952663  0.06815857  1
  Zn  Zn138  1  0.81208403  0.56425268  0.56032261  1
  Zn  Zn139  1  0.45467394  0.44580807  0.19380621  1
  Zn  Zn140  1  0.43898854  0.43948165  0.68687871  1
  Zn  Zn141  1  0.43520250  0.93617117  0.18603508  1
  Zn  Zn142  1  0.43921361  0.94325255  0.69133434  1
  Zn  Zn143  1  0.93114804  0.43133476  0.18802118  1
  Zn  Zn144  1  0.93530929  0.44204295  0.69119072  1
  Zn  Zn145  1  0.93686303  0.93433054  0.18324022  1
  Zn  Zn146  1  0.93850750  0.94223941  0.68878194  1
  Zn  Zn147  1  0.06058516  0.06322645  0.31260033  1
  Zn  Zn148  1  0.06192439  0.06680012  0.81554520  1
  Zn  Zn149  1  0.06803077  0.56156979  0.31697296  1
  Zn  Zn150  1  0.04520049  0.56162732  0.81589045  1
  Zn  Zn151  1  0.56261091  0.06033558  0.23626159  1
  Zn  Zn152  1  0.55907067  0.06814350  0.92487877  1
  Zn  Zn153  1  0.56355834  0.56231616  0.31182160  1
  Zn  Zn154  1  0.56413764  0.56115457  0.81096103  1
  Zn  Zn155  1  0.44159227  0.18988583  0.43185099  1
  Zn  Zn156  1  0.42717611  0.19554643  0.93244150  1
  Zn  Zn157  1  0.43704194  0.68771451  0.43476612  1
  Zn  Zn158  1  0.45354674  0.72152090  0.95465760  1
  Zn  Zn159  1  0.93668480  0.18714626  0.43433417  1
  Zn  Zn160  1  0.93672096  0.18919966  0.93734644  1
  Zn  Zn161  1  0.93537588  0.69242918  0.43579315  1
  Zn  Zn162  1  0.93868069  0.68519428  0.93799436  1
  Zn  Zn163  1  0.06067112  0.31550826  0.05912291  1
  Zn  Zn164  1  0.06532857  0.31212923  0.56501304  1
  Zn  Zn165  1  0.06315860  0.81181468  0.06379946  1
  Zn  Zn166  1  0.06102276  0.81707816  0.56408249  1
  Zn  Zn167  1  0.56101260  0.30817225  0.05745394  1
  Zn  Zn168  1  0.56397061  0.31113648  0.55874597  1
  Zn  Zn169  1  0.56681360  0.80699372  0.06983171  1
  Zn  Zn170  1  0.56484013  0.81190308  0.56352468  1
  O  O171  1  0.12865623  0.11707788  0.11258025  1
  O  O172  1  0.11867498  0.11924557  0.61756976  1
  O  O173  1  0.11642840  0.62955040  0.11998433  1
  O  O174  1  0.11043446  0.62725049  0.61749976  1
  O  O175  1  0.61540770  0.11015577  0.13946216  1
  O  O176  1  0.62830847  0.12245025  0.61002497  1
  O  O177  1  0.61916200  0.62219136  0.12028437  1
  O  O178  1  0.61742284  0.62455128  0.61626945  1
  O  O179  1  0.39247371  0.36853568  0.38464587  1
  O  O180  1  0.39303238  0.37393447  0.86632023  1
  O  O181  1  0.38250104  0.87812381  0.37823692  1
  O  O182  1  0.36211649  0.89022211  0.87087403  1
  O  O183  1  0.88638846  0.38086771  0.37834014  1
  O  O184  1  0.88653801  0.37281592  0.87510265  1
  O  O185  1  0.88703187  0.87316232  0.38146035  1
  O  O186  1  0.88736647  0.86837482  0.88991804  1
  O  O187  1  0.25371642  0.00512519  0.37071198  1
  O  O188  1  0.25562572  0.01121264  0.87721944  1
  O  O189  1  0.24316672  0.51192783  0.39049817  1
  O  O190  1  0.25859826  0.50211144  0.89499939  1
  O  O191  1  0.75476219  0.00882685  0.36299737  1
  O  O192  1  0.75171758  0.01233994  0.86219228  1
  O  O193  1  0.75787847  0.49824368  0.36488702  1
  O  O194  1  0.75144491  0.50690100  0.87630108  1
  O  O195  1  0.24648649  0.50026226  0.12321179  1
  O  O196  1  0.23805181  0.49787967  0.60312970  1
  O  O197  1  0.23923988  0.99366162  0.12663481  1
  O  O198  1  0.23914798  0.99265810  0.61697829  1
  O  O199  1  0.75033035  0.49129995  0.13547091  1
  O  O200  1  0.75035663  0.48653365  0.62303305  1
  O  O201  1  0.74461029  0.99785582  0.13605521  1
  O  O202  1  0.75356847  1.00271793  0.63819857  1
  O  O203  1  0.00656276  0.36620908  0.25481431  1
  O  O204  1  -0.00239589  0.37703720  0.76554044  1
  O  O205  1  0.00508879  0.87384601  0.25765460  1
  O  O206  1  -0.00159063  0.87016807  0.75838064  1
  O  O207  1  0.49860084  0.36595376  0.26193349  1
  O  O208  1  0.51288135  0.38003414  0.75449365  1
  O  O209  1  0.50737600  0.87668834  0.26317700  1
  O  O210  1  0.50914887  0.86650769  0.74163345  1
  O  O211  1  0.48709452  0.14116725  0.26024802  1
  O  O212  1  0.48990895  0.12044011  0.74929286  1
  O  O213  1  0.48492154  0.61141239  0.24483788  1
  O  O214  1  0.49382516  0.62984920  0.73982976  1
  O  O215  1  0.99295774  0.13571906  0.25424008  1
  O  O216  1  0.98900608  0.12347002  0.74599407  1
  O  O217  1  1.00431814  0.63800152  0.26059480  1
  O  O218  1  0.98880638  0.63446909  0.74352019  1
  O  O219  1  0.35847585  0.25569305  0.00249033  1
  O  O220  1  0.37302835  0.25403519  0.50474335  1
  O  O221  1  0.35091251  0.73248158  0.00525947  1
  O  O222  1  0.37007290  0.75790384  0.50462706  1
  O  O223  1  0.86778805  0.24292339  0.01182974  1
  O  O224  1  0.87127504  0.25636823  0.50493291  1
  O  O225  1  0.87263937  0.75462353  0.00660092  1
  O  O226  1  0.86523000  0.76099723  0.49469305  1
  O  O227  1  0.13510957  0.24270515  0.49313596  1
  O  O228  1  0.12717846  0.24221320  0.99469934  1
  O  O229  1  0.12855036  0.74813290  0.49509192  1
  O  O230  1  0.12204112  0.73821502  0.99458103  1
  O  O231  1  0.63565843  0.24194049  0.49789410  1
  O  O232  1  0.63558486  0.25223317  0.98715390  1
  O  O233  1  0.63151703  0.74189963  0.49413439  1
  O  O234  1  0.63886046  0.73697278  1.00097396  1
  O  O235  1  0.49320143  0.25316737  0.13471576  1
  O  O236  1  0.48891169  0.24495884  0.61760670  1
  O  O237  1  0.49826696  0.73366044  0.13179183  1
  O  O238  1  0.49591380  0.74082246  0.62993557  1
  O  O239  1  0.99145322  0.25458238  0.13236084  1
  O  O240  1  0.99595823  0.24518974  0.62658561  1
  O  O241  1  0.99272779  0.75682854  0.13741463  1
  O  O242  1  1.00331508  0.74629479  0.63784215  1
  O  O243  1  0.00268546  0.25710861  0.36676429  1
  O  O244  1  0.00421668  0.26428183  0.88081247  1
  O  O245  1  0.00589461  0.75971353  0.36946030  1
  O  O246  1  0.00490918  0.75607341  0.86667172  1
  O  O247  1  0.50550523  0.25926513  0.36468313  1
  O  O248  1  0.51171216  0.25952975  0.87618435  1
  O  O249  1  0.51371282  0.75781968  0.38103136  1
  O  O250  1  0.50682690  0.73971421  0.85447065  1
  O  O251  1  0.24780315  0.12837505  0.49219574  1
  O  O252  1  0.24144179  0.13281413  0.99179403  1
  O  O253  1  0.24723337  0.63623353  0.49049222  1
  O  O254  1  0.22578999  0.63330792  1.00600120  1
  O  O255  1  0.75180038  0.12810283  0.49254673  1
  O  O256  1  0.75515166  0.13252661  0.98824547  1
  O  O257  1  0.74347155  0.63240437  0.49583874  1
  O  O258  1  0.74687759  0.62810451  0.99604678  1
  O  O259  1  0.23744222  0.35864389  0.00329746  1
  O  O260  1  0.26578597  0.35896331  0.48432335  1
  O  O261  1  0.23673391  0.86244653  0.01025095  1
  O  O262  1  0.25554124  0.87222408  0.50669717  1
  O  O263  1  0.75060438  0.36164929  0.00506152  1
  O  O264  1  0.75618385  0.37115875  0.50466232  1
  O  O265  1  0.76060446  0.86556808  -0.00161977  1
  O  O266  1  0.76114197  0.86946485  0.49423762  1
  O  O267  1  0.12029340  0.48444786  0.25219903  1
  O  O268  1  0.12750562  0.51711505  0.75663882  1
  O  O269  1  0.12837035  0.99855634  0.24146364  1
  O  O270  1  0.11964900  0.99943215  0.73821027  1
  O  O271  1  0.63921438  0.49783667  0.24993437  1
  O  O272  1  0.62979871  0.48927046  0.74580838  1
  O  O273  1  0.63797513  0.98136859  0.26362670  1
  O  O274  1  0.64346542  0.99179463  0.74334080  1
  O  O275  1  0.36634544  0.00724728  0.25709812  1
  O  O276  1  0.37199053  0.01411968  0.75326906  1
  O  O277  1  0.35979757  0.50437937  0.24377225  1
  O  O278  1  0.37621357  0.51553397  0.75033723  1
  O  O279  1  0.86978901  0.00851913  0.24168028  1
  O  O280  1  0.86574255  0.00869466  0.74791408  1
  O  O281  1  0.86482285  0.49372608  0.25859705  1
  O  O282  1  0.87118216  0.51529853  0.75472428  1
  O  O283  1  0.11099948  0.36756908  0.36826244  1
  O  O284  1  0.11093335  0.36715586  0.88246760  1
  O  O285  1  0.11655555  0.87188316  0.37030472  1
  O  O286  1  0.11370912  0.86714909  0.87488219  1
  O  O287  1  0.61109677  0.37077447  0.38242443  1
  O  O288  1  0.61888995  0.36825448  0.86651120  1
  O  O289  1  0.61815273  0.86687967  0.37214575  1
  O  O290  1  0.62489388  0.86988036  0.85839722  1
  O  O291  1  0.37588970  0.12333313  0.13631349  1
  O  O292  1  0.38056624  0.12795120  0.63646790  1
  O  O293  1  0.38014375  0.62550812  0.13449569  1
  O  O294  1  0.38317748  0.63366128  0.62742752  1
  O  O295  1  0.86899340  0.13542982  0.13808405  1
  O  O296  1  0.88220010  0.13158690  0.63248437  1
  O  O297  1  0.87481471  0.63905414  0.12407546  1
  O  O298  1  0.88507166  0.62269273  0.63111610  1
  O  O299  1  0.25283793  0.24468913  0.11188278  1
  O  O300  1  0.26527633  0.23790123  0.60794243  1
  O  O301  1  0.24437083  0.75840881  0.11903602  1
  O  O302  1  0.25250007  0.75835482  0.61456662  1
  O  O303  1  0.75382640  0.25337017  0.11777198  1
  O  O304  1  0.75593515  0.26009419  0.61851587  1
  O  O305  1  0.75817827  0.75074695  0.11515219  1
  O  O306  1  0.74869022  0.74767077  0.61009746  1
  O  O307  1  0.24675050  0.24028102  0.38104868  1
  O  O308  1  0.24047862  0.24362002  0.88793084  1
  O  O309  1  0.24200580  0.75452546  0.38271583  1
  O  O310  1  0.23526302  0.75618637  0.88422775  1
  O  O311  1  0.75251531  0.24490842  0.37964847  1
  O  O312  1  0.74442028  0.24324460  0.88122038  1
  O  O313  1  0.73847181  0.74908190  0.38217319  1
  O  O314  1  0.75119272  0.74240765  0.88768731  1
  O  O315  1  0.00630210  0.11347766  -0.00672083  1
  O  O316  1  0.00307503  0.11868306  0.50288048  1
  O  O317  1  0.00858407  0.61489440  -0.00251548  1
  O  O318  1  -0.00121409  0.62312508  0.50725700  1
  O  O319  1  0.50194248  0.13814936  -0.01011260  1
  O  O320  1  0.51222034  0.11730259  0.49389429  1
  O  O321  1  0.50985684  0.62437570  0.00668731  1
  O  O322  1  0.50728070  0.62581551  0.50481816  1
  O  O323  1  0.49535961  0.37588945  0.49088336  1
  O  O324  1  0.50824317  0.38800153  0.98930389  1
  O  O325  1  0.49658385  0.87973671  0.49282445  1
  O  O326  1  0.48963283  0.82654681  0.99238990  1
  O  O327  1  0.99480162  0.38305855  0.49241141  1
  O  O328  1  1.00239729  0.39003023  0.99290972  1
  O  O329  1  0.99492637  0.88213839  0.49275611  1
  O  O330  1  0.99668474  0.88397303  0.99522811  1
  O  O331  1  0.50307294  0.48517257  0.37425093  1
  O  O332  1  0.50014902  0.49384139  0.88141464  1
  O  O333  1  0.49252267  0.98881550  0.38647771  1
  O  O334  1  0.47968295  0.99554012  0.87205191  1
  O  O335  1  0.99222518  0.49337313  0.37763526  1
  O  O336  1  0.99162079  0.48913811  0.88494062  1
  O  O337  1  1.00595040  0.99145439  0.38413976  1
  O  O338  1  1.00431011  0.99028327  0.88402480  1
  O  O339  1  0.01276334  -0.00516560  0.11615304  1
  O  O340  1  0.00822866  0.00651319  0.61752975  1
  O  O341  1  -0.00554629  0.49273886  0.11532157  1
  O  O342  1  0.00017573  0.50837621  0.61693200  1
  O  O343  1  0.50689328  0.00788486  0.14254560  1
  O  O344  1  0.50246896  0.00200748  0.60905928  1
  O  O345  1  0.50660868  0.50949664  0.11624844  1
  O  O346  1  0.50173829  0.51315973  0.62056169  1
  O  O347  1  0.23933272  0.37682620  0.25407029  1
  O  O348  1  0.23671287  0.33696501  0.74418183  1
  O  O349  1  0.24026017  0.88251564  0.24548000  1
  O  O350  1  0.24685131  0.86763075  0.73408564  1
  O  O351  1  0.75089298  0.38468972  0.24281300  1
  O  O352  1  0.74442452  0.37557697  0.74121982  1
  O  O353  1  0.74704527  0.88117511  0.24995780  1
  O  O354  1  0.75084349  0.88689110  0.75655923  1
  O  O355  1  0.25489886  0.12080579  0.25414100  1
  O  O356  1  0.24827460  0.13405459  0.76296214  1
  O  O357  1  0.25190897  0.62404044  0.26752355  1
  O  O358  1  0.26692724  0.63694160  0.74619356  1
  O  O359  1  0.75771324  0.11769611  0.25604142  1
  O  O360  1  0.75754129  0.11665925  0.75445201  1
  O  O361  1  0.74968563  0.60785834  0.25154427  1
  O  O362  1  0.75381164  0.62590123  0.75722795  1
  O  O363  1  0.36848655  0.12133833  0.36676997  1
  O  O364  1  0.36629194  0.12072987  0.86337019  1
  O  O365  1  0.36093557  0.62640304  0.37127461  1
  O  O366  1  0.38240749  0.62902670  0.85802342  1
  O  O367  1  0.86651017  0.13060107  0.36199463  1
  O  O368  1  0.86660549  0.13272514  0.86302953  1
  O  O369  1  0.87419035  0.61207671  0.37963457  1
  O  O370  1  0.86234724  0.62552464  0.86934816  1
  O  O371  1  0.12211764  0.36988297  0.14132542  1
  O  O372  1  0.13768531  0.38722171  0.60014400  1
  O  O373  1  0.13083357  0.88287286  0.13153086  1
  O  O374  1  0.13212529  0.88610743  0.62527985  1
  O  O375  1  0.63846188  0.37419122  0.11895865  1
  O  O376  1  0.63245145  0.37347879  0.63042244  1
  O  O377  1  0.62912025  0.87645294  0.13458957  1
  O  O378  1  0.62670254  0.87662361  0.63536088  1
  O  O379  1  0.11753524  0.25372585  0.25518298  1
  O  O380  1  0.11112559  0.23482707  0.77248058  1
  O  O381  1  0.11784197  0.75744304  0.25564441  1
  O  O382  1  0.11470790  0.75267873  0.75751431  1
  O  O383  1  0.61252971  0.24502049  0.24911598  1
  O  O384  1  0.63239571  0.25962602  0.75930133  1
  O  O385  1  0.63367628  0.76121755  0.25830566  1
  O  O386  1  0.61921878  0.75740156  0.74738133  1
  O  O387  1  0.37930637  0.24458567  0.24650696  1
  O  O388  1  0.37453995  0.23355967  0.74120655  1
  O  O389  1  0.36814219  0.73421807  0.24817594  1
  O  O390  1  0.38324986  0.74555296  0.74271429  1
  O  O391  1  0.88375400  0.24398757  0.24232239  1
  O  O392  1  0.87661561  0.24189165  0.74233767  1
  O  O393  1  0.88441666  0.75573239  0.24274172  1
  O  O394  1  0.88157490  0.73908042  0.75445036  1
  O  O395  1  0.37822709  0.48479428  0.50452016  1
  O  O396  1  0.39096763  0.51045149  0.99759911  1
  O  O397  1  0.38200179  0.99620237  0.49491125  1
  O  O398  1  0.36980765  1.00138148  0.98677062  1
  O  O399  1  0.88350082  0.49604575  0.49209528  1
  O  O400  1  0.88910566  0.50746944  0.99985100  1
  O  O401  1  0.88856669  0.99439234  0.50252391  1
  O  O402  1  0.88442079  0.99241899  1.00855476  1
  O  O403  1  0.11921480  0.00664220  0.00556019  1
  O  O404  1  0.11416397  0.00556990  0.50667050  1
  O  O405  1  0.11017213  0.51414369  0.00224488  1
  O  O406  1  0.10407716  0.51459681  0.48606165  1
  O  O407  1  0.61080845  -0.01951572  -0.01828909  1
  O  O408  1  0.62057519  0.00550340  0.49710108  1
  O  O409  1  0.62087196  0.51217389  0.00070735  1
  O  O410  1  0.62495745  0.51417370  0.50035272  1
  O  O411  1  0.36384080  0.38697526  0.14018041  1
  O  O412  1  0.37326509  0.36629230  0.62101419  1
  O  O413  1  0.35774001  0.87126359  0.13364820  1
  O  O414  1  0.36806474  0.87283112  0.62019972  1
  O  O415  1  0.86099072  0.36025443  0.12953832  1
  O  O416  1  0.86963228  0.37179767  0.62051907  1
  O  O417  1  0.87393115  0.86628658  0.11265119  1
  O  O418  1  0.88357801  0.87630918  0.61203414  1
  O  O419  1  0.13080552  0.12995340  0.38017454  1
  O  O420  1  0.13077251  0.12827017  0.88660387  1
  O  O421  1  0.13586481  0.63436640  0.38057659  1
  O  O422  1  0.11974555  0.63572897  0.87616647  1
  O  O423  1  0.64330565  0.12938535  0.38670916  1
  O  O424  1  0.63690955  0.13465658  0.86787838  1
  O  O425  1  0.62587990  0.63256717  0.38055385  1
  O  O426  1  0.63655257  0.62690854  0.88108402  1
