# generated using pymatgen
data_V85Zn86O256
_symmetry_space_group_name_H-M   'P 1'
_cell_length_a   16.91293156
_cell_length_b   16.91610197
_cell_length_c   16.91921837
_cell_angle_alpha   89.97410467
_cell_angle_beta   90.01188497
_cell_angle_gamma   89.95686541
_symmetry_Int_Tables_number   1
_chemical_formula_structural   V85Zn86O256
_chemical_formula_sum   'V85 Zn86 O256'
_cell_volume   4840.60120505
_cell_formula_units_Z   1
loop_
 _symmetry_equiv_pos_site_id
 _symmetry_equiv_pos_as_xyz
  1  'x, y, z'
loop_
 _atom_site_type_symbol
 _atom_site_label
 _atom_site_symmetry_multiplicity
 _atom_site_fract_x
 _atom_site_fract_y
 _atom_site_fract_z
 _atom_site_occupancy
  V  V0  1  0.49681104  0.37467004  0.87473294  1
  V  V1  1  0.12515149  0.62272084  0.50104385  1
  V  V2  1  0.49983079  0.00376238  0.51139677  1
  V  V3  1  -0.00112446  0.75095149  0.75275153  1
  V  V4  1  0.00326410  0.62457164  0.12267807  1
  V  V5  1  0.74852065  0.74952553  0.50541758  1
  V  V6  1  0.75064487  0.24694841  -0.00251350  1
  V  V7  1  0.25189608  0.12441953  0.87587879  1
  V  V8  1  0.87161893  0.62561948  0.75284531  1
  V  V9  1  0.37671488  0.87253654  0.51022056  1
  V  V10  1  0.74772652  0.50042358  0.74843688  1
  V  V11  1  0.74806080  0.62563882  0.37393609  1
  V  V12  1  0.37530435  0.00365990  0.37578569  1
  V  V13  1  0.00205462  0.75060144  0.24951460  1
  V  V14  1  0.37239790  0.37336615  0.01401623  1
  V  V15  1  0.24652966  0.37554836  0.63102960  1
  V  V16  1  0.87295641  0.11980791  0.74578420  1
  V  V17  1  0.87890883  0.24489638  0.62335382  1
  V  V18  1  0.00182265  0.12158753  0.13501798  1
  V  V19  1  0.11955712  0.00683133  0.62109586  1
  V  V20  1  0.00486727  0.25167189  0.74956100  1
  V  V21  1  0.11710744  0.12392658  -0.00252984  1
  V  V22  1  0.49970017  0.87775040  0.37612278  1
  V  V23  1  0.87390467  0.75206974  0.12205746  1
  V  V24  1  0.86509291  -0.00123767  0.87231843  1
  V  V25  1  0.61765685  0.00528149  0.13323216  1
  V  V26  1  0.87546213  0.62521482  0.24898076  1
  V  V27  1  0.49752015  0.24965017  0.23602810  1
  V  V28  1  0.75099813  0.37442354  0.62181719  1
  V  V29  1  0.62360823  0.24905594  0.87204942  1
  V  V30  1  0.74697783  0.88233966  0.13069215  1
  V  V31  1  0.25260647  0.62338670  0.37401670  1
  V  V32  1  0.37751885  0.87737503  -0.01328006  1
  V  V33  1  0.87677019  0.87995509  0.00139458  1
  V  V34  1  0.25449179  0.00007221  0.75097789  1
  V  V35  1  0.37670505  0.12497702  0.75156315  1
  V  V36  1  0.11792783  0.36028920  0.24640914  1
  V  V37  1  0.50264026  0.75425412  0.77004492  1
  V  V38  1  0.00335934  0.49822013  0.00047111  1
  V  V39  1  0.37960863  0.49638412  0.38586643  1
  V  V40  1  0.62114968  0.61805334  0.50031121  1
  V  V41  1  0.51442828  0.62314350  0.12354798  1
  V  V42  1  0.00044196  0.88534626  0.87855309  1
  V  V43  1  0.25390633  0.25147209  0.01265909  1
  V  V44  1  0.61098907  0.49636482  0.62395953  1
  V  V45  1  0.49373978  0.63896804  0.62199394  1
  V  V46  1  0.50289414  0.75276603  0.25036544  1
  V  V47  1  0.25569901  0.74844682  0.50921158  1
  V  V48  1  0.37671514  0.62435855  0.24826680  1
  V  V49  1  0.88045929  0.50032956  0.37751567  1
  V  V50  1  0.88148709  0.24696798  0.12495175  1
  V  V51  1  0.49448104  -0.00106902  -0.01133853  1
  V  V52  1  0.37890193  0.12940762  0.23775916  1
  V  V53  1  0.25305454  -0.00263186  0.24419609  1
  V  V54  1  0.25278113  0.48881362  0.24233592  1
  V  V55  1  0.24485097  0.12780073  0.37599929  1
  V  V56  1  0.87097983  0.75117145  0.62754956  1
  V  V57  1  0.74774378  0.38045960  0.12690338  1
  V  V58  1  0.73398005  0.62770827  0.87969823  1
  V  V59  1  0.37589134  0.25393672  0.61954293  1
  V  V60  1  0.61719585  0.12449578  0.00417812  1
  V  V61  1  -0.00103859  0.62379133  0.62493894  1
  V  V62  1  0.25035204  0.75605770  0.00583444  1
  V  V63  1  0.49859092  0.37296492  0.38740078  1
  V  V64  1  0.24374962  0.49879394  0.75490837  1
  V  V65  1  0.63260340  0.12018184  0.50109863  1
  V  V66  1  0.75096069  0.24865928  0.48964643  1
  V  V67  1  0.24554321  0.25992273  0.49336406  1
  V  V68  1  0.87360136  0.50136821  0.87604053  1
  V  V69  1  0.37358352  0.76013029  0.12691599  1
  V  V70  1  0.12645187  0.75045073  0.37571736  1
  V  V71  1  0.13160997  0.87466321  0.24729716  1
  V  V72  1  0.87713678  0.37342622  -0.00066568  1
  V  V73  1  0.74149176  0.88989035  0.63056594  1
  V  V74  1  0.51253882  0.50244710  0.00465605  1
  V  V75  1  0.12563242  0.87669732  0.74853134  1
  V  V76  1  0.85428121  0.11533540  0.24677792  1
  V  V77  1  0.85624796  -0.00240345  0.36939842  1
  V  V78  1  0.37419004  0.50256525  0.87716548  1
  V  V79  1  0.00033715  0.88070102  0.37650901  1
  V  V80  1  0.73488147  0.74854066  -0.00131940  1
  V  V81  1  0.62345946  0.88390178  0.76278921  1
  V  V82  1  0.12618913  0.75011441  0.87700608  1
  V  V83  1  0.62578550  0.37991633  0.24820128  1
  V  V84  1  0.12458753  -0.00598383  0.11887412  1
  Zn  Zn85  1  0.11792183  0.13242285  0.49646290  1
  Zn  Zn86  1  0.62416366  0.37249538  0.74903597  1
  Zn  Zn87  1  0.00387704  0.49464690  0.49877675  1
  Zn  Zn88  1  0.74774427  0.50136727  0.24582958  1
  Zn  Zn89  1  0.37366504  0.63185428  0.74684150  1
  Zn  Zn90  1  0.13383014  0.49343160  0.12177173  1
  Zn  Zn91  1  0.87408808  0.87734477  0.50250475  1
  Zn  Zn92  1  0.25112395  0.87329494  0.62716500  1
  Zn  Zn93  1  0.12867131  0.25625091  0.87208870  1
  Zn  Zn94  1  0.25347861  0.62822377  0.87602897  1
  Zn  Zn95  1  -0.00583740  0.00587531  0.50253227  1
  Zn  Zn96  1  0.49846185  0.24984560  0.74865580  1
  Zn  Zn97  1  0.50427997  0.12586181  0.62801887  1
  Zn  Zn98  1  0.13104869  0.62393456  0.00137139  1
  Zn  Zn99  1  0.74578156  0.11889253  0.87010690  1
  Zn  Zn100  1  0.00638142  0.37828999  0.86760346  1
  Zn  Zn101  1  0.62355786  0.75089260  0.37631004  1
  Zn  Zn102  1  0.02206202  0.34355129  0.38226608  1
  Zn  Zn103  1  0.62665978  0.24624956  0.37169921  1
  Zn  Zn104  1  0.63059277  0.88460072  0.25718518  1
  Zn  Zn105  1  0.12201394  0.49518040  0.63120472  1
  Zn  Zn106  1  0.88342205  0.36982862  0.49618175  1
  Zn  Zn107  1  0.18850574  0.18312542  0.18801739  1
  Zn  Zn108  1  0.18965810  0.18649497  0.68357341  1
  Zn  Zn109  1  0.19029439  0.68480284  0.18682930  1
  Zn  Zn110  1  0.18756058  0.68431945  0.69009763  1
  Zn  Zn111  1  0.68385831  0.19421454  0.18343900  1
  Zn  Zn112  1  0.69087265  0.18407201  0.68460236  1
  Zn  Zn113  1  0.68785215  0.69417105  0.18843051  1
  Zn  Zn114  1  0.68012518  0.68887635  0.69149937  1
  Zn  Zn115  1  0.31757703  0.31323518  0.31113093  1
  Zn  Zn116  1  0.31171944  0.31141994  0.81422895  1
  Zn  Zn117  1  0.31513316  0.81329403  0.31787719  1
  Zn  Zn118  1  0.31520847  0.81062641  0.81059756  1
  Zn  Zn119  1  0.84242619  0.29945468  0.32029220  1
  Zn  Zn120  1  0.81545738  0.31264859  0.81017863  1
  Zn  Zn121  1  0.81307704  0.81116266  0.31245751  1
  Zn  Zn122  1  0.80540003  0.81283914  0.81416306  1
  Zn  Zn123  1  0.18910266  0.43675692  0.43293694  1
  Zn  Zn124  1  0.18635364  0.43268503  0.93643478  1
  Zn  Zn125  1  0.19041363  0.93825647  0.43681829  1
  Zn  Zn126  1  0.19266586  0.93753284  0.93695514  1
  Zn  Zn127  1  0.68699407  0.43629770  0.43522416  1
  Zn  Zn128  1  0.68879467  0.43509066  0.93627068  1
  Zn  Zn129  1  0.68349563  0.93626636  0.44497969  1
  Zn  Zn130  1  0.68521209  0.93632821  0.94396541  1
  Zn  Zn131  1  0.31166814  0.06159263  0.06126743  1
  Zn  Zn132  1  0.30942604  0.06527181  0.56430424  1
  Zn  Zn133  1  0.32093483  0.56894431  0.06181588  1
  Zn  Zn134  1  0.31240537  0.55892191  0.56539043  1
  Zn  Zn135  1  0.80917096  0.06026754  0.05909694  1
  Zn  Zn136  1  0.81576306  0.06397787  0.55857375  1
  Zn  Zn137  1  0.81214551  0.56437491  0.06013272  1
  Zn  Zn138  1  0.81073952  0.56086284  0.56220303  1
  Zn  Zn139  1  0.44178133  0.43890259  0.19053811  1
  Zn  Zn140  1  0.43040781  0.43562417  0.68989029  1
  Zn  Zn141  1  0.44051202  0.94117562  0.18432801  1
  Zn  Zn142  1  0.43886867  0.93433887  0.69453625  1
  Zn  Zn143  1  0.93839166  0.43642793  0.18913772  1
  Zn  Zn144  1  0.93551786  0.43548136  0.68522666  1
  Zn  Zn145  1  0.94155038  0.93953169  0.18714185  1
  Zn  Zn146  1  0.93589935  0.93696658  0.68801600  1
  Zn  Zn147  1  0.06174639  0.06311028  0.31122914  1
  Zn  Zn148  1  0.06067371  0.06704503  0.80831794  1
  Zn  Zn149  1  0.06663759  0.55886138  0.30953122  1
  Zn  Zn150  1  0.06300053  0.56451611  0.81532915  1
  Zn  Zn151  1  0.56310355  0.06726540  0.31784020  1
  Zn  Zn152  1  0.56170592  0.06240865  0.81319065  1
  Zn  Zn153  1  0.56191370  0.55941877  0.31194975  1
  Zn  Zn154  1  0.55796907  0.56139381  0.80802795  1
  Zn  Zn155  1  0.43572260  0.18875215  0.43578665  1
  Zn  Zn156  1  0.43524813  0.18570529  0.93904518  1
  Zn  Zn157  1  0.43759586  0.68638161  0.43771131  1
  Zn  Zn158  1  0.43924272  0.68550238  0.94263779  1
  Zn  Zn159  1  0.93881809  0.18117458  0.43115457  1
  Zn  Zn160  1  0.93955865  0.18362321  0.93381665  1
  Zn  Zn161  1  0.93692257  0.68926441  0.43853588  1
  Zn  Zn162  1  0.93400071  0.68994917  0.93830563  1
  Zn  Zn163  1  0.06725887  0.31209591  0.06412113  1
  Zn  Zn164  1  0.06346272  0.31249132  0.56621448  1
  Zn  Zn165  1  0.06219559  0.81491967  0.06167442  1
  Zn  Zn166  1  0.06314072  0.81430839  0.56263796  1
  Zn  Zn167  1  0.56382008  0.31657912  0.06049458  1
  Zn  Zn168  1  0.56516140  0.30673614  0.56232942  1
  Zn  Zn169  1  0.55954860  0.81948934  0.06457988  1
  Zn  Zn170  1  0.56698528  0.81425168  0.56390097  1
  O  O171  1  0.11835566  0.11705505  0.12032353  1
  O  O172  1  0.12793685  0.10961355  0.62241134  1
  O  O173  1  0.11264030  0.62432126  0.12371769  1
  O  O174  1  0.11603584  0.62446202  0.61829877  1
  O  O175  1  0.62871339  0.12046335  0.11180536  1
  O  O176  1  0.62148481  0.13176592  0.60888836  1
  O  O177  1  0.61395641  0.62784178  0.13193586  1
  O  O178  1  0.61485122  0.61801609  0.61910391  1
  O  O179  1  0.38923755  0.38156531  0.37234236  1
  O  O180  1  0.38117234  0.38272372  0.88216551  1
  O  O181  1  0.38494987  0.88153933  0.38486016  1
  O  O182  1  0.37370105  0.87398668  0.88728287  1
  O  O183  1  0.85914518  0.39936149  0.37862874  1
  O  O184  1  0.87766425  0.38454341  0.88121249  1
  O  O185  1  0.88133504  0.88331187  0.37259540  1
  O  O186  1  0.88021488  0.87964569  0.87964368  1
  O  O187  1  0.25588093  0.00688584  0.36659661  1
  O  O188  1  0.24382722  0.01360406  0.86565317  1
  O  O189  1  0.25900493  0.50484306  0.36484638  1
  O  O190  1  0.25733402  0.50225123  0.87256523  1
  O  O191  1  0.75772091  -0.01339349  0.37129989  1
  O  O192  1  0.76146378  -0.00274697  0.87882188  1
  O  O193  1  0.75550490  0.51503163  0.37534377  1
  O  O194  1  0.75513103  0.50526506  0.87023441  1
  O  O195  1  0.25501598  0.50880775  0.13929104  1
  O  O196  1  0.25036175  0.49311177  0.63548510  1
  O  O197  1  0.24286112  1.00429341  0.13751459  1
  O  O198  1  0.23993689  0.99704789  0.63330979  1
  O  O199  1  0.75956885  0.48498737  0.12500347  1
  O  O200  1  0.74203080  0.49363577  0.62882755  1
  O  O201  1  0.73515321  0.99126554  0.11503568  1
  O  O202  1  0.75341245  0.98744135  0.62238337  1
  O  O203  1  0.01525306  0.37912818  0.25203424  1
  O  O204  1  -0.00828016  0.35774041  0.74901596  1
  O  O205  1  0.00835455  0.86833767  0.25546755  1
  O  O206  1  0.00457139  0.86853953  0.75821784  1
  O  O207  1  0.50676408  0.36516165  0.25340780  1
  O  O208  1  0.49985500  0.37366553  0.76375856  1
  O  O209  1  0.49900394  0.86999754  0.25975156  1
  O  O210  1  0.51024566  0.86450635  0.74994089  1
  O  O211  1  0.49384429  0.14128680  0.25701912  1
  O  O212  1  0.49102499  0.12651060  0.74824153  1
  O  O213  1  0.49588637  0.63301655  0.24684681  1
  O  O214  1  0.50121667  0.63806034  0.73975388  1
  O  O215  1  0.99124522  0.12077305  0.23797781  1
  O  O216  1  0.98471807  0.13631862  0.75317355  1
  O  O217  1  0.99709207  0.63014486  0.24236476  1
  O  O218  1  0.99452362  0.63085385  0.74414140  1
  O  O219  1  0.36303189  0.25670003  -0.00419258  1
  O  O220  1  0.36262973  0.24251253  0.51210291  1
  O  O221  1  0.37138787  0.75798184  0.00712471  1
  O  O222  1  0.36666552  0.75863560  0.49443921  1
  O  O223  1  0.86822122  0.25003010  0.00434721  1
  O  O224  1  0.86590173  0.24671340  0.50937378  1
  O  O225  1  0.86913425  0.76172155  0.00520087  1
  O  O226  1  0.86272855  0.75130829  0.50577401  1
  O  O227  1  0.14114103  0.24943038  0.50343702  1
  O  O228  1  0.13721250  0.24062496  1.00096746  1
  O  O229  1  0.13124566  0.74099857  0.49552969  1
  O  O230  1  0.13339964  0.75243087  0.99458474  1
  O  O231  1  0.63462809  0.24141302  0.49697951  1
  O  O232  1  0.62923549  0.24416721  0.99209659  1
  O  O233  1  0.63458596  0.74013071  0.49976463  1
  O  O234  1  0.63565109  0.75619110  1.00621694  1
  O  O235  1  0.50353550  0.25220904  0.13697127  1
  O  O236  1  0.48996957  0.25035739  0.62756934  1
  O  O237  1  0.49568790  0.74664269  0.13334086  1
  O  O238  1  0.50116747  0.73995648  0.62441769  1
  O  O239  1  0.98982215  0.23837241  0.11623869  1
  O  O240  1  0.98716242  0.25303375  0.63279648  1
  O  O241  1  0.99461129  0.74389035  0.12808260  1
  O  O242  1  0.99409534  0.74181357  0.63028488  1
  O  O243  1  -0.05302839  0.26565966  0.36127709  1
  O  O244  1  -0.00157738  0.25114399  0.86062316  1
  O  O245  1  0.00414388  0.75969074  0.37056014  1
  O  O246  1  0.00594968  0.75854337  0.87182797  1
  O  O247  1  0.49914750  0.26284971  0.36900224  1
  O  O248  1  0.50673919  0.25733581  0.87592261  1
  O  O249  1  0.49911952  0.75849571  0.36812019  1
  O  O250  1  0.50444332  0.74515052  0.86846341  1
  O  O251  1  0.24610904  0.13399503  0.49174644  1
  O  O252  1  0.24624519  0.13163837  0.99333141  1
  O  O253  1  0.24521969  0.63038356  0.49665081  1
  O  O254  1  0.25147287  0.64007845  0.99818335  1
  O  O255  1  0.74039704  0.13133441  0.50196349  1
  O  O256  1  0.74181376  0.13287173  0.99473585  1
  O  O257  1  0.74284997  0.63125202  0.49500920  1
  O  O258  1  0.75301131  0.63535180  0.99257428  1
  O  O259  1  0.25673856  0.36013270  -0.00090445  1
  O  O260  1  0.25021896  0.36428574  0.50373276  1
  O  O261  1  0.25882012  0.86496959  -0.00100072  1
  O  O262  1  0.25930345  0.86580862  0.49847022  1
  O  O263  1  0.75725857  0.36794165  0.00499337  1
  O  O264  1  0.74912210  0.36836838  0.50942264  1
  O  O265  1  0.75615721  0.86780376  0.00943611  1
  O  O266  1  0.74830328  0.86658969  0.51309548  1
  O  O267  1  0.14182533  0.49950596  0.24599935  1
  O  O268  1  0.13865366  0.50706193  0.75154029  1
  O  O269  1  0.13353905  0.99533237  0.24190639  1
  O  O270  1  0.13120269  0.99734297  0.74151222  1
  O  O271  1  0.62860466  0.48559228  0.25278696  1
  O  O272  1  0.63067847  0.49699040  0.74104992  1
  O  O273  1  0.61721932  1.00294008  0.23974749  1
  O  O274  1  0.61781096  0.98421848  0.75107554  1
  O  O275  1  0.37032992  0.00494043  0.25458427  1
  O  O276  1  0.36246380  0.00626999  0.74443184  1
  O  O277  1  0.36692599  0.50282628  0.25577168  1
  O  O278  1  0.36677613  0.50316824  0.76115605  1
  O  O279  1  0.87241964  0.00580667  0.25385055  1
  O  O280  1  0.87896911  0.00793296  0.75803123  1
  O  O281  1  0.87223977  0.50766740  0.25919757  1
  O  O282  1  0.86862917  0.50562349  0.75525105  1
  O  O283  1  0.12729864  0.37885356  0.35640742  1
  O  O284  1  0.11895710  0.36895167  0.87634336  1
  O  O285  1  0.11885561  0.87055628  0.37015658  1
  O  O286  1  0.11818582  0.86926000  0.87150005  1
  O  O287  1  0.61574798  0.37230216  0.36791584  1
  O  O288  1  0.61665135  0.36613537  0.87461964  1
  O  O289  1  0.61276283  0.87373843  0.37678421  1
  O  O290  1  0.63477961  0.87423544  0.86173036  1
  O  O291  1  0.37420751  0.11927796  0.13884054  1
  O  O292  1  0.37330843  0.13319057  0.63591012  1
  O  O293  1  0.38483163  0.63874726  0.13194467  1
  O  O294  1  0.39149009  0.61904867  0.62519049  1
  O  O295  1  0.88043983  0.12248414  0.12898627  1
  O  O296  1  0.87142442  0.13165042  0.63277039  1
  O  O297  1  0.88443843  0.62987361  0.12893413  1
  O  O298  1  0.88046662  0.63004003  0.63073316  1
  O  O299  1  0.25253678  0.24151056  0.11106050  1
  O  O300  1  0.25478336  0.25638949  0.61708824  1
  O  O301  1  0.25999524  0.74774068  0.11887010  1
  O  O302  1  0.24600458  0.75038179  0.61308310  1
  O  O303  1  0.75537707  0.25711795  0.11129600  1
  O  O304  1  0.75825368  0.25819172  0.61976883  1
  O  O305  1  0.75665554  0.75605046  0.11767207  1
  O  O306  1  0.75293205  0.74936644  0.61944415  1
  O  O307  1  0.25925566  0.24550279  0.38723425  1
  O  O308  1  0.24829214  0.23767340  0.87975225  1
  O  O309  1  0.24566834  0.74286858  0.38375704  1
  O  O310  1  0.24134002  0.75159406  0.88158672  1
  O  O311  1  0.75268059  0.25647058  0.38716616  1
  O  O312  1  0.74336936  0.25364102  0.88491349  1
  O  O313  1  0.74916799  0.74113317  0.38334890  1
  O  O314  1  0.75355809  0.73981392  0.88628158  1
  O  O315  1  0.01318523  0.12667333  0.00574865  1
  O  O316  1  0.00659363  0.11778805  0.48866138  1
  O  O317  1  -0.00006082  0.61930639  0.00758459  1
  O  O318  1  0.00818192  0.62708017  0.50823496  1
  O  O319  1  0.50487219  0.11446570  -0.00196806  1
  O  O320  1  0.50479846  0.11803662  0.50224829  1
  O  O321  1  0.49753928  0.61507288  0.01134336  1
  O  O322  1  0.50858534  0.62914500  0.51013245  1
  O  O323  1  0.50658494  0.37310272  0.48608800  1
  O  O324  1  0.49288650  0.37950378  0.99179827  1
  O  O325  1  0.49558551  0.88032004  0.49600213  1
  O  O326  1  0.49307015  0.88840501  1.00120374  1
  O  O327  1  1.00149523  0.37714247  0.49386132  1
  O  O328  1  0.99418111  0.38369317  1.00230628  1
  O  O329  1  0.99571081  0.87698698  0.49059013  1
  O  O330  1  0.98980858  0.87002663  0.99034550  1
  O  O331  1  0.49279729  0.48532458  0.36794812  1
  O  O332  1  0.49412110  0.49374429  0.88101887  1
  O  O333  1  0.49430207  0.99410775  0.38391061  1
  O  O334  1  0.49961777  1.00102474  0.88962738  1
  O  O335  1  0.98583401  0.50839752  0.37545278  1
  O  O336  1  0.99397309  0.50288893  0.88632482  1
  O  O337  1  0.99470490  0.98734363  0.36934372  1
  O  O338  1  0.99452754  0.98875645  0.87061980  1
  O  O339  1  0.01236710  0.00679922  0.12509803  1
  O  O340  1  0.01470522  -0.00749084  0.62388261  1
  O  O341  1  -0.00172498  0.50780555  0.11479659  1
  O  O342  1  0.00083427  0.51165979  0.62424845  1
  O  O343  1  0.51189982  -0.00142923  0.11431977  1
  O  O344  1  0.49364347  0.00047244  0.61385520  1
  O  O345  1  0.49628717  0.51069765  0.11792764  1
  O  O346  1  0.50866907  0.50597716  0.63314812  1
  O  O347  1  0.24698820  0.38544050  0.25098201  1
  O  O348  1  0.25498468  0.38462259  0.74379157  1
  O  O349  1  0.24474991  0.88505916  0.25861443  1
  O  O350  1  0.24489710  0.88319861  0.75144679  1
  O  O351  1  0.74334343  0.37169768  0.24125357  1
  O  O352  1  0.74932773  0.38000052  0.73816566  1
  O  O353  1  0.74823855  0.86689717  0.23534063  1
  O  O354  1  0.73774012  0.86913913  0.73886024  1
  O  O355  1  0.25840768  0.11915456  0.25600422  1
  O  O356  1  0.25425573  0.11952060  0.75584980  1
  O  O357  1  0.25777694  0.61948918  0.25679326  1
  O  O358  1  0.25584507  0.61839979  0.75406443  1
  O  O359  1  0.75590253  0.11916303  0.23867972  1
  O  O360  1  0.76528174  0.13041513  0.75466814  1
  O  O361  1  0.75487706  0.62671825  0.25742116  1
  O  O362  1  0.75269593  0.62122831  0.75682943  1
  O  O363  1  0.36603305  0.12000012  0.36797254  1
  O  O364  1  0.36714386  0.12923803  0.86166159  1
  O  O365  1  0.37376024  0.61786524  0.36751876  1
  O  O366  1  0.37675474  0.61277589  0.87598324  1
  O  O367  1  0.86937439  0.10853203  0.35609233  1
  O  O368  1  0.87308384  0.11329757  0.87021988  1
  O  O369  1  0.86763705  0.62112554  0.37043974  1
  O  O370  1  0.86907005  0.61772622  0.87065308  1
  O  O371  1  0.12601966  0.37779646  0.13876072  1
  O  O372  1  0.13997303  0.37803230  0.62311869  1
  O  O373  1  0.12184261  0.88397954  0.13169985  1
  O  O374  1  0.12814056  0.88062721  0.63346521  1
  O  O375  1  0.63598745  0.36924281  0.13273001  1
  O  O376  1  0.63012312  0.38097929  0.62599276  1
  O  O377  1  0.63094945  0.88599124  0.12923667  1
  O  O378  1  0.63715955  0.87465703  0.63138906  1
  O  O379  1  0.12805341  0.26055308  0.24680832  1
  O  O380  1  0.10768173  0.23984740  0.74546210  1
  O  O381  1  0.12278255  0.75424881  0.25553323  1
  O  O382  1  0.12088690  0.75594811  0.75826456  1
  O  O383  1  0.61500461  0.25630178  0.25243407  1
  O  O384  1  0.62496354  0.24892270  0.76186320  1
  O  O385  1  0.61264110  0.75547023  0.25383908  1
  O  O386  1  0.60956186  0.75949642  0.74659196  1
  O  O387  1  0.38768349  0.24527989  0.24937104  1
  O  O388  1  0.37354906  0.24268963  0.74019197  1
  O  O389  1  0.38423763  0.74831702  0.24620985  1
  O  O390  1  0.39411036  0.75040577  0.75333189  1
  O  O391  1  0.86219287  0.23009236  0.22994562  1
  O  O392  1  0.88007163  0.24268808  0.74265853  1
  O  O393  1  0.88212388  0.74468693  0.24304756  1
  O  O394  1  0.87869705  0.74483216  0.74780635  1
  O  O395  1  0.37164782  0.50411157  0.48503601  1
  O  O396  1  0.37961899  0.49226723  0.99383499  1
  O  O397  1  0.37925512  0.99460390  0.49568337  1
  O  O398  1  0.38599127  0.99346266  1.00605508  1
  O  O399  1  0.87885298  0.50457692  0.48831082  1
  O  O400  1  0.88236384  0.49560295  0.99445665  1
  O  O401  1  0.87356272  0.99778771  0.48282864  1
  O  O402  1  0.87255723  0.98735269  0.99213376  1
  O  O403  1  0.13581048  0.00819834  0.01053670  1
  O  O404  1  0.12745189  -0.00388041  0.51433934  1
  O  O405  1  0.11830424  0.50365720  0.00366071  1
  O  O406  1  0.12659651  0.51316953  0.50020192  1
  O  O407  1  0.61393813  0.00687982  0.00386516  1
  O  O408  1  0.61658710  0.01138430  0.49940671  1
  O  O409  1  0.61169868  0.49218788  -0.00130015  1
  O  O410  1  0.63047115  0.51086880  0.50803023  1
  O  O411  1  0.38045924  0.37856632  0.11301177  1
  O  O412  1  0.36400687  0.36554304  0.62672020  1
  O  O413  1  0.38091216  0.86373440  0.11972085  1
  O  O414  1  0.37305861  0.87798286  0.61350680  1
  O  O415  1  0.87240999  0.36352892  0.12119279  1
  O  O416  1  0.86638732  0.36867325  0.61878337  1
  O  O417  1  0.86997072  0.87472318  0.11846826  1
  O  O418  1  0.86233087  0.86829362  0.62705265  1
  O  O419  1  0.14071216  0.12131139  0.37063820  1
  O  O420  1  0.12998223  0.12823558  0.88266297  1
  O  O421  1  0.12975827  0.63020006  0.38189015  1
  O  O422  1  0.12442165  0.64069174  0.87901258  1
  O  O423  1  0.62113772  0.12991584  0.39338440  1
  O  O424  1  0.62566931  0.13236753  0.88370146  1
  O  O425  1  0.62985983  0.62560330  0.38244718  1
  O  O426  1  0.63520393  0.61843244  0.87212213  1
