# generated using pymatgen
data_V85Zn86O256
_symmetry_space_group_name_H-M   'P 1'
_cell_length_a   16.95564086
_cell_length_b   16.96672911
_cell_length_c   16.95803462
_cell_angle_alpha   89.93168397
_cell_angle_beta   90.09282309
_cell_angle_gamma   89.92104798
_symmetry_Int_Tables_number   1
_chemical_formula_structural   V85Zn86O256
_chemical_formula_sum   'V85 Zn86 O256'
_cell_volume   4878.50282484
_cell_formula_units_Z   1
loop_
 _symmetry_equiv_pos_site_id
 _symmetry_equiv_pos_as_xyz
  1  'x, y, z'
loop_
 _atom_site_type_symbol
 _atom_site_label
 _atom_site_symmetry_multiplicity
 _atom_site_fract_x
 _atom_site_fract_y
 _atom_site_fract_z
 _atom_site_occupancy
  V  V0  1  0.62131989  0.62063176  0.49981850  1
  V  V1  1  0.87964449  0.23174851  0.62522418  1
  V  V2  1  0.48846690  0.87968523  0.87677183  1
  V  V3  1  0.25668954  -0.00319015  0.75480582  1
  V  V4  1  0.38323322  0.37378073  -0.00069125  1
  V  V5  1  0.61857753  0.49643014  0.62072493  1
  V  V6  1  0.24867733  0.12769661  0.37219631  1
  V  V7  1  0.75193742  0.00310296  0.25169122  1
  V  V8  1  0.12799519  0.87847528  0.24993197  1
  V  V9  1  -0.00410489  0.00046658  -0.00643065  1
  V  V10  1  0.49708055  0.74208412  0.75114968  1
  V  V11  1  0.45377841  0.55126882  0.05426274  1
  V  V12  1  0.24118395  0.37617280  0.11820821  1
  V  V13  1  0.87878426  0.62989043  0.75312849  1
  V  V14  1  0.37331673  0.13056771  0.74766269  1
  V  V15  1  0.62681674  0.37319575  0.74829579  1
  V  V16  1  0.12144867  0.63907867  -0.00343041  1
  V  V17  1  0.62701170  0.61232174  0.01337573  1
  V  V18  1  0.87694972  0.25591613  0.12113102  1
  V  V19  1  0.24617142  0.87356696  0.62572934  1
  V  V20  1  0.62528609  0.24827969  0.87077703  1
  V  V21  1  -0.00058649  0.12435204  0.12379008  1
  V  V22  1  0.37523666  0.87785263  0.50213348  1
  V  V23  1  0.49562362  0.12922541  0.62438574  1
  V  V24  1  0.50319609  0.87839821  0.37337891  1
  V  V25  1  0.48970669  0.73741655  0.24211451  1
  V  V26  1  0.12161359  0.12687465  0.50420940  1
  V  V27  1  0.62766135  0.75234090  0.37417540  1
  V  V28  1  0.37152174  0.00221653  0.37166030  1
  V  V29  1  0.00024325  0.23622045  0.75488159  1
  V  V30  1  -0.00006396  0.24662841  0.25261157  1
  V  V31  1  0.49473872  0.00437892  -0.00220958  1
  V  V32  1  0.25616218  0.12089776  0.87500589  1
  V  V33  1  0.49860762  0.37769347  0.37903451  1
  V  V34  1  0.12912194  -0.00064384  0.12796619  1
  V  V35  1  0.75564951  0.25450883  -0.00274711  1
  V  V36  1  0.75200915  0.87808919  0.12438503  1
  V  V37  1  0.12306354  0.00122879  0.62872554  1
  V  V38  1  0.75192015  0.49866181  0.74826195  1
  V  V39  1  0.74919844  0.62467035  0.87582846  1
  V  V40  1  0.12346896  0.74978502  0.37323190  1
  V  V41  1  0.24909988  0.74623345  0.49518957  1
  V  V42  1  0.12340560  0.49931820  0.62972774  1
  V  V43  1  0.87682798  0.49119834  0.87971943  1
  V  V44  1  -0.00352344  0.87619205  0.37312887  1
  V  V45  1  0.63162126  0.25055240  0.38262973  1
  V  V46  1  0.50104797  0.38093954  0.87369779  1
  V  V47  1  0.24706304  0.25014915  -0.00847366  1
  V  V48  1  0.88117053  0.75131742  0.13261644  1
  V  V49  1  0.50172922  0.00192293  0.50021050  1
  V  V50  1  0.12442122  0.12594150  -0.00732611  1
  V  V51  1  0.87717833  0.49636572  0.37231691  1
  V  V52  1  0.00461703  0.37325221  0.37832864  1
  V  V53  1  0.37441851  0.74216528  0.62925714  1
  V  V54  1  0.76587912  0.00049034  0.75444426  1
  V  V55  1  0.00811884  0.87034131  0.87751297  1
  V  V56  1  0.25781750  0.50101088  0.75405016  1
  V  V57  1  0.37170169  0.12601453  0.24760768  1
  V  V58  1  0.38135730  0.24975929  0.12456746  1
  V  V59  1  0.25544229  0.75849742  0.01487528  1
  V  V60  1  0.87341707  0.87874721  -0.00714493  1
  V  V61  1  0.75108873  0.62385895  0.37343630  1
  V  V62  1  0.75453724  0.36755896  0.61750401  1
  V  V63  1  0.37875182  0.37262698  0.50936273  1
  V  V64  1  0.00154449  -0.00264535  0.50264968  1
  V  V65  1  0.25383521  0.24853707  0.50781991  1
  V  V66  1  0.00618966  0.62556512  0.13626658  1
  V  V67  1  -0.00215990  0.49497291  0.50928867  1
  V  V68  1  0.74879888  0.75094442  0.00213901  1
  V  V69  1  0.00651336  0.49527060  0.00354764  1
  V  V70  1  0.75331990  0.12734055  0.38409250  1
  V  V71  1  -0.06213979  0.68441872  0.57853081  1
  V  V72  1  0.62330488  0.75026407  0.87841555  1
  V  V73  1  0.62586512  -0.00114108  0.62688784  1
  V  V74  1  0.50173671  0.24718013  0.24890786  1
  V  V75  1  0.00763997  0.74387521  0.75828185  1
  V  V76  1  0.62544671  0.00753380  0.12405676  1
  V  V77  1  0.12246492  0.37312933  0.76171850  1
  V  V78  1  0.62630424  0.37967653  0.24564627  1
  V  V79  1  0.75179390  0.38095645  0.12277137  1
  V  V80  1  0.12754624  0.62767377  0.50440937  1
  V  V81  1  0.25374906  0.63486680  0.87205678  1
  V  V82  1  0.62161145  0.12847738  0.00194132  1
  V  V83  1  0.76137855  0.12105620  0.87247781  1
  V  V84  1  0.62346432  0.87803483  0.75413384  1
  Zn  Zn85  1  0.62735241  0.87386096  0.24765614  1
  Zn  Zn86  1  0.25186202  0.37049580  0.62980540  1
  Zn  Zn87  1  -0.00113006  0.37002212  0.87805499  1
  Zn  Zn88  1  0.87302710  0.36485348  0.50032442  1
  Zn  Zn89  1  0.49603802  0.61933066  0.62519527  1
  Zn  Zn90  1  0.12932717  0.86833708  0.75608875  1
  Zn  Zn91  1  0.37984687  0.50696713  0.87452368  1
  Zn  Zn92  1  0.29309212  -0.06281762  0.18763326  1
  Zn  Zn93  1  0.62899076  0.12744096  0.50395217  1
  Zn  Zn94  1  0.22614528  0.49618666  0.23721310  1
  Zn  Zn95  1  0.87803111  0.62633930  0.24891003  1
  Zn  Zn96  1  0.11640653  0.37437948  0.23824360  1
  Zn  Zn97  1  0.87450640  0.12419890  0.25101996  1
  Zn  Zn98  1  0.31403075  0.57523007  0.31958630  1
  Zn  Zn99  1  0.87462600  0.00048779  0.37858863  1
  Zn  Zn100  1  0.75069948  0.50136438  0.24427352  1
  Zn  Zn101  1  0.37298643  0.87697641  0.01511844  1
  Zn  Zn102  1  0.44572526  0.53906006  0.44656839  1
  Zn  Zn103  1  0.12678564  0.25000545  0.37525438  1
  Zn  Zn104  1  0.75996342  0.86660860  0.62791227  1
  Zn  Zn105  1  0.49249954  0.25176171  0.74617400  1
  Zn  Zn106  1  0.75207202  0.75212271  0.50528782  1
  Zn  Zn107  1  0.18837726  0.19106707  0.18335380  1
  Zn  Zn108  1  0.18256896  0.18750000  0.68916910  1
  Zn  Zn109  1  0.18169700  0.68840252  0.19275039  1
  Zn  Zn110  1  0.18511144  0.68472297  0.68630981  1
  Zn  Zn111  1  0.68986877  0.19066933  0.18955418  1
  Zn  Zn112  1  0.69248475  0.18381492  0.68718306  1
  Zn  Zn113  1  0.68823733  0.69008404  0.18984034  1
  Zn  Zn114  1  0.68610718  0.68591758  0.68797040  1
  Zn  Zn115  1  0.32480321  0.35354075  0.29898665  1
  Zn  Zn116  1  0.31127845  0.31319465  0.81343722  1
  Zn  Zn117  1  0.31359430  0.80772272  0.31505941  1
  Zn  Zn118  1  0.31366540  0.80972099  0.81560499  1
  Zn  Zn119  1  0.81504308  0.31142083  0.31050030  1
  Zn  Zn120  1  0.81550962  0.30858179  0.80575186  1
  Zn  Zn121  1  0.81209832  0.81473298  0.31391100  1
  Zn  Zn122  1  0.81531421  0.81295814  0.81076735  1
  Zn  Zn123  1  0.19419477  0.43876837  0.43550088  1
  Zn  Zn124  1  0.18875433  0.44492144  0.93999841  1
  Zn  Zn125  1  0.18747188  0.93871960  0.43725081  1
  Zn  Zn126  1  0.18729701  0.93909230  0.93923309  1
  Zn  Zn127  1  0.68794994  0.43675450  0.43624416  1
  Zn  Zn128  1  0.68956701  0.43621059  0.93715504  1
  Zn  Zn129  1  0.69318645  0.93637557  0.44238204  1
  Zn  Zn130  1  0.68497230  0.93993634  0.93556634  1
  Zn  Zn131  1  0.31532911  0.06751444  0.06238722  1
  Zn  Zn132  1  0.31154177  0.06271723  0.56354664  1
  Zn  Zn133  1  0.28165039  0.59009713  0.10402847  1
  Zn  Zn134  1  0.30769015  0.56057475  0.56397748  1
  Zn  Zn135  1  0.81270457  0.06718364  0.06080744  1
  Zn  Zn136  1  0.81300244  0.05473848  0.56544264  1
  Zn  Zn137  1  0.81927529  0.56371956  0.06073534  1
  Zn  Zn138  1  0.80433709  0.55477446  0.55752081  1
  Zn  Zn139  1  0.42901806  0.44212777  0.19588049  1
  Zn  Zn140  1  0.43666458  0.43413155  0.68692885  1
  Zn  Zn141  1  0.45371345  0.94067051  0.18691098  1
  Zn  Zn142  1  0.43600892  0.93814516  0.68860399  1
  Zn  Zn143  1  0.94417371  0.43902468  0.18811981  1
  Zn  Zn144  1  0.93683357  0.43461087  0.69147385  1
  Zn  Zn145  1  0.94002323  0.93813886  0.18638627  1
  Zn  Zn146  1  0.94241720  0.93028890  0.68765723  1
  Zn  Zn147  1  0.06439899  0.06176235  0.31311097  1
  Zn  Zn148  1  0.06671179  0.05720423  0.81531778  1
  Zn  Zn149  1  0.09625257  0.54719502  0.32664307  1
  Zn  Zn150  1  0.06602072  0.56129792  0.81854945  1
  Zn  Zn151  1  0.56454107  0.06664891  0.31192834  1
  Zn  Zn152  1  0.56227638  0.06402541  0.81383281  1
  Zn  Zn153  1  0.56591872  0.56234826  0.30565295  1
  Zn  Zn154  1  0.56683472  0.56172701  0.81273811  1
  Zn  Zn155  1  0.43736596  0.19247437  0.43683989  1
  Zn  Zn156  1  0.43850396  0.18893027  0.93253640  1
  Zn  Zn157  1  0.43903267  0.70193089  0.43524223  1
  Zn  Zn158  1  0.43351100  0.69360951  0.94038344  1
  Zn  Zn159  1  0.93734347  0.18431819  0.44088789  1
  Zn  Zn160  1  0.93789378  0.18929172  0.93480452  1
  Zn  Zn161  1  0.95214952  0.67942824  0.41479210  1
  Zn  Zn162  1  0.93532135  0.68843527  0.94068741  1
  Zn  Zn163  1  0.05921887  0.30661815  0.05355819  1
  Zn  Zn164  1  0.06193826  0.31014471  0.57018791  1
  Zn  Zn165  1  0.06378424  0.81291117  0.06624280  1
  Zn  Zn166  1  -0.11886597  0.87109092  0.51178079  1
  Zn  Zn167  1  0.56488888  0.31465618  0.06298171  1
  Zn  Zn168  1  0.56264837  0.31074157  0.56220075  1
  Zn  Zn169  1  0.56342302  0.81547619  0.06329700  1
  Zn  Zn170  1  0.56804387  0.81043591  0.56466245  1
  O  O171  1  0.11866236  0.12081561  0.11475236  1
  O  O172  1  0.13190777  0.11235745  0.61689003  1
  O  O173  1  0.11613881  0.63169569  0.11000236  1
  O  O174  1  0.12572008  0.61255881  0.61614605  1
  O  O175  1  0.63389383  0.12228955  0.11294133  1
  O  O176  1  0.62063715  0.11305642  0.62646493  1
  O  O177  1  0.63305704  0.62482302  0.11202412  1
  O  O178  1  0.62316674  0.61394110  0.61626619  1
  O  O179  1  0.38871446  0.36565380  0.39114708  1
  O  O180  1  0.38365578  0.37578821  0.88208915  1
  O  O181  1  0.38352214  0.88118557  0.38136952  1
  O  O182  1  0.38665884  0.87376352  0.88055583  1
  O  O183  1  0.88422926  0.37868007  0.37914250  1
  O  O184  1  0.87310325  0.38856230  0.86892310  1
  O  O185  1  0.88755648  0.87758585  0.37583243  1
  O  O186  1  0.88310609  0.87032209  0.88864602  1
  O  O187  1  0.25871219  0.01558094  0.38417858  1
  O  O188  1  0.24804210  0.00687341  0.86698124  1
  O  O189  1  0.21494401  0.51759602  0.35916233  1
  O  O190  1  0.25364061  0.51112145  0.87066814  1
  O  O191  1  0.75048494  0.00728388  0.36688044  1
  O  O192  1  0.74546676  0.00666754  0.86327909  1
  O  O193  1  0.76047011  0.50551951  0.37447459  1
  O  O194  1  0.75697127  0.50651320  0.87108556  1
  O  O195  1  0.25010318  0.47736528  0.11173331  1
  O  O196  1  0.24103741  0.49840846  0.63656935  1
  O  O197  1  0.23413220  1.00881682  0.11929662  1
  O  O198  1  0.24555869  0.99212649  0.63133357  1
  O  O199  1  0.76197445  0.48453282  0.12287274  1
  O  O200  1  0.74093469  0.49080894  0.63002468  1
  O  O201  1  0.74410756  0.99944382  0.12972775  1
  O  O202  1  0.74248449  0.99691220  0.63925114  1
  O  O203  1  -0.00322453  0.36399557  0.25944663  1
  O  O204  1  0.00840420  0.37083088  0.75514318  1
  O  O205  1  0.01035523  0.88428514  0.26425263  1
  O  O206  1  0.00199231  0.86427201  0.76249348  1
  O  O207  1  0.50614891  0.36510682  0.25747362  1
  O  O208  1  0.50742558  0.36961378  0.75504444  1
  O  O209  1  0.50851286  0.87680700  0.26512788  1
  O  O210  1  0.50579143  0.87145838  0.75814182  1
  O  O211  1  0.49158650  0.14023646  0.25669224  1
  O  O212  1  0.48997523  0.12411531  0.74489743  1
  O  O213  1  0.50280479  0.63741145  0.25100732  1
  O  O214  1  0.50675409  0.63880446  0.74964885  1
  O  O215  1  0.99805697  0.12967191  0.24357136  1
  O  O216  1  1.00963834  0.13724115  0.75586992  1
  O  O217  1  1.00098447  0.62154636  0.23668936  1
  O  O218  1  0.99191999  0.63004455  0.76096886  1
  O  O219  1  0.37136915  0.25438274  0.00464812  1
  O  O220  1  0.36630384  0.25786170  0.50089056  1
  O  O221  1  0.36018616  0.75393172  0.00435556  1
  O  O222  1  0.36821097  0.75969502  0.50847889  1
  O  O223  1  0.86698912  0.24781177  0.00685714  1
  O  O224  1  0.88305347  0.24847043  0.51944706  1
  O  O225  1  0.86712804  0.75744004  0.00908013  1
  O  O226  1  0.88837279  0.73756008  0.50460121  1
  O  O227  1  0.12860876  0.24123599  0.50117152  1
  O  O228  1  0.13372395  0.23782417  0.99945269  1
  O  O229  1  0.13507641  0.74216056  0.49425576  1
  O  O230  1  0.13001082  0.74337014  0.99823540  1
  O  O231  1  0.62432063  0.24796261  0.48685425  1
  O  O232  1  0.63098924  0.24561438  0.98945415  1
  O  O233  1  0.62167488  0.74108117  0.48693096  1
  O  O234  1  0.62969820  0.74248350  0.99542093  1
  O  O235  1  0.48963994  0.25535272  0.13172012  1
  O  O236  1  0.50975466  0.23300513  0.62875212  1
  O  O237  1  0.50901948  0.75944941  0.14532540  1
  O  O238  1  0.49260398  0.75040196  0.63363355  1
  O  O239  1  0.99398978  0.24539355  0.12874700  1
  O  O240  1  0.98865876  0.25094916  0.63831881  1
  O  O241  1  0.99149281  0.74017449  0.11869986  1
  O  O242  1  0.99448892  0.73974706  0.63741647  1
  O  O243  1  -0.00091334  0.25474722  0.36824849  1
  O  O244  1  -0.00439517  0.25355303  0.86149641  1
  O  O245  1  0.00838407  0.76809641  0.37600723  1
  O  O246  1  -0.00358801  0.75736338  0.87056753  1
  O  O247  1  0.50985036  0.25798777  0.36870060  1
  O  O248  1  0.50962695  0.25880721  0.87016582  1
  O  O249  1  0.50921439  0.76148622  0.36701034  1
  O  O250  1  0.50268302  0.75703672  0.86972884  1
  O  O251  1  0.24236606  0.12991229  0.49716758  1
  O  O252  1  0.24590434  0.13009678  0.99249611  1
  O  O253  1  0.23882573  0.63394320  0.50575301  1
  O  O254  1  0.23805663  0.63609314  1.00076278  1
  O  O255  1  0.74845407  0.11581720  0.48810615  1
  O  O256  1  0.74138275  0.13473273  0.99286110  1
  O  O257  1  0.74049117  0.62581373  0.48855278  1
  O  O258  1  0.74300331  0.62852722  0.99460130  1
  O  O259  1  0.25918020  0.36731293  -0.00067454  1
  O  O260  1  0.25939090  0.36659371  0.49998396  1
  O  O261  1  0.25012005  0.86151858  -0.00576236  1
  O  O262  1  0.25340700  0.86792778  0.50776236  1
  O  O263  1  0.74500905  0.36178824  0.00572395  1
  O  O264  1  0.75125277  0.37597117  0.51365203  1
  O  O265  1  0.75676481  0.87362427  0.00276662  1
  O  O266  1  0.76279112  0.87032144  0.50041472  1
  O  O267  1  0.10968927  0.48808031  0.23382676  1
  O  O268  1  0.13086424  0.49497583  0.74581219  1
  O  O269  1  0.12239704  0.99390592  0.23972424  1
  O  O270  1  0.13692678  0.99713134  0.74364952  1
  O  O271  1  0.63057184  0.48368026  0.25215120  1
  O  O272  1  0.63395712  0.49409012  0.74325504  1
  O  O273  1  0.63506216  1.00375417  0.24143745  1
  O  O274  1  0.62567331  0.98959781  0.74666993  1
  O  O275  1  0.37587617  0.01118962  0.25410394  1
  O  O276  1  0.36252593  0.00930422  0.74590202  1
  O  O277  1  0.34646241  0.46987645  0.26443037  1
  O  O278  1  0.36164997  0.49577072  0.75063274  1
  O  O279  1  0.86249889  0.00146225  0.24823374  1
  O  O280  1  0.86370103  -0.00470301  0.75115628  1
  O  O281  1  0.87594227  0.49933553  0.26313374  1
  O  O282  1  0.87168943  0.51150977  0.75720022  1
  O  O283  1  0.11194041  0.37004732  0.37696764  1
  O  O284  1  0.12569327  0.38075033  0.86459329  1
  O  O285  1  0.11712310  0.87071242  0.37257078  1
  O  O286  1  0.11219994  0.87787106  0.87541133  1
  O  O287  1  0.62385988  0.36602751  0.36891692  1
  O  O288  1  0.62092558  0.36810233  0.87040076  1
  O  O289  1  0.62027122  0.86826364  0.37722930  1
  O  O290  1  0.61731954  0.86904390  0.87019398  1
  O  O291  1  0.37057236  0.13473713  0.13861445  1
  O  O292  1  0.38394690  0.11980913  0.63347576  1
  O  O293  1  0.39406703  0.61201944  0.10381225  1
  O  O294  1  0.37671634  0.63805235  0.61912396  1
  O  O295  1  0.88156315  0.13648530  0.12489569  1
  O  O296  1  0.87137280  0.13347143  0.62734262  1
  O  O297  1  0.88271181  0.63477580  0.12626827  1
  O  O298  1  0.87266471  0.62198245  0.63079001  1
  O  O299  1  0.25968311  0.25347833  0.10933488  1
  O  O300  1  0.24324061  0.25076646  0.61264305  1
  O  O301  1  0.24293763  0.75286529  0.11294989  1
  O  O302  1  0.25584923  0.75521128  0.62088759  1
  O  O303  1  0.75857472  0.25563376  0.11674996  1
  O  O304  1  0.76650086  0.25552860  0.63522398  1
  O  O305  1  0.75524407  0.75831856  0.11992913  1
  O  O306  1  0.73329214  0.75526678  0.61786368  1
  O  O307  1  0.24673120  0.23668089  0.38949192  1
  O  O308  1  0.25365166  0.24160790  0.88537241  1
  O  O309  1  0.24246535  0.75204044  0.38773934  1
  O  O310  1  0.25069732  0.73819432  0.88163537  1
  O  O311  1  0.74359896  0.24105487  0.36936309  1
  O  O312  1  0.74612135  0.24546194  0.87933618  1
  O  O313  1  0.74507469  0.74229430  0.37817085  1
  O  O314  1  0.74604957  0.74284414  0.88100587  1
  O  O315  1  0.00697736  0.11912111  0.00027200  1
  O  O316  1  0.01506575  0.11569743  0.49459651  1
  O  O317  1  0.00994929  0.62168091  0.00113908  1
  O  O318  1  -0.00188997  0.62219799  0.51385830  1
  O  O319  1  0.51388903  0.12123638  -0.00934795  1
  O  O320  1  0.50112187  0.11959870  0.50697672  1
  O  O321  1  0.51255120  0.62026261  -0.00490166  1
  O  O322  1  0.51171506  0.62349679  0.50084758  1
  O  O323  1  0.48915904  0.36939857  0.49593656  1
  O  O324  1  0.49117665  0.36659741  0.99079627  1
  O  O325  1  0.49758359  0.87967673  0.49122893  1
  O  O326  1  0.50075152  0.88533186  0.99324107  1
  O  O327  1  0.99856349  0.38044131  0.49630293  1
  O  O328  1  1.00446869  0.39031781  0.99722911  1
  O  O329  1  1.00074413  0.88573714  0.48447171  1
  O  O330  1  0.99422563  0.88125354  0.99635275  1
  O  O331  1  0.51241961  0.48224140  0.37270186  1
  O  O332  1  0.50022724  0.48591147  0.86701729  1
  O  O333  1  0.49608324  0.99639219  0.37926521  1
  O  O334  1  0.50892187  0.99123465  0.88561336  1
  O  O335  1  0.99653547  0.49147244  0.38856839  1
  O  O336  1  0.99328755  0.49884253  0.88537819  1
  O  O337  1  1.00029206  0.99271437  0.38196353  1
  O  O338  1  1.00167858  0.99259144  0.88735196  1
  O  O339  1  0.00687416  0.00615380  0.11485810  1
  O  O340  1  0.01622085  -0.00847053  0.61998457  1
  O  O341  1  -0.01096261  0.51056733  0.10865224  1
  O  O342  1  0.00449448  0.49491725  0.61633869  1
  O  O343  1  0.51918637  0.00421128  0.11627565  1
  O  O344  1  0.50653025  0.00792222  0.62214037  1
  O  O345  1  0.49960296  0.49252435  0.12188992  1
  O  O346  1  0.51382855  0.49976527  0.63232757  1
  O  O347  1  0.23742352  0.35862012  0.22636960  1
  O  O348  1  0.24262634  0.38187910  0.75044557  1
  O  O349  1  0.23521296  0.87721946  0.26374736  1
  O  O350  1  0.25188924  0.88055582  0.74654172  1
  O  O351  1  0.74413642  0.37317135  0.24039150  1
  O  O352  1  0.74496337  0.37955414  0.74186050  1
  O  O353  1  0.74754124  0.88512696  0.24486110  1
  O  O354  1  0.74117775  0.88520880  0.75575354  1
  O  O355  1  0.25836822  0.13513191  0.25945887  1
  O  O356  1  0.25343795  0.11929503  0.75623278  1
  O  O357  1  0.25877863  0.61040133  0.21867266  1
  O  O358  1  0.24321862  0.62002548  0.76580356  1
  O  O359  1  0.75140762  0.11873751  0.25899959  1
  O  O360  1  0.74608387  0.10830795  0.75788645  1
  O  O361  1  0.75105238  0.62132934  0.26117914  1
  O  O362  1  0.75464732  0.61998258  0.75833012  1
  O  O363  1  0.36993051  0.12438760  0.36547190  1
  O  O364  1  0.36365657  0.12557006  0.86839400  1
  O  O365  1  0.38325435  0.61696632  0.39238952  1
  O  O366  1  0.35862331  0.62374913  0.88399503  1
  O  O367  1  0.86757787  0.12209261  0.37287307  1
  O  O368  1  0.86036103  0.12511768  0.88123273  1
  O  O369  1  0.86946121  0.61592903  0.37095480  1
  O  O370  1  0.86395015  0.62007991  0.87101386  1
  O  O371  1  0.13885500  0.36371514  0.11266892  1
  O  O372  1  0.12685880  0.38725753  0.63279572  1
  O  O373  1  0.11929368  0.88473191  0.13701140  1
  O  O374  1  0.14184374  0.88204368  0.63101388  1
  O  O375  1  0.63796118  0.36565886  0.13376097  1
  O  O376  1  0.63137140  0.37718575  0.62889767  1
  O  O377  1  0.63568438  0.88762051  0.12392527  1
  O  O378  1  0.62143389  0.88699768  0.63509287  1
  O  O379  1  0.11025275  0.24964626  0.24946431  1
  O  O380  1  0.11130862  0.26021824  0.74306082  1
  O  O381  1  0.12938486  0.75743290  0.26633549  1
  O  O382  1  0.11161702  0.74861381  0.74694513  1
  O  O383  1  0.61874022  0.25661877  0.25692915  1
  O  O384  1  0.62875491  0.25277354  0.76042293  1
  O  O385  1  0.62262828  0.75170424  0.26362118  1
  O  O386  1  0.61739529  0.76085640  0.75730992  1
  O  O387  1  0.38252647  0.25146738  0.24201516  1
  O  O388  1  0.37258424  0.23574523  0.75228509  1
  O  O389  1  0.39051830  0.75207134  0.25510183  1
  O  O390  1  0.38461736  0.75620505  0.74104589  1
  O  O391  1  0.88574439  0.24651024  0.24184759  1
  O  O392  1  0.88991972  0.25025501  0.74115616  1
  O  O393  1  0.87068418  0.75093936  0.23647512  1
  O  O394  1  0.88236996  0.73580342  0.75620891  1
  O  O395  1  0.36939207  0.48081528  0.50760055  1
  O  O396  1  0.38738192  0.49040577  0.99747114  1
  O  O397  1  0.38202120  0.99583188  0.49482136  1
  O  O398  1  0.39213444  1.00709672  1.00339990  1
  O  O399  1  0.88251456  0.49815180  0.49061150  1
  O  O400  1  0.88985103  0.50919824  0.98814347  1
  O  O401  1  0.89185800  1.00145771  0.50188467  1
  O  O402  1  0.88351159  0.99139314  1.00736334  1
  O  O403  1  0.11667295  0.00566786  0.00663199  1
  O  O404  1  0.11980090  0.00450754  0.50790303  1
  O  O405  1  0.11115617  0.51205194  -0.00246545  1
  O  O406  1  0.11680788  0.50646791  0.50858916  1
  O  O407  1  0.62267643  0.01082788  0.00545963  1
  O  O408  1  0.61978414  0.00050715  0.51058180  1
  O  O409  1  0.63030013  0.51349232  -0.00207224  1
  O  O410  1  0.62994465  0.50709349  0.50822879  1
  O  O411  1  0.36696133  0.36581412  0.11512057  1
  O  O412  1  0.37453609  0.36860736  0.61436834  1
  O  O413  1  0.37407246  0.89172322  0.12740673  1
  O  O414  1  0.36613853  0.86960196  0.62090319  1
  O  O415  1  0.87020162  0.36239323  0.13008303  1
  O  O416  1  0.86616406  0.37213240  0.62488765  1
  O  O417  1  0.87288707  0.86989515  0.11628166  1
  O  O418  1  0.87433889  0.87095938  0.62560148  1
  O  O419  1  0.13321619  0.12510866  0.38269967  1
  O  O420  1  0.13711646  0.11809328  0.88650485  1
  O  O421  1  0.09950418  0.63927850  0.39438250  1
  O  O422  1  0.13759697  0.62234414  0.88981023  1
  O  O423  1  0.63310993  0.13417285  0.37631128  1
  O  O424  1  0.63295966  0.13354550  0.87977410  1
  O  O425  1  0.63201865  0.62908466  0.37984943  1
  O  O426  1  0.63594031  0.62923547  0.88007311  1
