# generated using pymatgen
data_V85Zn86O256
_symmetry_space_group_name_H-M   'P 1'
_cell_length_a   16.92657791
_cell_length_b   16.94050807
_cell_length_c   16.94077451
_cell_angle_alpha   89.87187742
_cell_angle_beta   90.08154966
_cell_angle_gamma   89.92232762
_symmetry_Int_Tables_number   1
_chemical_formula_structural   V85Zn86O256
_chemical_formula_sum   'V85 Zn86 O256'
_cell_volume   4857.65795219
_cell_formula_units_Z   1
loop_
 _symmetry_equiv_pos_site_id
 _symmetry_equiv_pos_as_xyz
  1  'x, y, z'
loop_
 _atom_site_type_symbol
 _atom_site_label
 _atom_site_symmetry_multiplicity
 _atom_site_fract_x
 _atom_site_fract_y
 _atom_site_fract_z
 _atom_site_occupancy
  V  V0  1  0.87111206  -0.00283903  0.37301317  1
  V  V1  1  0.49065664  0.62525416  0.62212176  1
  V  V2  1  0.12177580  0.87306999  0.76072303  1
  V  V3  1  0.49291470  0.75126234  0.74502195  1
  V  V4  1  0.00373984  0.75216667  0.76649184  1
  V  V5  1  0.11843111  0.13624963  0.48748251  1
  V  V6  1  0.11918612  0.36026958  0.26226370  1
  V  V7  1  0.12236713  -0.00130561  0.61858874  1
  V  V8  1  0.25416969  0.50546472  0.76985274  1
  V  V9  1  0.13112987  0.75069087  0.37955489  1
  V  V10  1  0.50755610  0.75301312  0.24656979  1
  V  V11  1  0.75023694  0.62268346  0.87740103  1
  V  V12  1  0.62423358  0.00207196  0.62361588  1
  V  V13  1  0.37078757  -0.00113773  0.37337755  1
  V  V14  1  0.87039768  0.12750383  0.75297342  1
  V  V15  1  0.62331569  0.50294133  0.62165026  1
  V  V16  1  0.76108113  0.62737314  0.37236642  1
  V  V17  1  0.25114745  -0.00438777  0.23708730  1
  V  V18  1  0.87823486  0.50033412  0.88266111  1
  V  V19  1  0.75741308  0.24740219  0.50510738  1
  V  V20  1  0.00115025  0.63035762  0.62438682  1
  V  V21  1  0.25083459  0.49970025  0.25117063  1
  V  V22  1  -0.00169752  0.87310202  0.37486505  1
  V  V23  1  0.62273720  0.74909822  0.87574846  1
  V  V24  1  0.76748400  0.35482134  0.14739587  1
  V  V25  1  0.75605558  -0.00066188  0.75052601  1
  V  V26  1  0.74795450  0.13236685  0.37383501  1
  V  V27  1  0.87873581  0.37046603  0.00639236  1
  V  V28  1  0.75280292  0.24464111  0.00181209  1
  V  V29  1  0.62207441  0.87716971  0.74872097  1
  V  V30  1  0.62659308  0.61812680  0.00329572  1
  V  V31  1  0.48771605  0.49686272  0.00394779  1
  V  V32  1  -0.00157723  0.62208772  0.12149471  1
  V  V33  1  -0.00543928  0.25139348  0.74440765  1
  V  V34  1  0.12326039  0.50085312  0.12261488  1
  V  V35  1  0.13311580  0.50394988  0.62854263  1
  V  V36  1  0.87480589  0.74700086  0.12941952  1
  V  V37  1  0.75115965  -0.00115036  0.24939160  1
  V  V38  1  0.38034895  0.25626270  0.12216997  1
  V  V39  1  -0.00819608  0.12788376  0.62076657  1
  V  V40  1  0.49872596  0.00390483  0.49818280  1
  V  V41  1  0.25422602  0.25001778  0.00081491  1
  V  V42  1  0.38047336  0.49949764  0.38213986  1
  V  V43  1  0.37258073  0.00459678  0.87170562  1
  V  V44  1  0.87645158  0.87522633  -0.01170131  1
  V  V45  1  0.48953178  0.37778035  0.88394835  1
  V  V46  1  0.87629505  0.62620784  0.75071582  1
  V  V47  1  0.37585529  0.12332360  0.24492763  1
  V  V48  1  0.37042169  0.86362210  0.50125186  1
  V  V49  1  0.12972506  0.87199717  0.24215540  1
  V  V50  1  0.12283336  0.12258497  0.00194119  1
  V  V51  1  0.75569662  0.37038370  0.62536602  1
  V  V52  1  -0.00083129  0.74268172  0.25059383  1
  V  V53  1  -0.00160735  0.37639220  0.88013632  1
  V  V54  1  0.62709484  0.00129541  0.12031317  1
  V  V55  1  0.88217464  0.49447433  0.37421541  1
  V  V56  1  0.25267267  0.62724322  0.37876660  1
  V  V57  1  0.62260753  0.62554870  0.49766101  1
  V  V58  1  0.50199910  0.37676308  0.38016805  1
  V  V59  1  0.12829744  0.62715060  -0.00806413  1
  V  V60  1  0.00362468  0.49083397  0.50257264  1
  V  V61  1  0.12872121  0.37685698  0.75188102  1
  V  V62  1  -0.00878459  0.13160834  0.12893867  1
  V  V63  1  0.62896715  0.37793027  0.25835892  1
  V  V64  1  0.49872196  0.87679616  0.87438066  1
  V  V65  1  0.50772740  0.24917888  0.25484593  1
  V  V66  1  0.13716200  0.62643158  0.50162393  1
  V  V67  1  0.75142230  0.50034987  0.75143016  1
  V  V68  1  0.12259324  0.24987298  0.87700491  1
  V  V69  1  -0.00532765  -0.00454360  -0.01012412  1
  V  V70  1  0.62612890  0.37743934  0.75783988  1
  V  V71  1  0.37204561  0.87629085  0.00373256  1
  V  V72  1  0.75002105  0.74891659  0.00137526  1
  V  V73  1  0.37712731  0.62614782  0.24900601  1
  V  V74  1  0.36498939  0.75185058  0.12660032  1
  V  V75  1  0.24657603  0.75123128  -0.01920038  1
  V  V76  1  0.74626900  0.11950842  0.87611235  1
  V  V77  1  0.61946177  0.13170034  0.49358071  1
  V  V78  1  0.50782907  0.87345307  0.37222001  1
  V  V79  1  0.50671364  0.12667581  0.11519777  1
  V  V80  1  0.25280758  0.37594517  0.12188274  1
  V  V81  1  0.37294024  0.62582509  0.76627027  1
  V  V82  1  0.24811558  0.86455536  0.61797681  1
  V  V83  1  0.62312433  0.24700717  0.88013186  1
  V  V84  1  0.74627610  0.87343892  0.12981296  1
  Zn  Zn85  1  0.75634424  0.50311700  0.24970739  1
  Zn  Zn86  1  0.44995336  0.17630068  0.58922960  1
  Zn  Zn87  1  0.75299442  0.74958802  0.50445655  1
  Zn  Zn88  1  0.48509583  0.25550539  0.74388232  1
  Zn  Zn89  1  0.38200269  0.36539573  0.50872395  1
  Zn  Zn90  1  0.36685951  0.14109249  0.74123787  1
  Zn  Zn91  1  -0.00383158  0.00043144  0.49664070  1
  Zn  Zn92  1  0.87189697  0.87101707  0.50368685  1
  Zn  Zn93  1  0.25587313  0.25533154  0.49946245  1
  Zn  Zn94  1  0.88683640  0.36768949  0.50791617  1
  Zn  Zn95  1  0.87392077  0.75371313  0.62625898  1
  Zn  Zn96  1  0.50261275  0.62326850  0.12653510  1
  Zn  Zn97  1  0.62889828  0.75031142  0.37257660  1
  Zn  Zn98  1  0.24757460  0.12441539  0.87251328  1
  Zn  Zn99  1  0.23510417  0.13202555  0.36350282  1
  Zn  Zn100  1  0.12133436  -0.00513260  0.12269977  1
  Zn  Zn101  1  0.50615906  0.00429487  -0.00484223  1
  Zn  Zn102  1  0.63479270  0.49125997  0.12454842  1
  Zn  Zn103  1  0.75175634  0.87184627  0.62234702  1
  Zn  Zn104  1  0.87573270  0.16970490  0.24161923  1
  Zn  Zn105  1  0.29887120  0.32795693  0.65368470  1
  Zn  Zn106  1  0.24487069  0.00269339  0.75008726  1
  Zn  Zn107  1  0.18573744  0.18556347  0.18404981  1
  Zn  Zn108  1  0.18402253  0.18282080  0.68463060  1
  Zn  Zn109  1  0.18682870  0.68626210  0.18763021  1
  Zn  Zn110  1  0.19062477  0.68901092  0.69373215  1
  Zn  Zn111  1  0.68546999  0.18310802  0.19275870  1
  Zn  Zn112  1  0.64271086  0.20434508  0.66922300  1
  Zn  Zn113  1  0.68855781  0.68401567  0.18966041  1
  Zn  Zn114  1  0.68459145  0.68850027  0.68774141  1
  Zn  Zn115  1  0.31194974  0.31407079  0.31038450  1
  Zn  Zn116  1  0.31224054  0.31342774  0.82031929  1
  Zn  Zn117  1  0.31467807  0.81340282  0.31251969  1
  Zn  Zn118  1  0.31418766  0.82023982  0.80519523  1
  Zn  Zn119  1  0.83007081  0.31137699  0.31786016  1
  Zn  Zn120  1  0.81220079  0.30912506  0.81385071  1
  Zn  Zn121  1  0.81236273  0.81159803  0.31076366  1
  Zn  Zn122  1  0.81053544  0.80997744  0.80761341  1
  Zn  Zn123  1  0.19515388  0.43340237  0.44057172  1
  Zn  Zn124  1  0.18494884  0.43725073  0.94280834  1
  Zn  Zn125  1  0.18557131  0.94131318  0.43459143  1
  Zn  Zn126  1  0.18914826  0.93749171  0.94118396  1
  Zn  Zn127  1  0.69161006  0.43985812  0.43854388  1
  Zn  Zn128  1  0.69225223  0.43303013  0.94455186  1
  Zn  Zn129  1  0.68771327  0.93625200  0.43858619  1
  Zn  Zn130  1  0.68852987  0.93695280  0.93841589  1
  Zn  Zn131  1  0.31513347  0.06396586  0.05934247  1
  Zn  Zn132  1  0.30048407  0.06269884  0.55461775  1
  Zn  Zn133  1  0.31046918  0.56835916  0.06186215  1
  Zn  Zn134  1  0.33367208  0.51694675  0.58580259  1
  Zn  Zn135  1  0.81709586  0.06225859  0.06203172  1
  Zn  Zn136  1  0.81255031  0.05740021  0.56080426  1
  Zn  Zn137  1  0.81465827  0.55469339  0.06859298  1
  Zn  Zn138  1  0.81340374  0.56390733  0.56060570  1
  Zn  Zn139  1  0.44015270  0.43704982  0.18926262  1
  Zn  Zn140  1  0.44361340  0.44299174  0.69942414  1
  Zn  Zn141  1  0.44122267  0.93624895  0.18504334  1
  Zn  Zn142  1  0.41163371  0.98374656  0.66272352  1
  Zn  Zn143  1  0.94518233  0.43780444  0.19343673  1
  Zn  Zn144  1  0.93990927  0.44083690  0.68876921  1
  Zn  Zn145  1  0.93691053  0.93842210  0.18252629  1
  Zn  Zn146  1  0.93866786  0.93807083  0.68813435  1
  Zn  Zn147  1  0.05812300  0.05759012  0.30614781  1
  Zn  Zn148  1  0.06169503  0.06119893  0.81073864  1
  Zn  Zn149  1  0.06391376  0.55930001  0.31265417  1
  Zn  Zn150  1  0.06029740  0.56239128  0.81419570  1
  Zn  Zn151  1  0.56460669  0.06005177  0.30822429  1
  Zn  Zn152  1  0.55528248  0.07004945  0.80439020  1
  Zn  Zn153  1  0.56556989  0.56218691  0.31174775  1
  Zn  Zn154  1  0.55889981  0.56171345  0.81604958  1
  Zn  Zn155  1  0.40341253  0.20351815  0.41995873  1
  Zn  Zn156  1  0.43718526  0.18822069  0.93350236  1
  Zn  Zn157  1  0.43993835  0.68629546  0.43716706  1
  Zn  Zn158  1  0.43928613  0.68867423  0.94246381  1
  Zn  Zn159  1  0.93288548  0.19002909  0.42632817  1
  Zn  Zn160  1  0.93582005  0.18453257  0.93591388  1
  Zn  Zn161  1  0.94111300  0.68574930  0.44279894  1
  Zn  Zn162  1  0.93811879  0.68628431  0.94283637  1
  Zn  Zn163  1  0.06504768  0.31263206  0.06715019  1
  Zn  Zn164  1  0.09529922  0.30393946  0.57589833  1
  Zn  Zn165  1  0.06239466  0.81089388  0.05795701  1
  Zn  Zn166  1  0.06178432  0.81069347  0.56214966  1
  Zn  Zn167  1  0.57277630  0.31431084  0.06640922  1
  Zn  Zn168  1  0.57067011  0.31835996  0.55786430  1
  Zn  Zn169  1  0.56187030  0.81252101  0.06354300  1
  Zn  Zn170  1  0.56230813  0.81204859  0.56123575  1
  O  O171  1  0.11791573  0.12130293  0.11286985  1
  O  O172  1  0.11035133  0.11820468  0.61229598  1
  O  O173  1  0.12023799  0.61910264  0.11993128  1
  O  O174  1  0.12180615  0.62301383  0.62064263  1
  O  O175  1  0.61699450  0.11588154  0.12745719  1
  O  O176  1  0.62829846  0.10845207  0.61031987  1
  O  O177  1  0.62624466  0.62217487  0.11343408  1
  O  O178  1  0.61874400  0.61958346  0.61921695  1
  O  O179  1  0.38543963  0.38575275  0.37040499  1
  O  O180  1  0.39072461  0.37395656  0.88028613  1
  O  O181  1  0.38029820  0.88399979  0.38061213  1
  O  O182  1  0.38122498  0.87861269  0.88458766  1
  O  O183  1  0.87243638  0.39283759  0.39075156  1
  O  O184  1  0.88000324  0.38028878  0.88225076  1
  O  O185  1  0.88230818  0.87979218  0.37342917  1
  O  O186  1  0.86837098  0.86702460  0.88925567  1
  O  O187  1  0.25747562  0.00435428  0.36443009  1
  O  O188  1  0.25769971  0.00191479  0.87607911  1
  O  O189  1  0.25780428  0.50736126  0.36595730  1
  O  O190  1  0.24586931  0.49982505  0.86838766  1
  O  O191  1  0.75221019  0.00202243  0.36549700  1
  O  O192  1  0.74001835  0.00931874  0.86473314  1
  O  O193  1  0.76493283  0.51086069  0.37923204  1
  O  O194  1  0.75703996  0.50294398  0.87162004  1
  O  O195  1  0.24814949  0.49360246  0.13062682  1
  O  O196  1  0.23531734  0.50747619  0.64200723  1
  O  O197  1  0.24864140  1.00106782  0.13359228  1
  O  O198  1  0.23177979  0.99468273  0.62366513  1
  O  O199  1  0.75742235  0.47842513  0.13295078  1
  O  O200  1  0.74180700  0.49790150  0.63264825  1
  O  O201  1  0.74766963  0.99370266  0.12861800  1
  O  O202  1  0.74155598  0.99772146  0.63387960  1
  O  O203  1  0.02021348  0.37272973  0.24686084  1
  O  O204  1  0.00212232  0.36884238  0.75981978  1
  O  O205  1  0.00579856  0.86475176  0.25740001  1
  O  O206  1  0.01313598  0.86715802  0.74650691  1
  O  O207  1  0.50923056  0.36730756  0.25422250  1
  O  O208  1  0.50848825  0.37645858  0.76737454  1
  O  O209  1  0.49344781  0.86600055  0.25960151  1
  O  O210  1  0.50347876  0.86637456  0.76213157  1
  O  O211  1  0.49741120  0.13176453  0.23999668  1
  O  O212  1  0.48385563  0.13951113  0.75554886  1
  O  O213  1  0.49419947  0.63272958  0.24803987  1
  O  O214  1  0.49466707  0.63231296  0.74707067  1
  O  O215  1  1.00034667  0.12023090  0.23158317  1
  O  O216  1  0.99288018  0.13157856  0.74362821  1
  O  O217  1  1.00857961  0.63671556  0.24088924  1
  O  O218  1  0.99797796  0.63246751  0.74489190  1
  O  O219  1  0.36266343  0.24488146  0.00686905  1
  O  O220  1  0.38089107  0.24538140  0.52261853  1
  O  O221  1  0.36522979  0.75454406  0.00557667  1
  O  O222  1  0.37697788  0.76442553  0.49478145  1
  O  O223  1  0.86651612  0.25865083  -0.00741848  1
  O  O224  1  0.86223564  0.25022082  0.50307841  1
  O  O225  1  0.87009737  0.75468018  0.01057106  1
  O  O226  1  0.87535753  0.75066501  0.50585688  1
  O  O227  1  0.11341643  0.23775049  0.48428636  1
  O  O228  1  0.13291927  0.24302425  0.99762222  1
  O  O229  1  0.12010200  0.74178374  0.48726550  1
  O  O230  1  0.13990455  0.74640388  1.00213627  1
  O  O231  1  0.63412936  0.23578779  0.49828636  1
  O  O232  1  0.63243464  0.25650565  0.98558952  1
  O  O233  1  0.62508742  0.73696750  0.49648654  1
  O  O234  1  0.62986476  0.74106937  0.99576593  1
  O  O235  1  0.49737969  0.24619373  0.12776373  1
  O  O236  1  0.53043850  0.24538443  0.63435433  1
  O  O237  1  0.49081078  0.74929174  0.13070535  1
  O  O238  1  0.50525992  0.74051338  0.63603270  1
  O  O239  1  1.00334190  0.23071281  0.11633331  1
  O  O240  1  1.00866548  0.24354451  0.63751823  1
  O  O241  1  0.99370199  0.74531002  0.13112204  1
  O  O242  1  1.00275090  0.73829069  0.63249235  1
  O  O243  1  -0.08345870  0.23582080  0.32556714  1
  O  O244  1  0.00378788  0.25489165  0.86572751  1
  O  O245  1  0.00654770  0.75178468  0.36657184  1
  O  O246  1  -0.00100001  0.74550006  0.86597917  1
  O  O247  1  0.48990029  0.26019661  0.36232372  1
  O  O248  1  0.50659671  0.26386951  0.87915436  1
  O  O249  1  0.49979888  0.75710127  0.36504579  1
  O  O250  1  0.50460753  0.75650426  0.87117687  1
  O  O251  1  0.22745527  0.12835686  0.49588132  1
  O  O252  1  0.23967373  0.13243640  1.00148857  1
  O  O253  1  0.23922248  0.61877218  0.49700108  1
  O  O254  1  0.24397539  0.64170871  1.00344008  1
  O  O255  1  0.74384816  0.12901808  0.49498756  1
  O  O256  1  0.76028563  0.12770382  0.98422813  1
  O  O257  1  0.74332140  0.62657975  0.48934813  1
  O  O258  1  0.74538264  0.62751594  0.99757258  1
  O  O259  1  0.24446788  0.36668376  0.01388354  1
  O  O260  1  0.26469324  0.37286002  0.50017418  1
  O  O261  1  0.25708194  0.86151072  -0.00132400  1
  O  O262  1  0.25347065  0.87954064  0.50849831  1
  O  O263  1  0.76128791  0.36368377  0.01216311  1
  O  O264  1  0.74673126  0.36491686  0.50951542  1
  O  O265  1  0.75625778  0.86690342  0.00615596  1
  O  O266  1  0.75035897  0.86869085  0.50173052  1
  O  O267  1  0.13789270  0.49995667  0.24123131  1
  O  O268  1  0.13349153  0.49787110  0.75057332  1
  O  O269  1  0.13332619  0.98948338  0.24769461  1
  O  O270  1  0.12093954  0.98915682  0.74022928  1
  O  O271  1  0.62668647  0.49066804  0.24415209  1
  O  O272  1  0.63119892  0.49315967  0.74951087  1
  O  O273  1  0.64038136  1.00445116  0.23737107  1
  O  O274  1  0.62729385  0.99860678  0.73991602  1
  O  O275  1  0.36835826  -0.00043080  0.25184611  1
  O  O276  1  0.36778429  -0.01046229  0.76710652  1
  O  O277  1  0.36601903  0.50529060  0.25195275  1
  O  O278  1  0.36108067  0.50763344  0.75659073  1
  O  O279  1  0.86289339  -0.00580931  0.25530139  1
  O  O280  1  0.86211211  0.00674613  0.74776444  1
  O  O281  1  0.88054911  0.49672307  0.26999106  1
  O  O282  1  0.87078327  0.50583648  0.76066265  1
  O  O283  1  0.13149865  0.38336844  0.35968469  1
  O  O284  1  0.11642899  0.37382124  0.86963925  1
  O  O285  1  0.11974745  0.86723049  0.36673949  1
  O  O286  1  0.12967114  0.88005876  0.85866703  1
  O  O287  1  0.61801650  0.38222699  0.36738010  1
  O  O288  1  0.62235975  0.37175447  0.87172070  1
  O  O289  1  0.61123488  0.87202209  0.37768399  1
  O  O290  1  0.61700578  0.87068224  0.87126854  1
  O  O291  1  0.38325085  0.13378593  0.12754309  1
  O  O292  1  0.37846927  0.09524689  0.62984630  1
  O  O293  1  0.37826834  0.63388901  0.13165522  1
  O  O294  1  0.38886974  0.61166564  0.63520199  1
  O  O295  1  0.88524510  0.12708533  0.12907271  1
  O  O296  1  0.88567929  0.11930491  0.63278165  1
  O  O297  1  0.88461500  0.63270905  0.11934964  1
  O  O298  1  0.88519425  0.62226579  0.63416693  1
  O  O299  1  0.25865571  0.25621353  0.12041329  1
  O  O300  1  0.21260011  0.26479113  0.61295504  1
  O  O301  1  0.26266239  0.74987675  0.12632558  1
  O  O302  1  0.24533998  0.76566367  0.62415946  1
  O  O303  1  0.73137402  0.24103127  0.10273915  1
  O  O304  1  0.73764959  0.25986323  0.61851579  1
  O  O305  1  0.75603090  0.75413664  0.12372928  1
  O  O306  1  0.75304938  0.75138227  0.62659596  1
  O  O307  1  0.28601977  0.23326087  0.38380819  1
  O  O308  1  0.24182019  0.25114307  0.88638131  1
  O  O309  1  0.24097686  0.74239777  0.36895286  1
  O  O310  1  0.25429138  0.75295007  0.88288475  1
  O  O311  1  0.75212775  0.23640608  0.38326456  1
  O  O312  1  0.74294714  0.24311960  0.88191422  1
  O  O313  1  0.74975481  0.73781724  0.37400361  1
  O  O314  1  0.74301356  0.74147159  0.88004811  1
  O  O315  1  0.00239018  0.11469578  0.00468102  1
  O  O316  1  0.00078164  0.12788209  0.50213833  1
  O  O317  1  0.01153937  0.63362913  0.01465004  1
  O  O318  1  0.01256723  0.61744607  0.50948526  1
  O  O319  1  0.49706456  0.12475199  0.01134264  1
  O  O320  1  0.50630851  0.11694921  0.49442654  1
  O  O321  1  0.50815855  0.61254478  0.00128238  1
  O  O322  1  0.50755484  0.62829777  0.51041917  1
  O  O323  1  0.50174634  0.37251845  0.48453771  1
  O  O324  1  0.50687242  0.38526111  0.99482517  1
  O  O325  1  0.49138446  0.88003491  0.49154808  1
  O  O326  1  0.49335108  0.87406228  0.98852625  1
  O  O327  1  1.00665506  0.38918229  0.51563963  1
  O  O328  1  0.99706516  0.36663843  0.98739000  1
  O  O329  1  1.00268678  0.87338142  0.48301649  1
  O  O330  1  0.99309288  0.88583153  1.00331164  1
  O  O331  1  0.49142895  0.48980855  0.36334087  1
  O  O332  1  0.50559081  0.48781416  0.88984386  1
  O  O333  1  0.49626589  0.99127570  0.37943755  1
  O  O334  1  0.49452375  0.99233143  0.87607365  1
  O  O335  1  0.99065991  0.50905737  0.38716039  1
  O  O336  1  0.99007735  0.48877842  0.87018923  1
  O  O337  1  0.98937009  0.98924787  0.37040066  1
  O  O338  1  1.00016878  1.00459880  0.89064287  1
  O  O339  1  0.00071148  0.00807263  0.11392355  1
  O  O340  1  0.00671079  0.00846377  0.62214653  1
  O  O341  1  0.01066292  0.51071423  0.13100207  1
  O  O342  1  0.01029570  0.51314944  0.62558049  1
  O  O343  1  0.50947352  0.00794033  0.12433977  1
  O  O344  1  0.50939490  -0.00901539  0.60547867  1
  O  O345  1  0.50552496  0.49805399  0.11367984  1
  O  O346  1  0.51709949  0.51038218  0.63631706  1
  O  O347  1  0.24692463  0.38232469  0.23994300  1
  O  O348  1  0.24255819  0.38804100  0.75466767  1
  O  O349  1  0.24152535  0.88238650  0.25448330  1
  O  O350  1  0.23825118  0.87762610  0.73651590  1
  O  O351  1  0.74201549  0.38379919  0.26244393  1
  O  O352  1  0.74485190  0.37993887  0.74665150  1
  O  O353  1  0.75205624  0.88192201  0.23987707  1
  O  O354  1  0.74002895  0.88419508  0.75265804  1
  O  O355  1  0.25674211  0.11539496  0.24702124  1
  O  O356  1  0.24930213  0.12145068  0.75296718  1
  O  O357  1  0.25610426  0.61761718  0.25473953  1
  O  O358  1  0.25711063  0.61612020  0.75340150  1
  O  O359  1  0.75966562  0.12165018  0.25767273  1
  O  O360  1  0.75619488  0.11884522  0.75704433  1
  O  O361  1  0.74690944  0.62067294  0.26696099  1
  O  O362  1  0.75438289  0.61993774  0.75905969  1
  O  O363  1  0.38613151  0.10559106  0.36069961  1
  O  O364  1  0.36915823  0.11581845  0.87726606  1
  O  O365  1  0.37208107  0.62113108  0.36708441  1
  O  O366  1  0.38290520  0.62650799  0.86549068  1
  O  O367  1  0.86099120  0.10367094  0.38278364  1
  O  O368  1  0.86646732  0.12792432  0.86051554  1
  O  O369  1  0.86560870  0.61807245  0.38104186  1
  O  O370  1  0.87211996  0.61714595  0.87344002  1
  O  O371  1  0.13356662  0.38286916  0.13178891  1
  O  O372  1  0.11281121  0.39159894  0.64651158  1
  O  O373  1  0.11928963  0.87231536  0.13885223  1
  O  O374  1  0.13065559  0.88112038  0.62490519  1
  O  O375  1  0.64494046  0.36791099  0.14183542  1
  O  O376  1  0.63377344  0.38614985  0.63455435  1
  O  O377  1  0.63877426  0.87910176  0.12027517  1
  O  O378  1  0.62436785  0.88462321  0.63126218  1
  O  O379  1  0.13675845  0.26055482  0.25387531  1
  O  O380  1  0.11812370  0.26020374  0.75880002  1
  O  O381  1  0.11964861  0.75408849  0.25811320  1
  O  O382  1  0.11948622  0.76369155  0.74805484  1
  O  O383  1  0.61425425  0.25529652  0.25088534  1
  O  O384  1  0.62859082  0.26724098  0.76452489  1
  O  O385  1  0.61150027  0.74584543  0.24979272  1
  O  O386  1  0.61437293  0.75407956  0.75807227  1
  O  O387  1  0.38583014  0.24506540  0.23771206  1
  O  O388  1  0.36484401  0.26301490  0.73332408  1
  O  O389  1  0.38241469  0.74648066  0.24341971  1
  O  O390  1  0.38490490  0.74444256  0.75243716  1
  O  O391  1  0.82598884  0.28550136  0.20113932  1
  O  O392  1  0.88331812  0.24272412  0.75065036  1
  O  O393  1  0.88382930  0.75300466  0.23784520  1
  O  O394  1  0.88484650  0.74218720  0.75042764  1
  O  O395  1  0.37918378  0.50682581  0.48232090  1
  O  O396  1  0.38889704  0.50416881  1.00519969  1
  O  O397  1  0.38013490  0.99498376  0.48896569  1
  O  O398  1  0.37740599  0.99149150  0.99194061  1
  O  O399  1  0.88795054  0.50084970  0.49660234  1
  O  O400  1  0.87110125  0.49206391  0.98730198  1
  O  O401  1  0.87717939  0.99203739  0.48956854  1
  O  O402  1  0.88565382  0.99021414  1.00131002  1
  O  O403  1  0.11547530  0.00444802  0.00174965  1
  O  O404  1  0.11659446  0.00748415  0.50335221  1
  O  O405  1  0.13291532  0.50923590  0.01563485  1
  O  O406  1  0.12292822  0.50585128  0.51057268  1
  O  O407  1  0.62513258  -0.00391368  0.01422567  1
  O  O408  1  0.61715229  0.00613524  0.50227668  1
  O  O409  1  0.62349690  0.50507623  0.00473742  1
  O  O410  1  0.63075418  0.51161199  0.51063284  1
  O  O411  1  0.36989812  0.36387249  0.12888346  1
  O  O412  1  0.37388543  0.40764400  0.61910019  1
  O  O413  1  0.38184759  0.86915393  0.11023409  1
  O  O414  1  0.35622399  0.88730081  0.61564967  1
  O  O415  1  0.88474572  0.38783259  0.10814619  1
  O  O416  1  0.86021953  0.38350103  0.62617503  1
  O  O417  1  0.86544732  0.86642697  0.11735037  1
  O  O418  1  0.87294399  0.87326533  0.62457597  1
  O  O419  1  0.11808064  0.11773811  0.38416363  1
  O  O420  1  0.12252911  0.13010425  0.88656808  1
  O  O421  1  0.13049223  0.63077737  0.38180734  1
  O  O422  1  0.11878843  0.61870348  0.89313555  1
  O  O423  1  0.63558302  0.11510666  0.38211931  1
  O  O424  1  0.63270533  0.13586827  0.86893171  1
  O  O425  1  0.63468114  0.62315919  0.38311218  1
  O  O426  1  0.62836918  0.62693586  0.88669627  1
