# generated using pymatgen
data_V85Zn86O256
_symmetry_space_group_name_H-M   'P 1'
_cell_length_a   16.94510163
_cell_length_b   16.94132339
_cell_length_c   16.94686340
_cell_angle_alpha   90.05242467
_cell_angle_beta   89.99918003
_cell_angle_gamma   90.02132982
_symmetry_Int_Tables_number   1
_chemical_formula_structural   V85Zn86O256
_chemical_formula_sum   'V85 Zn86 O256'
_cell_volume   4864.97516538
_cell_formula_units_Z   1
loop_
 _symmetry_equiv_pos_site_id
 _symmetry_equiv_pos_as_xyz
  1  'x, y, z'
loop_
 _atom_site_type_symbol
 _atom_site_label
 _atom_site_symmetry_multiplicity
 _atom_site_fract_x
 _atom_site_fract_y
 _atom_site_fract_z
 _atom_site_occupancy
  V  V0  1  0.87479690  0.75689452  0.61895539  1
  V  V1  1  0.12256626  -0.00163849  0.12435860  1
  V  V2  1  0.87000428  0.62701090  0.26032409  1
  V  V3  1  0.25179264  0.50374183  0.27049464  1
  V  V4  1  0.87593956  -0.00516252  0.37966350  1
  V  V5  1  0.74860593  0.36665859  0.11977345  1
  V  V6  1  0.87237322  0.00070298  0.87409841  1
  V  V7  1  0.25028167  0.73849918  -0.00581941  1
  V  V8  1  0.12260621  0.87179972  0.24912513  1
  V  V9  1  -0.00186315  0.49920745  0.49876780  1
  V  V10  1  0.74589449  0.25053165  0.50745797  1
  V  V11  1  0.12139032  0.25229840  0.86087504  1
  V  V12  1  0.49882097  0.74954777  0.75283478  1
  V  V13  1  0.12737510  0.62312812  0.49610862  1
  V  V14  1  0.86581813  0.62815212  0.75069093  1
  V  V15  1  0.87378149  0.24960540  0.12203250  1
  V  V16  1  0.62524367  0.00304347  0.12537586  1
  V  V17  1  0.12878172  0.75012243  0.86968146  1
  V  V18  1  0.62625504  0.87640999  0.74839867  1
  V  V19  1  0.12863196  0.11694474  0.50128371  1
  V  V20  1  0.62949297  0.49572066  0.62531338  1
  V  V21  1  0.50009460  0.00109963  0.00499389  1
  V  V22  1  -0.00108817  -0.00404992  0.50243717  1
  V  V23  1  0.25724542  0.00137310  0.25159197  1
  V  V24  1  0.88241390  0.25122129  0.62667811  1
  V  V25  1  0.12471998  0.12739543  -0.00086406  1
  V  V26  1  0.24950211  0.24739026  0.50370057  1
  V  V27  1  0.62231415  0.37524622  0.25197162  1
  V  V28  1  0.74932296  0.88101742  0.61870751  1
  V  V29  1  0.49224186  0.50230077  0.50527469  1
  V  V30  1  0.25028748  0.12821332  0.87699041  1
  V  V31  1  0.24623815  -0.00607407  0.75270762  1
  V  V32  1  0.75389152  0.00081228  0.24983640  1
  V  V33  1  0.62857632  0.87354476  0.25179530  1
  V  V34  1  0.49433446  0.38239787  0.37565078  1
  V  V35  1  0.36909391  0.37519869  0.00738153  1
  V  V36  1  0.50013476  0.75032230  0.24624503  1
  V  V37  1  0.12752316  -0.01031581  0.62699251  1
  V  V38  1  0.36872666  0.62946838  0.75090775  1
  V  V39  1  0.24122522  0.37347657  0.63289760  1
  V  V40  1  0.88130788  0.13216061  0.25326332  1
  V  V41  1  0.12992888  0.74578940  0.37303796  1
  V  V42  1  0.37743563  0.00022577  0.87590286  1
  V  V43  1  0.62372985  0.50018122  0.12575559  1
  V  V44  1  0.86886248  0.37402681  0.50196654  1
  V  V45  1  0.37628186  0.87227529  0.00116770  1
  V  V46  1  0.00344473  0.76093817  0.74704312  1
  V  V47  1  -0.00109731  0.37134911  0.37136606  1
  V  V48  1  0.74947848  0.49111237  0.74801835  1
  V  V49  1  0.50038355  0.36788906  0.86782440  1
  V  V50  1  0.88130091  0.12892738  0.74877643  1
  V  V51  1  0.26514904  0.12049453  0.37309856  1
  V  V52  1  0.26536984  0.86874612  0.62559256  1
  V  V53  1  0.13593972  0.49472579  0.12487774  1
  V  V54  1  0.74833860  0.49983984  0.25842687  1
  V  V55  1  0.00256794  0.37234594  0.85497216  1
  V  V56  1  0.50960115  0.10638236  0.62937157  1
  V  V57  1  0.12704987  0.36998003  0.24688961  1
  V  V58  1  0.48873157  0.24564101  0.25515014  1
  V  V59  1  0.62775183  0.62481402  0.49304306  1
  V  V60  1  0.62960040  0.13822964  0.00154536  1
  V  V61  1  -0.00189811  -0.00116490  -0.00074214  1
  V  V62  1  0.00174315  0.62523575  0.12091167  1
  V  V63  1  0.00266113  0.13098785  0.13059797  1
  V  V64  1  -0.00010494  0.87371109  0.37532928  1
  V  V65  1  0.74395137  0.00572671  0.74710704  1
  V  V66  1  0.49029575  0.12880075  0.12989343  1
  V  V67  1  0.64289344  0.74373674  0.87799298  1
  V  V68  1  0.75773270  0.87762329  0.11507745  1
  V  V69  1  0.24096065  0.50168824  0.75304203  1
  V  V70  1  0.00001134  0.62592402  0.62548339  1
  V  V71  1  0.87102245  0.50073444  0.87330278  1
  V  V72  1  0.37037088  0.50554585  0.87514884  1
  V  V73  1  0.12056422  0.24439071  0.37287454  1
  V  V74  1  0.75048533  0.12844740  0.37728077  1
  V  V75  1  0.25723419  0.75005770  0.50279602  1
  V  V76  1  0.24872542  0.87059863  0.12065442  1
  V  V77  1  -0.00451824  0.74807469  0.24521946  1
  V  V78  1  0.00131432  0.48961192  0.00030327  1
  V  V79  1  0.81874384  0.69760296  0.06451796  1
  V  V80  1  0.49706262  0.62786663  0.62691747  1
  V  V81  1  0.50196487  0.50298379  -0.00268259  1
  V  V82  1  0.75204734  0.74858038  0.49422783  1
  V  V83  1  0.38601208  0.25259320  0.63589191  1
  V  V84  1  0.37065248  0.37705114  0.49899672  1
  Zn  Zn85  1  0.38160378  0.13253647  0.75632632  1
  Zn  Zn86  1  0.62109531  0.36729600  0.74020204  1
  Zn  Zn87  1  0.47777149  -0.04569117  0.45151868  1
  Zn  Zn88  1  0.86780319  0.36031824  -0.01327176  1
  Zn  Zn89  1  0.50568297  0.87423613  0.87781254  1
  Zn  Zn90  1  0.87448556  0.86990653  -0.00290518  1
  Zn  Zn91  1  0.00760666  0.12759347  0.63011521  1
  Zn  Zn92  1  0.62230959  0.11046721  0.50956417  1
  Zn  Zn93  1  0.63474312  0.62712764  -0.00326762  1
  Zn  Zn94  1  0.62222479  0.25257061  0.37952727  1
  Zn  Zn95  1  0.36048199  0.63260210  0.26136857  1
  Zn  Zn96  1  0.87100601  0.50014885  0.37734655  1
  Zn  Zn97  1  0.24174572  0.25935142  0.00567045  1
  Zn  Zn98  1  0.49793141  0.62372766  0.12609012  1
  Zn  Zn99  1  0.00426864  0.87840353  0.87060958  1
  Zn  Zn100  1  0.38104298  0.74362186  0.11821172  1
  Zn  Zn101  1  0.63093313  0.75252831  0.37658506  1
  Zn  Zn102  1  0.12985146  0.61844770  -0.00671747  1
  Zn  Zn103  1  0.36259924  0.25369993  0.13325738  1
  Zn  Zn104  1  0.12005427  0.49430967  0.62987721  1
  Zn  Zn105  1  0.75524060  0.13667669  0.88202275  1
  Zn  Zn106  1  0.63649871  0.25527753  0.87180068  1
  Zn  Zn107  1  0.19065833  0.18799056  0.18936953  1
  Zn  Zn108  1  0.19372086  0.18206520  0.68813756  1
  Zn  Zn109  1  0.18588024  0.68273001  0.18376697  1
  Zn  Zn110  1  0.18509905  0.68705158  0.68671151  1
  Zn  Zn111  1  0.68410138  0.18836350  0.19183092  1
  Zn  Zn112  1  0.68683239  0.18904087  0.68984831  1
  Zn  Zn113  1  0.68320934  0.68083062  0.19005496  1
  Zn  Zn114  1  0.68556023  0.68811733  0.68385534  1
  Zn  Zn115  1  0.30609030  0.31435156  0.31648180  1
  Zn  Zn116  1  0.31001495  0.31775187  0.81685220  1
  Zn  Zn117  1  0.30906727  0.80821001  0.30385723  1
  Zn  Zn118  1  0.31169958  0.81346541  0.81305905  1
  Zn  Zn119  1  0.81242276  0.31126541  0.31231498  1
  Zn  Zn120  1  0.80811285  0.30866480  0.81031403  1
  Zn  Zn121  1  0.81283893  0.81280676  0.30842078  1
  Zn  Zn122  1  0.81565608  0.81800841  0.80814861  1
  Zn  Zn123  1  0.18307408  0.43454720  0.44173389  1
  Zn  Zn124  1  0.18579189  0.43713803  0.93209277  1
  Zn  Zn125  1  0.30736681  0.93429020  0.43910758  1
  Zn  Zn126  1  0.18530331  0.93314846  0.93597326  1
  Zn  Zn127  1  0.68369077  0.43675325  0.43924311  1
  Zn  Zn128  1  0.68756855  0.43659572  0.93605981  1
  Zn  Zn129  1  0.68311710  0.94040439  0.44232517  1
  Zn  Zn130  1  0.68701021  0.94084077  0.93566445  1
  Zn  Zn131  1  0.31060066  0.06115981  0.06406290  1
  Zn  Zn132  1  0.32319467  0.06307198  0.56513047  1
  Zn  Zn133  1  0.31758185  0.56235621  0.07038118  1
  Zn  Zn134  1  0.31082687  0.56532742  0.56669125  1
  Zn  Zn135  1  0.81347277  0.06390679  0.06325937  1
  Zn  Zn136  1  0.81319000  0.06519427  0.56332996  1
  Zn  Zn137  1  0.81470952  0.53551361  0.06530023  1
  Zn  Zn138  1  0.81150113  0.56427899  0.56307126  1
  Zn  Zn139  1  0.43399787  0.44350259  0.19100167  1
  Zn  Zn140  1  0.43191663  0.43988144  0.68827435  1
  Zn  Zn141  1  0.46129415  0.96485247  0.23677873  1
  Zn  Zn142  1  0.43724710  0.93730453  0.69161547  1
  Zn  Zn143  1  0.93825112  0.43613930  0.18925499  1
  Zn  Zn144  1  0.93213594  0.43901375  0.68294121  1
  Zn  Zn145  1  0.93575194  0.93946906  0.18726868  1
  Zn  Zn146  1  0.93315708  0.94091063  0.68436908  1
  Zn  Zn147  1  0.06766630  0.05942309  0.31317447  1
  Zn  Zn148  1  0.06377280  0.06264033  0.81215048  1
  Zn  Zn149  1  0.05975991  0.55957223  0.31052628  1
  Zn  Zn150  1  0.05806057  0.56804421  0.81294133  1
  Zn  Zn151  1  0.57413862  0.05098801  0.34385244  1
  Zn  Zn152  1  0.56228264  0.06810127  0.81401063  1
  Zn  Zn153  1  0.49984679  0.60263906  0.35484640  1
  Zn  Zn154  1  0.56449130  0.56320077  0.81408175  1
  Zn  Zn155  1  0.44040449  0.18952143  0.44693425  1
  Zn  Zn156  1  0.43866996  0.18955119  0.94295297  1
  Zn  Zn157  1  0.43010033  0.76792983  0.42650497  1
  Zn  Zn158  1  0.44252690  0.68692407  0.93362672  1
  Zn  Zn159  1  0.93979028  0.18552517  0.44227600  1
  Zn  Zn160  1  0.93986917  0.18786805  0.93593855  1
  Zn  Zn161  1  0.93974262  0.68899111  0.43744701  1
  Zn  Zn162  1  0.94947156  0.68026033  0.92861723  1
  Zn  Zn163  1  0.06208309  0.31025336  0.06119318  1
  Zn  Zn164  1  0.06127953  0.31045890  0.55935438  1
  Zn  Zn165  1  0.06237239  0.80922905  0.05701107  1
  Zn  Zn166  1  0.06679912  0.81435521  0.55951893  1
  Zn  Zn167  1  0.55289634  0.31568937  0.06510139  1
  Zn  Zn168  1  0.56292794  0.31177542  0.56098577  1
  Zn  Zn169  1  0.56866768  0.81352277  0.06195997  1
  Zn  Zn170  1  0.56160881  0.81434438  0.56584236  1
  O  O171  1  0.11739545  0.11956302  0.12072273  1
  O  O172  1  0.12830564  0.11478140  0.61848633  1
  O  O173  1  0.11609190  0.61248478  0.12041141  1
  O  O174  1  0.11032447  0.62529424  0.61882700  1
  O  O175  1  0.61739062  0.12393825  0.11840650  1
  O  O176  1  0.61468557  0.11879470  0.62828868  1
  O  O177  1  0.62817111  0.60917590  0.11814330  1
  O  O178  1  0.61532214  0.61543192  0.62151519  1
  O  O179  1  0.37773257  0.37132744  0.39146121  1
  O  O180  1  0.38389297  0.38581796  0.88159647  1
  O  O181  1  0.36658048  0.85631279  0.38357175  1
  O  O182  1  0.37561922  0.88278521  0.88559064  1
  O  O183  1  0.88293161  0.37310419  0.38269097  1
  O  O184  1  0.88758303  0.38094551  0.87056437  1
  O  O185  1  0.88073139  0.88887072  0.36725413  1
  O  O186  1  0.87846358  0.88864362  0.87565928  1
  O  O187  1  0.25102021  0.00767896  0.36357540  1
  O  O188  1  0.25444196  0.00368471  0.87048762  1
  O  O189  1  0.24281323  0.50178319  0.36921170  1
  O  O190  1  0.25812891  0.49829540  0.86680041  1
  O  O191  1  0.76035334  0.00765338  0.37254715  1
  O  O192  1  0.75798388  0.00730164  0.86786493  1
  O  O193  1  0.74997472  0.49322789  0.36227829  1
  O  O194  1  0.76272483  0.49563369  0.86800098  1
  O  O195  1  0.23732976  0.49916539  0.12768867  1
  O  O196  1  0.24731158  0.49088149  0.63419970  1
  O  O197  1  0.23911164  0.98880507  0.12336389  1
  O  O198  1  0.24817580  0.99096075  0.63355541  1
  O  O199  1  0.74278030  0.48707085  0.13704397  1
  O  O200  1  0.74086980  0.50627131  0.63365311  1
  O  O201  1  0.74712816  0.99567817  0.13097408  1
  O  O202  1  0.75463286  0.99244172  0.63226614  1
  O  O203  1  0.00878344  0.37975640  0.26432365  1
  O  O204  1  0.00128198  0.38139732  0.75685686  1
  O  O205  1  0.00321908  0.86810338  0.25033913  1
  O  O206  1  -0.00491278  0.86393727  0.74598045  1
  O  O207  1  0.50329522  0.37578285  0.25915671  1
  O  O208  1  0.49855515  0.38418063  0.76542049  1
  O  O209  1  0.52407798  0.86685374  0.23029011  1
  O  O210  1  0.50873609  0.86813486  0.75226481  1
  O  O211  1  0.50605427  0.14218073  0.24349820  1
  O  O212  1  0.49668655  0.12168607  0.73670296  1
  O  O213  1  0.51750297  0.64578558  0.24326417  1
  O  O214  1  0.49340649  0.62989478  0.74666898  1
  O  O215  1  0.99380390  0.11778191  0.24254423  1
  O  O216  1  0.98599306  0.11785548  0.74813755  1
  O  O217  1  0.98892144  0.62429260  0.23851712  1
  O  O218  1  0.98979025  0.63335787  0.74059742  1
  O  O219  1  0.37499448  0.26835589  0.00014514  1
  O  O220  1  0.36876932  0.25919227  0.51368444  1
  O  O221  1  0.36965658  0.75546669  -0.00355374  1
  O  O222  1  0.35346796  0.73036420  0.50852608  1
  O  O223  1  0.88041186  0.24672030  0.01656040  1
  O  O224  1  0.86960662  0.25547588  0.50505298  1
  O  O225  1  0.87939293  0.74758329  -0.00145763  1
  O  O226  1  0.86988646  0.74449763  0.51155163  1
  O  O227  1  0.12979899  0.23703675  0.49636727  1
  O  O228  1  0.12259997  0.24212846  0.98946066  1
  O  O229  1  0.12664603  0.74187859  0.49153009  1
  O  O230  1  0.13435970  0.74524989  0.99243866  1
  O  O231  1  0.63374281  0.24710277  0.49872525  1
  O  O232  1  0.61690101  0.23965200  1.00278114  1
  O  O233  1  0.63612855  0.74092840  0.50238994  1
  O  O234  1  0.62611137  0.74915778  0.98273204  1
  O  O235  1  0.49213029  0.24664934  0.13527947  1
  O  O236  1  0.48578166  0.26157158  0.63099919  1
  O  O237  1  0.50546328  0.74624263  0.12852683  1
  O  O238  1  0.50953918  0.73922452  0.64270886  1
  O  O239  1  0.99501894  0.23685093  0.12506835  1
  O  O240  1  0.98772073  0.24561421  0.61800683  1
  O  O241  1  1.00588016  0.73298525  0.12600499  1
  O  O242  1  0.99421746  0.74694268  0.62718656  1
  O  O243  1  0.01208112  0.25447883  0.38230348  1
  O  O244  1  0.00386346  0.26457334  0.87459147  1
  O  O245  1  0.00393022  0.75581565  0.36796502  1
  O  O246  1  0.00401883  0.75553837  0.86279067  1
  O  O247  1  0.49936592  0.26244975  0.37147971  1
  O  O248  1  0.49743553  0.26649281  0.87828204  1
  O  O249  1  0.51808640  0.76352059  0.34794604  1
  O  O250  1  0.51064051  0.75192605  0.86484158  1
  O  O251  1  0.24415901  0.12712216  0.49504115  1
  O  O252  1  0.24350364  0.12124398  0.98792889  1
  O  O253  1  0.23192227  0.62962183  0.51175019  1
  O  O254  1  0.25201646  0.63559720  1.00521641  1
  O  O255  1  0.74436853  0.12895480  0.49266752  1
  O  O256  1  0.73254668  0.12097176  1.00464962  1
  O  O257  1  0.74075615  0.63452483  0.50548112  1
  O  O258  1  0.76186567  0.63048838  1.01307843  1
  O  O259  1  0.26564762  0.37832468  -0.00777929  1
  O  O260  1  0.25520378  0.37012137  0.50760786  1
  O  O261  1  0.25442635  0.86623806  0.00419029  1
  O  O262  1  0.24769476  0.86535023  0.51660862  1
  O  O263  1  0.75360049  0.38255260  0.01538373  1
  O  O264  1  0.75869429  0.36589283  0.49400865  1
  O  O265  1  0.75468310  0.88129875  0.00806659  1
  O  O266  1  0.74189526  0.86982572  0.51191652  1
  O  O267  1  0.13060057  0.49262766  0.24435529  1
  O  O268  1  0.13690458  0.51121499  0.74977706  1
  O  O269  1  0.12989940  0.99028231  0.24208440  1
  O  O270  1  0.13803702  1.00510384  0.74354041  1
  O  O271  1  0.63099142  0.48745233  0.24082214  1
  O  O272  1  0.63367337  0.49888173  0.74450029  1
  O  O273  1  0.63571672  0.99143232  0.24440600  1
  O  O274  1  0.63693024  0.99287482  0.75942670  1
  O  O275  1  0.35319351  -0.00268378  0.22784622  1
  O  O276  1  0.36700049  -0.00085507  0.76434025  1
  O  O277  1  0.35469724  0.49786482  0.25371995  1
  O  O278  1  0.36569242  0.50775358  0.75767548  1
  O  O279  1  0.87229063  0.01127255  0.25796998  1
  O  O280  1  0.86634393  0.00562559  0.75627103  1
  O  O281  1  0.86550183  0.50618644  0.24980642  1
  O  O282  1  0.86870933  0.50762826  0.75276020  1
  O  O283  1  0.11735579  0.36465372  0.37280465  1
  O  O284  1  0.11059396  0.36835188  0.87581085  1
  O  O285  1  0.11495128  0.86227278  0.36143572  1
  O  O286  1  0.12013143  0.85905501  0.87862574  1
  O  O287  1  0.61413839  0.37463777  0.36788158  1
  O  O288  1  0.60846768  0.37693744  0.87794331  1
  O  O289  1  0.64192686  0.87413962  0.35366056  1
  O  O290  1  0.62775019  0.86667257  0.86468647  1
  O  O291  1  0.38757528  0.12757092  0.11778732  1
  O  O292  1  0.38222386  0.14011196  0.63107447  1
  O  O293  1  0.37923362  0.62660322  0.13984673  1
  O  O294  1  0.38926154  0.61863852  0.63620044  1
  O  O295  1  0.88171338  0.12940640  0.13376320  1
  O  O296  1  0.87978628  0.13207657  0.63135300  1
  O  O297  1  0.87622142  0.62859467  0.12323017  1
  O  O298  1  0.88396785  0.63279727  0.62973732  1
  O  O299  1  0.25135830  0.24502713  0.11758043  1
  O  O300  1  0.25638139  0.25538052  0.62189055  1
  O  O301  1  0.24832151  0.75821256  0.11674066  1
  O  O302  1  0.24105028  0.76344996  0.62075808  1
  O  O303  1  0.75841715  0.25657319  0.13266006  1
  O  O304  1  0.76165032  0.24184090  0.61138141  1
  O  O305  1  0.75420224  0.75481575  0.12104040  1
  O  O306  1  0.75765210  0.75713441  0.61803796  1
  O  O307  1  0.23786081  0.24402965  0.38319302  1
  O  O308  1  0.24248945  0.24350153  0.87896498  1
  O  O309  1  0.23374492  0.75008929  0.38220062  1
  O  O310  1  0.24251406  0.75190821  0.88207460  1
  O  O311  1  0.75385162  0.24306441  0.38645020  1
  O  O312  1  0.75225421  0.25095542  0.88590590  1
  O  O313  1  0.75395669  0.75519379  0.39007071  1
  O  O314  1  0.74163175  0.75255666  0.86831861  1
  O  O315  1  0.00450888  0.11564371  0.00674988  1
  O  O316  1  0.00990264  0.11303799  0.50153713  1
  O  O317  1  0.00013357  0.60883119  0.00551550  1
  O  O318  1  0.00447417  0.62005487  0.50717553  1
  O  O319  1  0.50752482  0.12087509  0.00975828  1
  O  O320  1  0.50353683  0.13886781  0.52626857  1
  O  O321  1  0.50137728  0.61197682  0.00086236  1
  O  O322  1  0.50715987  0.61396246  0.51243004  1
  O  O323  1  0.49151282  0.38122135  0.49596287  1
  O  O324  1  0.49056637  0.38606964  0.99228996  1
  O  O325  1  0.49459032  0.84809773  0.48759601  1
  O  O326  1  0.49274876  0.88211637  1.00025791  1
  O  O327  1  0.99337118  0.37900344  0.49053407  1
  O  O328  1  0.99520042  0.38280078  0.99682448  1
  O  O329  1  1.00550214  0.88836376  0.49378875  1
  O  O330  1  0.99627146  0.88860123  1.00232889  1
  O  O331  1  0.49877731  0.48972273  0.38961326  1
  O  O332  1  0.49357286  0.49485272  0.88147077  1
  O  O333  1  0.48202683  0.99456829  0.34254182  1
  O  O334  1  0.49135310  0.99904641  0.88203503  1
  O  O335  1  0.99697706  0.48966202  0.38160200  1
  O  O336  1  0.99599948  0.48924657  0.87921257  1
  O  O337  1  0.99535786  0.99509852  0.38167903  1
  O  O338  1  0.99451624  0.99939195  0.88250131  1
  O  O339  1  0.00235713  0.00959822  0.11856843  1
  O  O340  1  0.00816002  0.00028930  0.61887871  1
  O  O341  1  0.00337332  0.50566321  0.11804139  1
  O  O342  1  -0.00047572  0.50882726  0.61909068  1
  O  O343  1  0.50736628  0.01151674  0.13009379  1
  O  O344  1  0.49762959  0.00743961  0.62464932  1
  O  O345  1  0.50853982  0.49880070  0.11850915  1
  O  O346  1  0.50507492  0.50493234  0.62182997  1
  O  O347  1  0.23435536  0.38666462  0.25880832  1
  O  O348  1  0.25214428  0.38671214  0.74376997  1
  O  O349  1  0.24117307  0.87660997  0.23759081  1
  O  O350  1  0.25161228  0.88164922  0.73988913  1
  O  O351  1  0.74145579  0.37711755  0.24443190  1
  O  O352  1  0.75233492  0.38895363  0.74674785  1
  O  O353  1  0.74766828  0.87976359  0.23775150  1
  O  O354  1  0.74536898  0.88422727  0.74117631  1
  O  O355  1  0.24061573  0.11310755  0.26169591  1
  O  O356  1  0.25619933  0.11568020  0.76343253  1
  O  O357  1  0.24346170  0.60899129  0.25153555  1
  O  O358  1  0.26246336  0.61980108  0.74093814  1
  O  O359  1  0.76056180  0.12112192  0.25578802  1
  O  O360  1  0.76157385  0.11711691  0.74933070  1
  O  O361  1  0.75881978  0.61367728  0.24416478  1
  O  O362  1  0.76257926  0.62033926  0.74292036  1
  O  O363  1  0.36257595  0.13970595  0.37848836  1
  O  O364  1  0.36900246  0.11930142  0.87831369  1
  O  O365  1  0.40175111  0.65621445  0.36526763  1
  O  O366  1  0.38024921  0.61305830  0.86691882  1
  O  O367  1  0.87035787  0.12048122  0.37007049  1
  O  O368  1  0.87612476  0.11734718  0.86862669  1
  O  O369  1  0.88001857  0.62076848  0.36331851  1
  O  O370  1  0.88344041  0.61238414  0.86262175  1
  O  O371  1  0.11372043  0.38145451  0.13684000  1
  O  O372  1  0.13683744  0.37377771  0.61948480  1
  O  O373  1  0.12932617  0.87675790  0.12766086  1
  O  O374  1  0.13146708  0.88725018  0.62351076  1
  O  O375  1  0.62936156  0.38002823  0.12922222  1
  O  O376  1  0.61926231  0.39099475  0.62335937  1
  O  O377  1  0.64030033  0.88213995  0.12770516  1
  O  O378  1  0.63405166  0.86902044  0.64008414  1
  O  O379  1  0.12757892  0.25763681  0.26082913  1
  O  O380  1  0.12790522  0.24168583  0.76166075  1
  O  O381  1  0.11734727  0.74925962  0.25448981  1
  O  O382  1  0.11433502  0.74511473  0.75540148  1
  O  O383  1  0.61494133  0.26470038  0.25004062  1
  O  O384  1  0.63246794  0.25713386  0.75672551  1
  O  O385  1  0.62924505  0.76229455  0.24535342  1
  O  O386  1  0.62236073  0.75525476  0.75923722  1
  O  O387  1  0.38408239  0.26277636  0.25039538  1
  O  O388  1  0.36748018  0.25257238  0.73920868  1
  O  O389  1  0.39299947  0.76080489  0.23665126  1
  O  O390  1  0.38447707  0.74059124  0.75923254  1
  O  O391  1  0.87516500  0.23817540  0.24346400  1
  O  O392  1  0.87072717  0.24239917  0.73814376  1
  O  O393  1  0.88128078  0.73943170  0.25065664  1
  O  O394  1  0.88009790  0.74482125  0.74004956  1
  O  O395  1  0.38359144  0.49259848  0.51056846  1
  O  O396  1  0.38011538  0.49488758  0.99401908  1
  O  O397  1  0.37918827  1.00197861  0.49393119  1
  O  O398  1  0.37840784  0.99373708  0.99260470  1
  O  O399  1  0.87749596  0.49178867  0.49879681  1
  O  O400  1  0.88336714  0.49205372  0.98792944  1
  O  O401  1  0.88516853  1.00729746  0.49041377  1
  O  O402  1  0.88245671  1.00397411  0.99099686  1
  O  O403  1  0.11693862  0.00554685  0.00335185  1
  O  O404  1  0.11920711  0.00941546  0.50893428  1
  O  O405  1  0.11887171  0.49683743  0.00662595  1
  O  O406  1  0.11640681  0.50659950  0.50378250  1
  O  O407  1  0.61705128  0.00672553  0.00718994  1
  O  O408  1  0.59762257  0.00949577  0.45941133  1
  O  O409  1  0.61911281  0.50186783  0.00556593  1
  O  O410  1  0.61830200  0.50534594  0.50733717  1
  O  O411  1  0.37906713  0.37986266  0.10957197  1
  O  O412  1  0.36500226  0.36841839  0.62055254  1
  O  O413  1  0.36315523  0.87279510  0.10765276  1
  O  O414  1  0.36403258  0.87225500  0.63032897  1
  O  O415  1  0.86756556  0.36441975  0.12913690  1
  O  O416  1  0.87830132  0.36749905  0.61094957  1
  O  O417  1  0.86412842  0.87888272  0.12139512  1
  O  O418  1  0.86442110  0.86657992  0.62776808  1
  O  O419  1  0.12961937  0.12883993  0.38349323  1
  O  O420  1  0.13061892  0.13110744  0.87920147  1
  O  O421  1  0.11171114  0.63276668  0.38482813  1
  O  O422  1  0.11528443  0.64121854  0.87934916  1
  O  O423  1  0.64459705  0.13617256  0.36240465  1
  O  O424  1  0.62362310  0.12767570  0.89242440  1
  O  O425  1  0.61382934  0.62680561  0.39143608  1
  O  O426  1  0.62897677  0.63797872  0.87596743  1
