# generated using pymatgen
data_V85Zn86O256
_symmetry_space_group_name_H-M   'P 1'
_cell_length_a   16.94499796
_cell_length_b   16.93977700
_cell_length_c   16.95385400
_cell_angle_alpha   89.98231347
_cell_angle_beta   90.05506667
_cell_angle_gamma   90.01203480
_symmetry_Int_Tables_number   1
_chemical_formula_structural   V85Zn86O256
_chemical_formula_sum   'V85 Zn86 O256'
_cell_volume   4866.50773220
_cell_formula_units_Z   1
loop_
 _symmetry_equiv_pos_site_id
 _symmetry_equiv_pos_as_xyz
  1  'x, y, z'
loop_
 _atom_site_type_symbol
 _atom_site_label
 _atom_site_symmetry_multiplicity
 _atom_site_fract_x
 _atom_site_fract_y
 _atom_site_fract_z
 _atom_site_occupancy
  V  V0  1  0.12297754  0.37398917  0.75152069  1
  V  V1  1  0.25323055  0.87703029  0.12641359  1
  V  V2  1  0.62369695  0.49581065  0.62665665  1
  V  V3  1  0.62695845  0.51031641  0.12370318  1
  V  V4  1  0.74201833  0.25353124  0.48683512  1
  V  V5  1  0.38734859  0.12833321  0.25145598  1
  V  V6  1  0.15035417  0.63031258  0.51456855  1
  V  V7  1  0.62163381  0.86535139  0.74479650  1
  V  V8  1  0.12430293  0.12706095  0.49960196  1
  V  V9  1  0.11748509  0.50077460  0.62921913  1
  V  V10  1  0.62715099  0.25651800  0.86250296  1
  V  V11  1  0.49914359  0.62776144  0.61892284  1
  V  V12  1  0.87249975  0.74538461  0.12760728  1
  V  V13  1  0.88462694  0.62795572  0.74917265  1
  V  V14  1  0.38950954  0.25080530  0.12762413  1
  V  V15  1  0.25332937  0.62542755  0.36297092  1
  V  V16  1  0.25357072  0.24809838  -0.00007853  1
  V  V17  1  0.74158339  0.24959109  0.00393234  1
  V  V18  1  0.38009112  0.37439818  -0.00245420  1
  V  V19  1  0.13013518  0.75027159  0.38195234  1
  V  V20  1  0.00143656  0.74671685  0.25365788  1
  V  V21  1  0.86968940  0.25095497  0.62203509  1
  V  V22  1  0.74887542  0.50930172  0.25716448  1
  V  V23  1  -0.00105656  -0.00013898  0.00164344  1
  V  V24  1  -0.00364129  0.13322803  0.12615562  1
  V  V25  1  0.87424485  0.51494681  0.37991247  1
  V  V26  1  0.11952351  0.62488821  -0.00109154  1
  V  V27  1  0.73723143  0.63059942  0.87841399  1
  V  V28  1  0.24965852  0.37258706  0.12221201  1
  V  V29  1  0.38017009  0.00213421  0.38691724  1
  V  V30  1  0.87854385  0.49887673  0.87677846  1
  V  V31  1  0.12448433  0.25388886  0.37295869  1
  V  V32  1  0.50716386  0.50341842  0.49510728  1
  V  V33  1  0.50053557  0.11910922  0.61764301  1
  V  V34  1  0.75096191  0.87174818  0.62024687  1
  V  V35  1  0.75294311  0.88011845  0.13408136  1
  V  V36  1  0.49300532  0.74319895  0.25615876  1
  V  V37  1  0.50672717  0.11445063  0.11395520  1
  V  V38  1  0.37284873  0.50100916  0.87185266  1
  V  V39  1  0.25351703  0.00299319  0.25077522  1
  V  V40  1  0.74442613  0.00355300  0.74607026  1
  V  V41  1  0.87330057  0.36951658  0.00309053  1
  V  V42  1  0.24336921  0.75220663  -0.00427171  1
  V  V43  1  0.00289583  0.50755764  0.50377577  1
  V  V44  1  0.37893717  0.50408362  0.37075020  1
  V  V45  1  0.12968816  -0.00772948  0.62256396  1
  V  V46  1  0.37566104  0.87846699  -0.00345166  1
  V  V47  1  0.12521245  0.12559113  0.00059675  1
  V  V48  1  0.50242514  0.36289550  0.37159185  1
  V  V49  1  0.38905235  -0.00240131  0.87521237  1
  V  V50  1  0.86961704  0.12662820  0.75591129  1
  V  V51  1  0.68800592  0.08522789  0.93644647  1
  V  V52  1  0.12770240  0.87584385  0.25143971  1
  V  V53  1  0.74845145  0.73196962  0.50128859  1
  V  V54  1  -0.01043126  0.25406662  0.24979590  1
  V  V55  1  0.62936954  0.73719794  0.37775682  1
  V  V56  1  0.50290180  0.87960132  0.38547914  1
  V  V57  1  0.12550391  0.24536836  0.87433692  1
  V  V58  1  0.25678329  0.49986388  0.24246339  1
  V  V59  1  0.24411424  0.62998291  0.87117224  1
  V  V60  1  0.50382691  0.37349392  0.86089330  1
  V  V61  1  0.62803983  0.88535600  0.25676979  1
  V  V62  1  -0.00159444  0.37892248  0.37610634  1
  V  V63  1  0.49061517  0.75304947  0.74174129  1
  V  V64  1  0.38431099  0.25531321  0.62786623  1
  V  V65  1  0.74861826  0.10843353  0.37187817  1
  V  V66  1  0.24915630  0.37668326  0.62478802  1
  V  V67  1  0.25278967  0.12327377  0.87426111  1
  V  V68  1  -0.00182389  0.24560745  0.75086128  1
  V  V69  1  0.74385352  0.49415661  0.75320484  1
  V  V70  1  0.36168597  0.86016128  0.50752988  1
  V  V71  1  0.38034987  0.13039444  0.75067230  1
  V  V72  1  -0.00109478  0.12533928  0.62486829  1
  V  V73  1  0.62138478  0.36537122  0.25213362  1
  V  V74  1  0.50690903  0.50699832  -0.00349374  1
  V  V75  1  -0.00712699  0.88035669  0.37485176  1
  V  V76  1  0.24959549  0.25323778  0.50065515  1
  V  V77  1  -0.01080674  0.00385668  0.49539588  1
  V  V78  1  0.25131504  0.12866712  0.37220862  1
  V  V79  1  0.75289827  0.37268492  0.12920126  1
  V  V80  1  0.87371143  0.11044486  0.25433041  1
  V  V81  1  0.86923702  0.00304838  0.87735259  1
  V  V82  1  0.87615878  0.86898908  -0.00190869  1
  V  V83  1  0.55609296  0.81126168  0.92330319  1
  V  V84  1  0.25185306  -0.00693926  0.74507120  1
  Zn  Zn85  1  0.37255032  0.63021091  0.74537822  1
  Zn  Zn86  1  0.61843009  -0.00441895  0.61442849  1
  Zn  Zn87  1  -0.00133087  0.37187642  0.87838723  1
  Zn  Zn88  1  0.74134373  0.37001796  0.62900772  1
  Zn  Zn89  1  0.61494101  0.12457195  0.48435525  1
  Zn  Zn90  1  0.73867150  0.74321763  0.00283944  1
  Zn  Zn91  1  0.12365532  0.37750185  0.24724346  1
  Zn  Zn92  1  0.89114681  0.75025165  0.63647918  1
  Zn  Zn93  1  0.12407712  0.85789832  0.75246303  1
  Zn  Zn94  1  -0.00129360  0.49627415  0.00651535  1
  Zn  Zn95  1  0.12564798  0.00223012  0.12674274  1
  Zn  Zn96  1  0.63035004  0.00378855  0.11712913  1
  Zn  Zn97  1  0.37690021  0.37960752  0.49873249  1
  Zn  Zn98  1  0.37192658  0.74465410  0.13048897  1
  Zn  Zn99  1  0.87142492  0.62924109  0.25840809  1
  Zn  Zn100  1  0.12375904  0.50111906  0.12465627  1
  Zn  Zn101  1  0.87346575  0.87425420  0.50020940  1
  Zn  Zn102  1  0.00330956  0.85458541  0.86617825  1
  Zn  Zn103  1  0.87291736  0.37812480  0.50236230  1
  Zn  Zn104  1  -0.00050054  0.62144822  0.12734836  1
  Zn  Zn105  1  0.49489583  0.62360174  0.12610434  1
  Zn  Zn106  1  0.24869683  0.50228493  0.74948280  1
  Zn  Zn107  1  0.18701379  0.19082884  0.18806274  1
  Zn  Zn108  1  0.19016131  0.18416433  0.68705505  1
  Zn  Zn109  1  0.18776743  0.68911774  0.18533498  1
  Zn  Zn110  1  0.19030617  0.68627485  0.68089136  1
  Zn  Zn111  1  0.69009228  0.18572391  0.18926504  1
  Zn  Zn112  1  0.68619679  0.18864228  0.68389992  1
  Zn  Zn113  1  0.68481422  0.69132870  0.19245987  1
  Zn  Zn114  1  0.68557009  0.68089275  0.68788272  1
  Zn  Zn115  1  0.31702404  0.31541504  0.30950850  1
  Zn  Zn116  1  0.31337812  0.31335005  0.81090523  1
  Zn  Zn117  1  0.31368668  0.81588821  0.32091418  1
  Zn  Zn118  1  0.31196581  0.81519596  0.81334030  1
  Zn  Zn119  1  0.81447931  0.31894085  0.31312140  1
  Zn  Zn120  1  0.80701138  0.31172722  0.81608884  1
  Zn  Zn121  1  0.81154453  0.81076959  0.31728744  1
  Zn  Zn122  1  0.81095046  0.80938342  0.81266927  1
  Zn  Zn123  1  0.18929739  0.44291892  0.43624842  1
  Zn  Zn124  1  0.18619588  0.43966440  0.93657400  1
  Zn  Zn125  1  0.18731881  0.94042486  0.43738528  1
  Zn  Zn126  1  0.19021497  0.94131858  0.93605483  1
  Zn  Zn127  1  0.68667514  0.43864286  0.43681820  1
  Zn  Zn128  1  0.68806723  0.43800814  0.93722429  1
  Zn  Zn129  1  0.68353854  0.93986149  0.44210220  1
  Zn  Zn130  1  0.69659891  0.92249984  0.93810892  1
  Zn  Zn131  1  0.31899202  0.06154340  0.06237564  1
  Zn  Zn132  1  0.31286920  0.06517681  0.56280420  1
  Zn  Zn133  1  0.31536267  0.56487918  0.05972308  1
  Zn  Zn134  1  0.31144812  0.57224435  0.56174294  1
  Zn  Zn135  1  0.81935190  0.06149800  0.07305964  1
  Zn  Zn136  1  0.80527264  0.06537405  0.56137379  1
  Zn  Zn137  1  0.80947379  0.56182725  0.06167188  1
  Zn  Zn138  1  0.81399168  0.55963611  0.56929645  1
  Zn  Zn139  1  0.44037045  0.43907501  0.18559386  1
  Zn  Zn140  1  0.43794266  0.44226075  0.68536150  1
  Zn  Zn141  1  0.43982271  0.93714419  0.19274002  1
  Zn  Zn142  1  0.43429933  0.93540383  0.68458457  1
  Zn  Zn143  1  0.93391487  0.44169933  0.18922524  1
  Zn  Zn144  1  0.93440389  0.43593232  0.69209356  1
  Zn  Zn145  1  0.94064650  0.93478260  0.18565881  1
  Zn  Zn146  1  0.93391375  0.93886991  0.68396117  1
  Zn  Zn147  1  0.06356387  0.06419095  0.31168755  1
  Zn  Zn148  1  0.06128799  0.00234752  0.81218154  1
  Zn  Zn149  1  0.06802963  0.56300112  0.31337532  1
  Zn  Zn150  1  0.06147518  0.68524218  0.81037681  1
  Zn  Zn151  1  0.56325363  0.06386012  0.31212997  1
  Zn  Zn152  1  0.56044591  0.06266208  0.79963628  1
  Zn  Zn153  1  0.56489347  0.55933263  0.31104214  1
  Zn  Zn154  1  0.56075207  0.56493699  0.80733543  1
  Zn  Zn155  1  0.43332388  0.19212620  0.44059232  1
  Zn  Zn156  1  0.44473243  0.18876121  0.93596042  1
  Zn  Zn157  1  0.43699422  0.68601711  0.43718268  1
  Zn  Zn158  1  0.42552269  0.68304972  0.94456450  1
  Zn  Zn159  1  0.93209904  0.18949641  0.43507491  1
  Zn  Zn160  1  0.93294383  0.18937182  0.93785695  1
  Zn  Zn161  1  0.95324882  0.69928807  0.46700967  1
  Zn  Zn162  1  0.93054262  0.68106511  0.93959800  1
  Zn  Zn163  1  0.06272413  0.31197096  0.06268372  1
  Zn  Zn164  1  0.05928791  0.31450048  0.56185876  1
  Zn  Zn165  1  0.06187082  0.81174358  0.06419040  1
  Zn  Zn166  1  0.06336110  0.81420682  0.56426505  1
  Zn  Zn167  1  0.56672717  0.31733460  0.05969143  1
  Zn  Zn168  1  0.56342444  0.31421846  0.55837523  1
  Zn  Zn169  1  0.56053721  0.81687246  0.08427217  1
  Zn  Zn170  1  0.56254736  0.81052326  0.55957933  1
  O  O171  1  0.11671869  0.12483093  0.11988644  1
  O  O172  1  0.11882478  0.12471767  0.61472447  1
  O  O173  1  0.12636082  0.62565085  0.11117159  1
  O  O174  1  0.11020749  0.60320010  0.62741325  1
  O  O175  1  0.61125932  0.12243319  0.13244656  1
  O  O176  1  0.60488148  0.12843825  0.62985266  1
  O  O177  1  0.62112712  0.61397443  0.13013561  1
  O  O178  1  0.61145077  0.61092997  0.62973003  1
  O  O179  1  0.38469546  0.38609798  0.37204453  1
  O  O180  1  0.38118023  0.37988179  0.87910072  1
  O  O181  1  0.38306558  0.88529502  0.38245409  1
  O  O182  1  0.37235833  0.88481041  0.88399480  1
  O  O183  1  0.88758428  0.38470807  0.37756000  1
  O  O184  1  0.87120916  0.38060234  0.88469680  1
  O  O185  1  0.88987792  0.87408284  0.37466563  1
  O  O186  1  0.87241883  0.88170275  0.88484624  1
  O  O187  1  0.25743116  0.00949445  0.36920034  1
  O  O188  1  0.26058959  0.00974115  0.86661906  1
  O  O189  1  0.26101507  0.49538987  0.35781668  1
  O  O190  1  0.25735699  0.50670597  0.87357248  1
  O  O191  1  0.75455036  0.01025336  0.37702148  1
  O  O192  1  0.74830785  0.01003730  0.87311164  1
  O  O193  1  0.76097109  0.49561515  0.36923590  1
  O  O194  1  0.75542969  0.50487819  0.87038544  1
  O  O195  1  0.25247347  0.48964305  0.12608032  1
  O  O196  1  0.24145389  0.49079040  0.62732384  1
  O  O197  1  0.25234454  0.99118137  0.13039594  1
  O  O198  1  0.24240322  1.00812580  0.63165928  1
  O  O199  1  0.74364459  0.49457215  0.13326958  1
  O  O200  1  0.74091606  0.49763193  0.63349798  1
  O  O201  1  0.75240418  0.98473037  0.12517790  1
  O  O202  1  0.75003424  0.99080496  0.63276933  1
  O  O203  1  0.00066816  0.36963715  0.25614324  1
  O  O204  1  0.00648438  0.36410537  0.75344290  1
  O  O205  1  0.00690076  0.86723409  0.25557716  1
  O  O206  1  0.00833326  0.90501869  0.75930911  1
  O  O207  1  0.51389451  0.37931431  0.25385752  1
  O  O208  1  0.49481151  0.37710602  0.76200457  1
  O  O209  1  0.50838906  0.86719865  0.26087741  1
  O  O210  1  0.50780259  0.86710779  0.74263512  1
  O  O211  1  0.49030872  0.12373040  0.24220005  1
  O  O212  1  0.48669167  0.12725889  0.73810701  1
  O  O213  1  0.50367293  0.64042799  0.25429110  1
  O  O214  1  0.49698086  0.63612704  0.74299053  1
  O  O215  1  0.99214021  0.13159632  0.24692263  1
  O  O216  1  0.98606753  0.12794862  0.74077141  1
  O  O217  1  1.00145185  0.63791012  0.25144605  1
  O  O218  1  0.98247777  0.61536367  0.75770601  1
  O  O219  1  0.37225907  0.25417789  0.00622151  1
  O  O220  1  0.36517814  0.25715564  0.50856833  1
  O  O221  1  0.36251379  0.76315756  0.00090173  1
  O  O222  1  0.37254490  0.76067602  0.49385091  1
  O  O223  1  0.86094056  0.26208650  -0.00636322  1
  O  O224  1  0.86541872  0.25218223  0.50708673  1
  O  O225  1  0.87460915  0.75629268  0.01144591  1
  O  O226  1  0.85007987  0.75437500  0.48566118  1
  O  O227  1  0.12970544  0.24706210  0.49362789  1
  O  O228  1  0.13254782  0.24475115  0.99493658  1
  O  O229  1  0.12739004  0.74281303  0.48786913  1
  O  O230  1  0.13686759  0.74667004  1.00470969  1
  O  O231  1  0.63897188  0.24319765  0.50169289  1
  O  O232  1  0.63596989  0.25036699  0.99323960  1
  O  O233  1  0.63462925  0.75278840  0.48705173  1
  O  O234  1  0.61570291  0.76319911  0.99172027  1
  O  O235  1  0.49247734  0.24425806  0.11913012  1
  O  O236  1  0.48761576  0.24711315  0.61968904  1
  O  O237  1  0.49806342  0.74787166  0.14482290  1
  O  O238  1  0.50518368  0.74076465  0.63058957  1
  O  O239  1  1.00439846  0.24093001  0.13445306  1
  O  O240  1  0.99117814  0.24463233  0.62944600  1
  O  O241  1  0.99178860  0.74999361  0.13678750  1
  O  O242  1  0.98215805  0.74116566  0.57280386  1
  O  O243  1  0.00337272  0.25890150  0.37014761  1
  O  O244  1  0.00644528  0.24810713  0.86818389  1
  O  O245  1  0.00983304  0.75901157  0.37178267  1
  O  O246  1  -0.00035949  0.74576285  0.88197718  1
  O  O247  1  0.49432436  0.26316484  0.37574229  1
  O  O248  1  0.51568236  0.25946064  0.88034260  1
  O  O249  1  0.50891488  0.75627351  0.37100435  1
  O  O250  1  0.49891536  0.74526913  0.87006236  1
  O  O251  1  0.24591165  0.13378097  0.49196864  1
  O  O252  1  0.24856589  0.12859384  0.99592334  1
  O  O253  1  0.24361691  0.58860269  0.46708998  1
  O  O254  1  0.24414209  0.63508278  0.99310744  1
  O  O255  1  0.75515779  0.13507959  0.48262236  1
  O  O256  1  0.75622040  0.13270606  1.00381400  1
  O  O257  1  0.74960432  0.63349637  0.50521711  1
  O  O258  1  0.75137050  0.62589337  0.98551125  1
  O  O259  1  0.25830433  0.37017891  0.00569334  1
  O  O260  1  0.24986705  0.37237055  0.51012325  1
  O  O261  1  0.25521399  0.87286112  0.00646317  1
  O  O262  1  0.26255083  0.87593239  0.49229109  1
  O  O263  1  0.75247222  0.36864263  0.00983792  1
  O  O264  1  0.75084386  0.36346179  0.50083453  1
  O  O265  1  0.76273661  0.86582389  0.01012927  1
  O  O266  1  0.75025161  0.87332142  0.51228936  1
  O  O267  1  0.14036111  0.49723647  0.24682258  1
  O  O268  1  0.12551948  0.48035357  0.74429701  1
  O  O269  1  0.13483163  0.99585503  0.24890595  1
  O  O270  1  0.14034212  1.01895072  0.73328889  1
  O  O271  1  0.63243927  0.49355042  0.24365599  1
  O  O272  1  0.63221524  0.50102810  0.74192978  1
  O  O273  1  0.62325625  0.98736069  0.24941961  1
  O  O274  1  0.63214058  0.98888762  0.74528791  1
  O  O275  1  0.37059858  0.00875594  0.25819598  1
  O  O276  1  0.36919255  0.00691394  0.75405951  1
  O  O277  1  0.36584920  0.49624072  0.25280737  1
  O  O278  1  0.37330765  0.50028229  0.76301358  1
  O  O279  1  0.88303425  0.01202831  0.25025139  1
  O  O280  1  0.86148039  0.00630190  0.75678308  1
  O  O281  1  0.86693121  0.50523949  0.26133792  1
  O  O282  1  0.86679433  0.50485866  0.75866748  1
  O  O283  1  0.11495290  0.37287783  0.37340865  1
  O  O284  1  0.12567895  0.36563349  0.86766929  1
  O  O285  1  0.12149798  0.86867685  0.36974562  1
  O  O286  1  0.11425729  0.90305246  0.86418274  1
  O  O287  1  0.61791467  0.38072841  0.36039452  1
  O  O288  1  0.61901960  0.36515666  0.87597333  1
  O  O289  1  0.61918836  0.87001717  0.37261497  1
  O  O290  1  0.61925725  0.87272506  0.86766276  1
  O  O291  1  0.38590623  0.13014315  0.13136570  1
  O  O292  1  0.38236810  0.13392572  0.62951173  1
  O  O293  1  0.38113739  0.63204958  0.11735665  1
  O  O294  1  0.39283073  0.61474546  0.62957534  1
  O  O295  1  0.88334477  0.12720558  0.14166092  1
  O  O296  1  0.87614832  0.13491198  0.63106440  1
  O  O297  1  0.87382419  0.63650411  0.12814331  1
  O  O298  1  0.86991129  0.62383860  0.64573838  1
  O  O299  1  0.25959991  0.25546757  0.11897831  1
  O  O300  1  0.25656961  0.25764210  0.61965832  1
  O  O301  1  0.25166925  0.76416894  0.12084820  1
  O  O302  1  0.23040178  0.66949007  0.57852803  1
  O  O303  1  0.74430231  0.25983377  0.11787253  1
  O  O304  1  0.75463920  0.24898132  0.61311125  1
  O  O305  1  0.75485077  0.75683432  0.12427533  1
  O  O306  1  0.74699120  0.75266317  0.61272056  1
  O  O307  1  0.24643140  0.24904447  0.37893069  1
  O  O308  1  0.24799091  0.24318517  0.88064270  1
  O  O309  1  0.24338049  0.73772497  0.36651265  1
  O  O310  1  0.25311850  0.74337544  0.88351588  1
  O  O311  1  0.75596675  0.24940639  0.38556426  1
  O  O312  1  0.73553726  0.25028563  0.88400701  1
  O  O313  1  0.73571613  0.75138470  0.38278025  1
  O  O314  1  0.74990870  0.73580142  0.87890541  1
  O  O315  1  0.00024987  0.12418574  0.01107054  1
  O  O316  1  0.00350920  0.12229538  0.50212265  1
  O  O317  1  0.00804518  0.62112755  0.00423028  1
  O  O318  1  0.02340646  0.60811472  0.49143143  1
  O  O319  1  0.49641583  0.12316784  0.01552112  1
  O  O320  1  0.49747291  0.13114832  0.51306609  1
  O  O321  1  0.49885616  0.61032205  -0.00389271  1
  O  O322  1  0.49867127  0.61707067  0.50539165  1
  O  O323  1  0.49971885  0.38228031  0.48786427  1
  O  O324  1  0.49538938  0.38462184  0.99256458  1
  O  O325  1  0.49271715  0.87144096  0.48870320  1
  O  O326  1  0.49644540  0.86345673  0.99138876  1
  O  O327  1  0.99944436  0.38372055  0.49039629  1
  O  O328  1  0.98815293  0.37240486  1.00018162  1
  O  O329  1  1.00101498  0.88873333  0.48989708  1
  O  O330  1  0.98975376  0.88387979  1.00347062  1
  O  O331  1  0.49573553  0.49562023  0.37765053  1
  O  O332  1  0.49532467  0.49424130  0.87827204  1
  O  O333  1  0.49188857  0.99251786  0.37040695  1
  O  O334  1  0.48805679  1.00493004  0.86780934  1
  O  O335  1  0.99685560  0.49467175  0.38001634  1
  O  O336  1  0.98087628  0.49317924  0.88168083  1
  O  O337  1  1.00875428  0.99303840  0.38348250  1
  O  O338  1  0.98446061  1.01523578  0.89517530  1
  O  O339  1  -0.00083544  0.01039365  0.11609756  1
  O  O340  1  0.00740401  0.00887001  0.61432418  1
  O  O341  1  0.00403943  0.50291492  0.12556670  1
  O  O342  1  0.00589736  0.48387597  0.61474172  1
  O  O343  1  0.50274392  0.01046251  0.12552798  1
  O  O344  1  0.49713309  0.01629780  0.62747346  1
  O  O345  1  0.50920227  0.49981749  0.11570167  1
  O  O346  1  0.50538322  0.50300632  0.61465894  1
  O  O347  1  0.25079613  0.37931766  0.23647555  1
  O  O348  1  0.24221331  0.37301383  0.73944064  1
  O  O349  1  0.24938647  0.88164940  0.24462622  1
  O  O350  1  0.24694623  0.88969362  0.75188320  1
  O  O351  1  0.74323890  0.38387949  0.24607972  1
  O  O352  1  0.75437755  0.38931693  0.74908433  1
  O  O353  1  0.74153292  0.86770429  0.24555764  1
  O  O354  1  0.74354636  0.87916065  0.74202869  1
  O  O355  1  0.25862188  0.12202034  0.25360468  1
  O  O356  1  0.26296791  0.12095954  0.75462705  1
  O  O357  1  0.24761869  0.61595118  0.25469952  1
  O  O358  1  0.25360318  0.62278737  0.75789597  1
  O  O359  1  0.76401540  0.12780064  0.25882823  1
  O  O360  1  0.75504639  0.11358495  0.74071909  1
  O  O361  1  0.74989157  0.61355639  0.24957937  1
  O  O362  1  0.75383400  0.61535135  0.76116421  1
  O  O363  1  0.37315051  0.12184392  0.36824979  1
  O  O364  1  0.37362097  0.12278835  0.86789023  1
  O  O365  1  0.37035099  0.61255083  0.37246297  1
  O  O366  1  0.36247421  0.61668207  0.87442439  1
  O  O367  1  0.86737999  0.12678214  0.36211914  1
  O  O368  1  0.87200222  0.12393341  0.86208474  1
  O  O369  1  0.88597080  0.61589158  0.38131631  1
  O  O370  1  0.86359104  0.61427830  0.86901694  1
  O  O371  1  0.13912764  0.37387136  0.12396697  1
  O  O372  1  0.13147388  0.37504135  0.63168435  1
  O  O373  1  0.13386191  0.87861109  0.13254464  1
  O  O374  1  0.12279473  0.88928317  0.62575886  1
  O  O375  1  0.63246264  0.38350008  0.13515351  1
  O  O376  1  0.62323326  0.38833600  0.62182446  1
  O  O377  1  0.63495391  0.88156581  0.13604743  1
  O  O378  1  0.63167354  0.87560460  0.62984029  1
  O  O379  1  0.11456721  0.25206797  0.25770469  1
  O  O380  1  0.12097292  0.25454771  0.75352297  1
  O  O381  1  0.11934947  0.75535980  0.25774258  1
  O  O382  1  0.12161149  0.74707485  0.73869158  1
  O  O383  1  0.63015624  0.26716641  0.24665070  1
  O  O384  1  0.63264209  0.25163107  0.76365294  1
  O  O385  1  0.61784477  0.75829551  0.26271649  1
  O  O386  1  0.61794034  0.75993832  0.74727243  1
  O  O387  1  0.37078633  0.24045184  0.23869148  1
  O  O388  1  0.36938458  0.24252118  0.73972686  1
  O  O389  1  0.39083114  0.75797246  0.25582652  1
  O  O390  1  0.38662808  0.75360356  0.75108862  1
  O  O391  1  0.88700933  0.24597872  0.25539582  1
  O  O392  1  0.87364189  0.24284752  0.74483975  1
  O  O393  1  0.88260194  0.74840026  0.24729685  1
  O  O394  1  0.87327881  0.73521918  0.75157006  1
  O  O395  1  0.38654171  0.49852973  0.48910903  1
  O  O396  1  0.38144943  0.49368219  0.98757418  1
  O  O397  1  0.37231965  1.00049440  0.48847995  1
  O  O398  1  0.37331307  0.98750322  0.99175928  1
  O  O399  1  0.88410764  0.49965875  0.49796994  1
  O  O400  1  0.87002952  0.48697554  0.99500859  1
  O  O401  1  0.88664724  1.00070962  0.50546780  1
  O  O402  1  0.87856627  0.99190510  0.99917000  1
  O  O403  1  0.11558585  0.00816058  0.00425566  1
  O  O404  1  0.12052077  0.00907856  0.50582594  1
  O  O405  1  0.12301949  0.51046954  0.00117838  1
  O  O406  1  0.12260857  0.50206418  0.51137447  1
  O  O407  1  0.64087343  0.00935691  -0.00623662  1
  O  O408  1  0.63011188  0.01401404  0.50432714  1
  O  O409  1  0.61825175  0.49262292  0.01059652  1
  O  O410  1  0.61383531  0.49823676  0.50394550  1
  O  O411  1  0.37162098  0.36696356  0.11964778  1
  O  O412  1  0.36701885  0.37103500  0.62495718  1
  O  O413  1  0.37007375  0.87466977  0.11824179  1
  O  O414  1  0.37607251  0.87832303  0.60590657  1
  O  O415  1  0.86051314  0.37945889  0.12065211  1
  O  O416  1  0.87179855  0.36055910  0.62561836  1
  O  O417  1  0.87127958  0.86455212  0.12273027  1
  O  O418  1  0.86594722  0.86832527  0.62416469  1
  O  O419  1  0.13069999  0.13347586  0.37986085  1
  O  O420  1  0.13529922  0.12972345  0.88345931  1
  O  O421  1  0.13517908  0.63359107  0.37952925  1
  O  O422  1  0.13704193  0.62491347  0.88512021  1
  O  O423  1  0.64346764  0.12564480  0.36665681  1
  O  O424  1  0.62024156  0.13433977  0.87213983  1
  O  O425  1  0.62276304  0.63886025  0.37311923  1
  O  O426  1  0.63866093  0.61965040  0.87244533  1
