# generated using pymatgen
data_V85Zn86O256
_symmetry_space_group_name_H-M   'P 1'
_cell_length_a   16.92893933
_cell_length_b   16.94258988
_cell_length_c   16.94370009
_cell_angle_alpha   90.08964537
_cell_angle_beta   89.97306024
_cell_angle_gamma   90.08042999
_symmetry_Int_Tables_number   1
_chemical_formula_structural   V85Zn86O256
_chemical_formula_sum   'V85 Zn86 O256'
_cell_volume   4859.78208192
_cell_formula_units_Z   1
loop_
 _symmetry_equiv_pos_site_id
 _symmetry_equiv_pos_as_xyz
  1  'x, y, z'
loop_
 _atom_site_type_symbol
 _atom_site_label
 _atom_site_symmetry_multiplicity
 _atom_site_fract_x
 _atom_site_fract_y
 _atom_site_fract_z
 _atom_site_occupancy
  V  V0  1  0.13493513  0.24133321  0.37461123  1
  V  V1  1  0.37585843  0.01481019  0.36524355  1
  V  V2  1  0.62893775  0.49763694  0.12007288  1
  V  V3  1  0.62543870  0.25374453  0.86702806  1
  V  V4  1  0.00092411  0.87591550  0.37525734  1
  V  V5  1  0.87280698  0.49710244  0.87054062  1
  V  V6  1  0.87740572  0.12173359  0.74894288  1
  V  V7  1  0.48936702  0.12515930  0.12790382  1
  V  V8  1  0.61986683  0.62011784  -0.00373371  1
  V  V9  1  0.11896636  0.13372485  -0.00291465  1
  V  V10  1  0.12759029  0.87837345  0.25054038  1
  V  V11  1  0.12950004  -0.01182598  0.61718652  1
  V  V12  1  0.50130344  0.62421292  0.60693340  1
  V  V13  1  0.37077802  0.87234112  -0.00003826  1
  V  V14  1  0.62452558  0.00067815  0.12312243  1
  V  V15  1  0.62021829  0.11671433  0.50389499  1
  V  V16  1  0.36861515  0.00460663  0.87985284  1
  V  V17  1  0.74938117  0.25057987  0.00086134  1
  V  V18  1  0.50043895  0.24684288  0.25317593  1
  V  V19  1  0.50538221  0.38474872  0.87546177  1
  V  V20  1  0.87703676  0.24715066  0.12440672  1
  V  V21  1  0.11727806  0.00948630  0.12560334  1
  V  V22  1  0.75105508  -0.00077283  0.24851231  1
  V  V23  1  0.49526757  0.74335599  0.75049682  1
  V  V24  1  0.12825716  0.87470281  0.76023151  1
  V  V25  1  0.00012125  0.00171139  -0.00672053  1
  V  V26  1  0.74965882  0.87508924  0.62420812  1
  V  V27  1  0.17652176  0.18117163  0.54645534  1
  V  V28  1  0.00699906  0.37086870  0.87357822  1
  V  V29  1  0.49808597  -0.00072530  -0.00007671  1
  V  V30  1  0.87686870  0.37556486  0.00205469  1
  V  V31  1  0.25560426  0.61686770  0.36433370  1
  V  V32  1  0.75045622  0.87374072  0.12276962  1
  V  V33  1  0.62542826  0.87367731  0.75121437  1
  V  V34  1  -0.00141631  0.75075336  0.25066833  1
  V  V35  1  0.25361948  0.76076532  0.50121714  1
  V  V36  1  -0.00245520  0.75586971  0.75759912  1
  V  V37  1  0.74562265  0.37864634  0.13507277  1
  V  V38  1  0.86548852  0.37735904  0.50071496  1
  V  V39  1  0.13692738  0.50389647  0.62406163  1
  V  V40  1  0.87567841  0.12615946  0.24691604  1
  V  V41  1  0.48889962  0.87640846  0.37112185  1
  V  V42  1  0.74953279  0.61971202  0.87095724  1
  V  V43  1  0.87038443  0.62160241  0.24899733  1
  V  V44  1  0.61649232  0.40583621  0.28588018  1
  V  V45  1  0.87845462  0.24727016  0.62536493  1
  V  V46  1  0.62413693  0.87542001  0.24880065  1
  V  V47  1  0.88008681  0.87371774  -0.00716457  1
  V  V48  1  0.25391302  0.38290009  0.13209537  1
  V  V49  1  0.62063321  0.74889016  0.37517964  1
  V  V50  1  0.87178603  0.61973070  0.74548551  1
  V  V51  1  0.87707167  -0.00055872  0.37460459  1
  V  V52  1  0.36736968  0.49985657  0.87147393  1
  V  V53  1  0.00423011  0.24684386  0.75042071  1
  V  V54  1  0.49220647  0.25855884  0.74735225  1
  V  V55  1  -0.00070382  0.24892536  0.24748962  1
  V  V56  1  0.62374548  0.12596790  -0.00263694  1
  V  V57  1  0.87746706  0.87555326  0.49921909  1
  V  V58  1  0.75186002  0.12184134  0.37982027  1
  V  V59  1  0.49529411  0.74671582  0.24656856  1
  V  V60  1  0.13071923  0.38368028  0.25360275  1
  V  V61  1  0.62505854  0.24435694  0.37408369  1
  V  V62  1  0.00329475  0.01428114  0.50352820  1
  V  V63  1  0.24040775  0.73962671  -0.00144617  1
  V  V64  1  0.25070720  0.01849994  0.24927785  1
  V  V65  1  0.44004501  -0.06077085  0.54511025  1
  V  V66  1  0.38211042  0.38178025  0.00400691  1
  V  V67  1  0.61918634  0.49726788  0.62972249  1
  V  V68  1  0.74956489  0.38180010  0.64660577  1
  V  V69  1  0.00035361  0.37579264  0.37683581  1
  V  V70  1  0.49217777  0.13128693  0.62448814  1
  V  V71  1  0.62321947  0.74716676  0.87448759  1
  V  V72  1  0.73810490  0.62002856  0.37123184  1
  V  V73  1  0.75007847  0.74819723  -0.00004316  1
  V  V74  1  0.87850851  0.74768881  0.62262173  1
  V  V75  1  0.00493201  0.62431829  0.12304391  1
  V  V76  1  0.49612334  0.61480923  0.12083700  1
  V  V77  1  0.00919547  0.50354946  -0.00147562  1
  V  V78  1  0.74682503  0.74496728  0.49633833  1
  V  V79  1  0.24885557  0.25471328  -0.00428075  1
  V  V80  1  0.38652395  0.36775322  0.50034474  1
  V  V81  1  0.13558579  0.37842970  0.74900485  1
  V  V82  1  0.37235692  0.74496954  0.12692961  1
  V  V83  1  0.36642108  0.61955140  0.74535854  1
  V  V84  1  0.86829205  0.49920450  0.37058559  1
  Zn  Zn85  1  -0.00010446  0.50326958  0.50210037  1
  Zn  Zn86  1  0.25053140  -0.00189614  0.74622398  1
  Zn  Zn87  1  0.12694401  0.62608012  0.49684099  1
  Zn  Zn88  1  0.11496224  0.74389819  0.88186095  1
  Zn  Zn89  1  0.24702640  0.12807459  0.87777808  1
  Zn  Zn90  1  0.23600443  0.61699038  0.86998579  1
  Zn  Zn91  1  0.37323682  0.25158777  0.13255737  1
  Zn  Zn92  1  0.12791922  0.74648722  0.37657246  1
  Zn  Zn93  1  0.87582700  -0.00429392  0.86951613  1
  Zn  Zn94  1  0.00025602  0.62039990  0.62108239  1
  Zn  Zn95  1  0.36985801  0.75717574  0.62200896  1
  Zn  Zn96  1  0.87435952  0.74800273  0.12398854  1
  Zn  Zn97  1  0.13184398  0.50579060  0.12690667  1
  Zn  Zn98  1  0.49907039  0.87270291  0.87774692  1
  Zn  Zn99  1  0.62087616  -0.00314894  0.62295031  1
  Zn  Zn100  1  0.37088306  0.12710225  0.75016940  1
  Zn  Zn101  1  0.75047272  0.12208154  0.87241170  1
  Zn  Zn102  1  0.25469364  0.36033705  0.61457461  1
  Zn  Zn103  1  0.74949500  0.00076864  0.75037800  1
  Zn  Zn104  1  0.37603491  0.49399288  0.37818064  1
  Zn  Zn105  1  0.74791569  0.24907604  0.50583528  1
  Zn  Zn106  1  0.24802925  0.87651289  0.12651235  1
  Zn  Zn107  1  0.18474247  0.19571674  0.18121523  1
  Zn  Zn108  1  0.18219988  0.18187577  0.70672366  1
  Zn  Zn109  1  0.18631761  0.68989534  0.19017768  1
  Zn  Zn110  1  0.18705716  0.69202732  0.68313937  1
  Zn  Zn111  1  0.68694714  0.18590465  0.18647025  1
  Zn  Zn112  1  0.68814067  0.18724437  0.68610965  1
  Zn  Zn113  1  0.68473151  0.68542106  0.18714895  1
  Zn  Zn114  1  0.68623056  0.68398656  0.68608290  1
  Zn  Zn115  1  0.31613674  0.31537031  0.32204434  1
  Zn  Zn116  1  0.31530541  0.31494605  0.81491704  1
  Zn  Zn117  1  0.30748928  0.81200888  0.31340725  1
  Zn  Zn118  1  0.30929688  0.81106898  0.81442721  1
  Zn  Zn119  1  0.80367924  0.31440445  0.31149362  1
  Zn  Zn120  1  0.81754428  0.30658981  0.81651452  1
  Zn  Zn121  1  0.81306617  0.81003427  0.31119968  1
  Zn  Zn122  1  0.81122634  0.80968987  0.81231793  1
  Zn  Zn123  1  0.19605991  0.43757455  0.44254394  1
  Zn  Zn124  1  0.18862445  0.43557935  0.93916754  1
  Zn  Zn125  1  0.19263700  0.94313076  0.43322253  1
  Zn  Zn126  1  0.18531223  0.93387896  0.94094759  1
  Zn  Zn127  1  0.67549056  0.44657505  0.44528451  1
  Zn  Zn128  1  0.69017477  0.43551811  0.93872915  1
  Zn  Zn129  1  0.68342233  0.93422898  0.43726844  1
  Zn  Zn130  1  0.69058133  0.93830036  0.93392358  1
  Zn  Zn131  1  0.30537678  0.06380573  0.06305086  1
  Zn  Zn132  1  0.30880586  0.06523579  0.56292159  1
  Zn  Zn133  1  0.31501110  0.56022195  0.06104357  1
  Zn  Zn134  1  0.31349242  0.56074111  0.54901122  1
  Zn  Zn135  1  0.81351843  0.06282786  0.05930017  1
  Zn  Zn136  1  0.81449199  0.06140917  0.56557570  1
  Zn  Zn137  1  0.81509385  0.56084263  0.05953540  1
  Zn  Zn138  1  0.80190092  0.55878318  0.55814065  1
  Zn  Zn139  1  0.44061682  0.43732809  0.19787251  1
  Zn  Zn140  1  0.43238363  0.43839551  0.67851314  1
  Zn  Zn141  1  0.43324781  0.93698431  0.18714842  1
  Zn  Zn142  1  0.43870100  0.93748906  0.70719215  1
  Zn  Zn143  1  0.93919730  0.43746678  0.18849952  1
  Zn  Zn144  1  0.94222521  0.43725903  0.68614695  1
  Zn  Zn145  1  0.93823677  0.93732858  0.18192266  1
  Zn  Zn146  1  0.94454941  0.93841600  0.68441876  1
  Zn  Zn147  1  0.05978428  0.06516642  0.31097159  1
  Zn  Zn148  1  0.06282279  0.06132368  0.81319909  1
  Zn  Zn149  1  0.06203472  0.56383417  0.31626406  1
  Zn  Zn150  1  0.06089699  0.56374965  0.80593226  1
  Zn  Zn151  1  0.56021686  0.06314728  0.31243728  1
  Zn  Zn152  1  0.55760253  0.06298392  0.81221625  1
  Zn  Zn153  1  0.53815337  0.55709648  0.30912062  1
  Zn  Zn154  1  0.56226279  0.55848642  0.80299900  1
  Zn  Zn155  1  0.43881141  0.19460995  0.44170685  1
  Zn  Zn156  1  0.43634210  0.19399604  0.93952270  1
  Zn  Zn157  1  0.42590664  0.68998654  0.43518910  1
  Zn  Zn158  1  0.43314179  0.68376260  0.93654986  1
  Zn  Zn159  1  0.93715516  0.19266802  0.43645032  1
  Zn  Zn160  1  0.93998029  0.18521428  0.93499464  1
  Zn  Zn161  1  0.93883376  0.68469472  0.43644708  1
  Zn  Zn162  1  0.93657024  0.68440376  0.93724382  1
  Zn  Zn163  1  0.06468134  0.31622604  0.06553154  1
  Zn  Zn164  1  0.05770098  0.32332035  0.56500948  1
  Zn  Zn165  1  0.06072722  0.81567081  0.06704915  1
  Zn  Zn166  1  0.06501141  0.81186875  0.56018005  1
  Zn  Zn167  1  0.56024631  0.31079059  0.06146433  1
  Zn  Zn168  1  0.56643768  0.31214832  0.56219505  1
  Zn  Zn169  1  0.56062111  0.81018132  0.06085909  1
  Zn  Zn170  1  0.56580409  0.80152420  0.56512959  1
  O  O171  1  0.12620500  0.11916473  0.11358336  1
  O  O172  1  0.12810939  0.11899691  0.61464708  1
  O  O173  1  0.10957706  0.62294341  0.13384381  1
  O  O174  1  0.12250210  0.61311389  0.62750158  1
  O  O175  1  0.61977401  0.11974377  0.11318183  1
  O  O176  1  0.61571943  0.11889718  0.62102926  1
  O  O177  1  0.62058009  0.62007976  0.11407674  1
  O  O178  1  0.60630904  0.62423543  0.62942913  1
  O  O179  1  0.37947338  0.37732276  0.38835132  1
  O  O180  1  0.38345617  0.38249339  0.88190787  1
  O  O181  1  0.38568977  0.88129089  0.36868295  1
  O  O182  1  0.37520948  0.87919886  0.88710534  1
  O  O183  1  0.87481403  0.38011376  0.37918827  1
  O  O184  1  0.88324421  0.38086559  0.87959449  1
  O  O185  1  0.87945517  0.88137403  0.37838275  1
  O  O186  1  0.86860728  0.87440383  0.88886106  1
  O  O187  1  0.26556221  0.00034495  0.36453327  1
  O  O188  1  0.26089844  -0.00140305  0.88213591  1
  O  O189  1  0.24910086  0.51222204  0.37191004  1
  O  O190  1  0.26261911  0.49905102  0.87694352  1
  O  O191  1  0.75503755  0.00559972  0.37082547  1
  O  O192  1  0.75572679  0.00333053  0.86901211  1
  O  O193  1  0.75561303  0.51007564  0.37849746  1
  O  O194  1  0.76466908  0.50323565  0.88057648  1
  O  O195  1  0.24943117  0.48899751  0.12293520  1
  O  O196  1  0.23805495  0.50306681  0.62412450  1
  O  O197  1  0.23797076  0.99842653  0.13160685  1
  O  O198  1  0.23416171  1.00173246  0.62542322  1
  O  O199  1  0.74391932  0.48939685  0.11704241  1
  O  O200  1  0.75972925  0.48376828  0.63469282  1
  O  O201  1  0.74362251  0.99456913  0.12782388  1
  O  O202  1  0.74862243  0.98437972  0.62647115  1
  O  O203  1  0.00432882  0.36642208  0.25711380  1
  O  O204  1  0.00553840  0.36807826  0.75787608  1
  O  O205  1  0.00354715  0.87167015  0.25491940  1
  O  O206  1  0.01017863  0.86626625  0.74558294  1
  O  O207  1  0.53065451  0.36345070  0.24449191  1
  O  O208  1  0.49772326  0.36376249  0.75581068  1
  O  O209  1  0.50364410  0.86706314  0.25292020  1
  O  O210  1  0.50758619  0.86034777  0.75340398  1
  O  O211  1  0.50511029  0.13156439  0.23794367  1
  O  O212  1  0.49779339  0.13462807  0.74349392  1
  O  O213  1  0.51028135  0.64294474  0.23556629  1
  O  O214  1  0.49101671  0.63489746  0.74883228  1
  O  O215  1  0.99157037  0.14052859  0.25308289  1
  O  O216  1  0.99477585  0.13587260  0.75514233  1
  O  O217  1  0.98887005  0.62964348  0.24675412  1
  O  O218  1  0.98534310  0.63529396  0.74306994  1
  O  O219  1  0.36946708  0.26464751  0.00574286  1
  O  O220  1  0.37494246  0.26409813  0.49877458  1
  O  O221  1  0.36722082  0.75482333  0.00733697  1
  O  O222  1  0.36189868  0.75377725  0.50332063  1
  O  O223  1  0.87243536  0.25461397  0.00766290  1
  O  O224  1  0.87183058  0.25683573  0.50876101  1
  O  O225  1  0.86891761  0.75592132  0.00175825  1
  O  O226  1  0.86915027  0.75574795  0.50496351  1
  O  O227  1  0.11586592  0.24969120  0.48971201  1
  O  O228  1  0.13236246  0.24458243  1.00681444  1
  O  O229  1  0.13425555  0.74851672  0.49715157  1
  O  O230  1  0.13712103  0.75642140  1.00261882  1
  O  O231  1  0.62975846  0.23611985  0.49472358  1
  O  O232  1  0.62738852  0.24129633  0.99186019  1
  O  O233  1  0.63561311  0.75309932  0.48947806  1
  O  O234  1  0.63015223  0.74059615  0.99478015  1
  O  O235  1  0.50197633  0.24039527  0.13256154  1
  O  O236  1  0.51089346  0.24444576  0.64155055  1
  O  O237  1  0.49171198  0.74424248  0.12832985  1
  O  O238  1  0.49490144  0.73884567  0.63092780  1
  O  O239  1  0.98854179  0.25963154  0.13481804  1
  O  O240  1  0.98642469  0.25910239  0.63401548  1
  O  O241  1  0.99638157  0.74250824  0.13224981  1
  O  O242  1  0.98690750  0.75063579  0.62836650  1
  O  O243  1  0.00066101  0.26214645  0.36774286  1
  O  O244  1  -0.00655789  0.26314437  0.86708986  1
  O  O245  1  0.00027288  0.75944186  0.36793147  1
  O  O246  1  -0.00544167  0.74882808  0.86153561  1
  O  O247  1  0.51495066  0.24135429  0.36741083  1
  O  O248  1  0.50564192  0.25878058  0.86610848  1
  O  O249  1  0.49877168  0.75524701  0.36530128  1
  O  O250  1  0.50479347  0.74913735  0.86796545  1
  O  O251  1  0.24190043  0.12697812  0.49418594  1
  O  O252  1  0.24149694  0.13757216  1.00158348  1
  O  O253  1  0.24716545  0.63459963  0.48801785  1
  O  O254  1  0.25194375  0.63735341  0.99991585  1
  O  O255  1  0.74577991  0.12376712  0.49408301  1
  O  O256  1  0.74062333  0.13139584  0.99893860  1
  O  O257  1  0.75758267  0.63860306  0.48665921  1
  O  O258  1  0.74472660  0.63055200  0.99268314  1
  O  O259  1  0.25755986  0.37195561  0.00897913  1
  O  O260  1  0.26341871  0.37248306  0.50082936  1
  O  O261  1  0.25629032  0.86543073  0.00517132  1
  O  O262  1  0.24576918  0.86031708  0.49063685  1
  O  O263  1  0.75916315  0.36767374  0.00720910  1
  O  O264  1  0.75946379  0.37383963  0.50440585  1
  O  O265  1  0.75348365  0.86786030  0.00529055  1
  O  O266  1  0.75520237  0.86610778  0.50418959  1
  O  O267  1  0.11493530  0.48549669  0.24852005  1
  O  O268  1  0.11889229  0.48953526  0.73623090  1
  O  O269  1  0.12885768  0.99943827  0.24452429  1
  O  O270  1  0.12194877  0.98803346  0.74205846  1
  O  O271  1  0.62587689  0.50273301  0.22653916  1
  O  O272  1  0.63586980  0.51040435  0.73063376  1
  O  O273  1  0.63077724  0.99483012  0.24405359  1
  O  O274  1  0.62027258  0.98438819  0.74783776  1
  O  O275  1  0.36679246  0.00182433  0.25630897  1
  O  O276  1  0.37038741  0.00258442  0.76475528  1
  O  O277  1  0.43696151  0.50639030  0.28283031  1
  O  O278  1  0.38164962  0.50840203  0.75831161  1
  O  O279  1  0.87121778  0.00536256  0.25272441  1
  O  O280  1  0.87824882  0.00855271  0.74725994  1
  O  O281  1  0.87719115  0.50546573  0.26173694  1
  O  O282  1  0.88183283  0.50810445  0.75842345  1
  O  O283  1  0.11633778  0.36885809  0.37152891  1
  O  O284  1  0.11526155  0.38376346  0.86571018  1
  O  O285  1  0.11824343  0.88026794  0.36259932  1
  O  O286  1  0.12308683  0.87020947  0.86363014  1
  O  O287  1  0.65683597  0.34682291  0.37620076  1
  O  O288  1  0.61796086  0.36626149  0.88197402  1
  O  O289  1  0.61305313  0.87041755  0.36822800  1
  O  O290  1  0.62430055  0.86611534  0.86765743  1
  O  O291  1  0.38646656  0.12753152  0.11852330  1
  O  O292  1  0.38825198  0.11798770  0.62695268  1
  O  O293  1  0.38436033  0.63220932  0.11933527  1
  O  O294  1  0.38859237  0.62017432  0.63015507  1
  O  O295  1  0.86695239  0.13963516  0.13003488  1
  O  O296  1  0.87070833  0.13572618  0.63485684  1
  O  O297  1  0.88151718  0.62309683  0.13395438  1
  O  O298  1  0.86978550  0.63205315  0.62881663  1
  O  O299  1  0.25490936  0.26401826  0.11795590  1
  O  O300  1  0.22938701  0.23842993  0.61359133  1
  O  O301  1  0.25564215  0.75020648  0.11628777  1
  O  O302  1  0.25266289  0.74883809  0.60897731  1
  O  O303  1  0.75419379  0.25771272  0.12093467  1
  O  O304  1  0.75789387  0.26210830  0.62669629  1
  O  O305  1  0.74977083  0.75527233  0.11804191  1
  O  O306  1  0.75591764  0.75606363  0.61670644  1
  O  O307  1  0.23322981  0.24868577  0.36764812  1
  O  O308  1  0.25379447  0.25379612  0.89167375  1
  O  O309  1  0.24927308  0.74355227  0.38257218  1
  O  O310  1  0.24951013  0.74814356  0.89201387  1
  O  O311  1  0.75150445  0.23021023  0.37512831  1
  O  O312  1  0.74196186  0.24836370  0.88269074  1
  O  O313  1  0.74405111  0.74537138  0.37985772  1
  O  O314  1  0.74288967  0.74136819  0.88033890  1
  O  O315  1  0.00577238  0.11762896  0.00072442  1
  O  O316  1  -0.00570022  0.11298144  0.49422892  1
  O  O317  1  -0.00771334  0.61600870  0.01072555  1
  O  O318  1  0.00503260  0.62246298  0.50192529  1
  O  O319  1  0.50662793  0.12166201  0.00630717  1
  O  O320  1  0.50846995  0.12997375  0.51139959  1
  O  O321  1  0.50978098  0.63229015  0.00763198  1
  O  O322  1  0.49878475  0.63287851  0.50870738  1
  O  O323  1  0.49050303  0.37321933  0.50854471  1
  O  O324  1  0.49245859  0.37009437  0.98939235  1
  O  O325  1  0.50295139  0.87551616  0.49229977  1
  O  O326  1  0.49108872  0.88044395  0.99985295  1
  O  O327  1  0.98424136  0.37589074  0.49146434  1
  O  O328  1  0.99630721  0.38053309  0.99321700  1
  O  O329  1  0.99433371  0.88066316  0.49248639  1
  O  O330  1  0.98981666  0.88400959  1.00717960  1
  O  O331  1  0.58651319  0.47022138  0.36694468  1
  O  O332  1  0.49660211  0.48815403  0.86907353  1
  O  O333  1  0.48782609  0.99144732  0.36729920  1
  O  O334  1  0.48856185  0.99671335  0.88277417  1
  O  O335  1  0.99122807  0.48773516  0.37560776  1
  O  O336  1  0.99109268  0.49387392  0.88067529  1
  O  O337  1  0.99538684  0.99412342  0.37947646  1
  O  O338  1  0.99726195  1.00013133  0.88900894  1
  O  O339  1  0.01098499  0.00025013  0.11790216  1
  O  O340  1  0.01411033  0.00012900  0.61475420  1
  O  O341  1  -0.00105354  0.50595790  0.11599681  1
  O  O342  1  0.00952712  0.49972153  0.62070630  1
  O  O343  1  0.50466278  0.00629045  0.12050405  1
  O  O344  1  0.49552734  -0.00224920  0.61497537  1
  O  O345  1  0.50709286  0.51157679  0.12145851  1
  O  O346  1  0.51120140  0.51014813  0.62717938  1
  O  O347  1  0.24262724  0.36966607  0.24497473  1
  O  O348  1  0.23777607  0.36355878  0.74567913  1
  O  O349  1  0.24042341  0.88381975  0.24791800  1
  O  O350  1  0.23402454  0.87551794  0.75217470  1
  O  O351  1  0.72989348  0.37372258  0.23978649  1
  O  O352  1  0.75378359  0.37054199  0.74439953  1
  O  O353  1  0.74585105  0.87995431  0.24354887  1
  O  O354  1  0.74209451  0.87168874  0.74095025  1
  O  O355  1  0.24502231  0.11773806  0.24217996  1
  O  O356  1  0.25330105  0.11749227  0.76121043  1
  O  O357  1  0.24800317  0.63258032  0.26463100  1
  O  O358  1  0.26402137  0.63451791  0.75025732  1
  O  O359  1  0.75493688  0.11647358  0.25644603  1
  O  O360  1  0.75922216  0.12229312  0.74962241  1
  O  O361  1  0.76241934  0.63145500  0.25608766  1
  O  O362  1  0.76332955  0.63296416  0.75594219  1
  O  O363  1  0.38592083  0.11213672  0.37599854  1
  O  O364  1  0.37360732  0.11652048  0.88143507  1
  O  O365  1  0.36093015  0.62142314  0.37413130  1
  O  O366  1  0.37327923  0.61475740  0.86670466  1
  O  O367  1  0.86937439  0.11866226  0.36949340  1
  O  O368  1  0.87297129  0.12552244  0.86106985  1
  O  O369  1  0.86728737  0.61757383  0.36726547  1
  O  O370  1  0.87097270  0.61612975  0.86666369  1
  O  O371  1  0.13512293  0.37659795  0.13643200  1
  O  O372  1  0.13003269  0.38401409  0.63108904  1
  O  O373  1  0.12322876  0.88535238  0.13775769  1
  O  O374  1  0.12204279  0.88532968  0.63287233  1
  O  O375  1  0.63430017  0.38533951  0.10905407  1
  O  O376  1  0.63873752  0.38520731  0.62529315  1
  O  O377  1  0.63058534  0.88016254  0.12767544  1
  O  O378  1  0.63184946  0.87255824  0.63161276  1
  O  O379  1  0.11591630  0.25814617  0.25751981  1
  O  O380  1  0.11038589  0.25999622  0.74775355  1
  O  O381  1  0.11638454  0.76228606  0.25121392  1
  O  O382  1  0.11556465  0.76201532  0.74644704  1
  O  O383  1  0.61958669  0.23910662  0.26128236  1
  O  O384  1  0.61755076  0.24374255  0.76367128  1
  O  O385  1  0.61755858  0.75870588  0.25303068  1
  O  O386  1  0.61838610  0.75651855  0.75299934  1
  O  O387  1  0.39617124  0.26163381  0.25131847  1
  O  O388  1  0.38895062  0.24706991  0.75553020  1
  O  O389  1  0.38055254  0.75811220  0.23510667  1
  O  O390  1  0.38098103  0.74742524  0.74487694  1
  O  O391  1  0.87825460  0.24866498  0.24382309  1
  O  O392  1  0.88334043  0.24368239  0.74396489  1
  O  O393  1  0.88194056  0.74168755  0.24808660  1
  O  O394  1  0.87928867  0.74686221  0.74051543  1
  O  O395  1  0.37770720  0.48769621  0.49370992  1
  O  O396  1  0.37564445  0.48895883  0.99096461  1
  O  O397  1  0.37435911  0.99622853  0.48982246  1
  O  O398  1  0.37717891  0.99131794  0.99999881  1
  O  O399  1  0.87367861  0.49386029  0.48823977  1
  O  O400  1  0.88470664  0.49284925  0.99258936  1
  O  O401  1  0.88184737  0.99397041  0.49617248  1
  O  O402  1  0.88307684  0.99272001  1.00079163  1
  O  O403  1  0.11797165  0.00427076  0.00781407  1
  O  O404  1  0.11869395  -0.00718057  0.50852748  1
  O  O405  1  0.11236651  0.49543775  0.00389412  1
  O  O406  1  0.12293680  0.49824271  0.51348218  1
  O  O407  1  0.61910485  0.00624296  0.00218593  1
  O  O408  1  0.62803374  0.01114825  0.50148906  1
  O  O409  1  0.62950250  0.51347547  0.00271023  1
  O  O410  1  0.65212867  0.51505573  0.53343802  1
  O  O411  1  0.37411358  0.37995186  0.12256980  1
  O  O412  1  0.36893582  0.37561025  0.61396072  1
  O  O413  1  0.37378433  0.86705178  0.11400115  1
  O  O414  1  0.38837502  0.88387021  0.61315471  1
  O  O415  1  0.86518476  0.36760899  0.12554700  1
  O  O416  1  0.86652915  0.36966071  0.62020134  1
  O  O417  1  0.86501783  0.87379258  0.11552207  1
  O  O418  1  0.86781837  0.86720062  0.62075862  1
  O  O419  1  0.11692214  0.14291027  0.37197797  1
  O  O420  1  0.12669864  0.11959200  0.89173708  1
  O  O421  1  0.13360107  0.62713479  0.37529291  1
  O  O422  1  0.12379362  0.63070973  0.86808755  1
  O  O423  1  0.63299555  0.12541032  0.38282860  1
  O  O424  1  0.62274719  0.13044477  0.88502745  1
  O  O425  1  0.63461223  0.63213917  0.36223712  1
  O  O426  1  0.62764091  0.62637690  0.87854722  1
