# generated using pymatgen
data_V85Zn86O256
_symmetry_space_group_name_H-M   'P 1'
_cell_length_a   16.92903258
_cell_length_b   16.94473134
_cell_length_c   16.93904864
_cell_angle_alpha   90.00716247
_cell_angle_beta   89.94843706
_cell_angle_gamma   89.95441028
_symmetry_Int_Tables_number   1
_chemical_formula_structural   V85Zn86O256
_chemical_formula_sum   'V85 Zn86 O256'
_cell_volume   4859.09652841
_cell_formula_units_Z   1
loop_
 _symmetry_equiv_pos_site_id
 _symmetry_equiv_pos_as_xyz
  1  'x, y, z'
loop_
 _atom_site_type_symbol
 _atom_site_label
 _atom_site_symmetry_multiplicity
 _atom_site_fract_x
 _atom_site_fract_y
 _atom_site_fract_z
 _atom_site_occupancy
  V  V0  1  0.50507363  0.61863478  0.62164295  1
  V  V1  1  0.50503362  0.49311746  0.49327745  1
  V  V2  1  0.63694987  0.12923503  0.00113896  1
  V  V3  1  0.62822154  0.62294666  0.49562781  1
  V  V4  1  0.49907609  0.62692000  0.12630198  1
  V  V5  1  0.75113162  0.00054370  0.73844877  1
  V  V6  1  0.61528541  0.12512151  0.50828518  1
  V  V7  1  0.12610511  0.87181956  0.75108165  1
  V  V8  1  0.25044314  0.87423629  0.61887077  1
  V  V9  1  0.50530485  0.25510068  0.74547055  1
  V  V10  1  0.87638254  0.12267263  0.25138328  1
  V  V11  1  0.62907658  0.25302498  0.87568742  1
  V  V12  1  0.87376162  0.61993252  0.75339985  1
  V  V13  1  0.90570261  0.49008581  0.88796549  1
  V  V14  1  0.25172721  0.00224967  0.75120954  1
  V  V15  1  0.49479886  0.25737201  0.24972060  1
  V  V16  1  0.75298405  0.12676447  0.86769132  1
  V  V17  1  0.00193559  0.37428799  0.37413349  1
  V  V18  1  0.62897104  -0.00441234  0.12165197  1
  V  V19  1  0.74502249  0.12524527  0.37621886  1
  V  V20  1  0.63025040  0.75088138  0.87205980  1
  V  V21  1  0.72395804  0.57136445  0.82255032  1
  V  V22  1  0.75047697  0.87439175  0.13168365  1
  V  V23  1  0.12652906  0.00067462  0.62349894  1
  V  V24  1  0.74924131  0.38926364  0.63183574  1
  V  V25  1  0.87385638  0.75160468  0.62426270  1
  V  V26  1  0.36950808  0.63000472  0.26025839  1
  V  V27  1  -0.00250841  0.73683356  0.24872104  1
  V  V28  1  0.13188540  0.62275758  0.49696105  1
  V  V29  1  -0.00000484  0.24485483  0.25201745  1
  V  V30  1  0.87551680  0.87284738  0.00006547  1
  V  V31  1  0.37453719  0.00252692  0.87611233  1
  V  V32  1  0.24025671  0.74790781  0.00157353  1
  V  V33  1  0.37642830  0.74911964  0.62361841  1
  V  V34  1  0.38179529  0.12799386  0.75073999  1
  V  V35  1  0.24832407  0.50308859  0.24330953  1
  V  V36  1  0.74610265  0.75351774  0.49632826  1
  V  V37  1  0.39137971  0.88095414  0.49542350  1
  V  V38  1  0.51112866  0.75074945  0.26126358  1
  V  V39  1  0.86927658  0.24523564  0.12444901  1
  V  V40  1  0.88065764  0.73460616  0.12648142  1
  V  V41  1  0.37371177  0.62531617  0.74823391  1
  V  V42  1  0.25403229  0.00412930  0.25521817  1
  V  V43  1  0.50114864  0.00229964  -0.00004279  1
  V  V44  1  0.37410097  0.87410901  -0.00195997  1
  V  V45  1  0.11150417  0.51278320  0.11332204  1
  V  V46  1  0.36802613  0.36746866  0.00562213  1
  V  V47  1  0.37380087  0.24996287  0.62669174  1
  V  V48  1  0.75289782  0.25243993  0.50298146  1
  V  V49  1  0.62740459  0.62393685  -0.00251988  1
  V  V50  1  0.00027329  0.00016815  0.49932002  1
  V  V51  1  0.11682209  0.00818914  0.12287776  1
  V  V52  1  0.13029585  0.37567033  0.24343742  1
  V  V53  1  0.23649410  0.13274771  0.88017518  1
  V  V54  1  0.87484827  0.24869088  0.63190579  1
  V  V55  1  -0.00253786  0.12403202  0.62818239  1
  V  V56  1  0.87179294  -0.00085321  0.86777014  1
  V  V57  1  0.62995259  0.87577824  0.74319218  1
  V  V58  1  0.49183032  0.12928377  0.12517416  1
  V  V59  1  0.87485186  -0.00089559  0.37571066  1
  V  V60  1  0.37226190  0.49853026  0.87357502  1
  V  V61  1  0.56981856  0.92621083  0.30447603  1
  V  V62  1  0.74982864  0.74453537  -0.00027268  1
  V  V63  1  0.13574321  0.12564033  0.49241556  1
  V  V64  1  0.75720950  0.62970260  0.37088822  1
  V  V65  1  0.50166718  0.87479490  0.87393877  1
  V  V66  1  0.74561478  0.36939629  0.12807242  1
  V  V67  1  0.12155820  0.38609006  0.74520581  1
  V  V68  1  0.24300582  0.62652227  0.87725269  1
  V  V69  1  0.00027317  0.87371253  0.87645210  1
  V  V70  1  0.61006260  0.00226759  0.62352350  1
  V  V71  1  0.87222085  0.87556682  0.50411739  1
  V  V72  1  0.62578125  0.50013204  0.12785709  1
  V  V73  1  0.13263083  0.74871952  0.37270841  1
  V  V74  1  0.24742708  0.38116272  0.62077333  1
  V  V75  1  0.37446602  0.75049885  0.12565039  1
  V  V76  1  0.86883774  0.36940802  0.00065426  1
  V  V77  1  0.76029843  0.50375688  0.25002233  1
  V  V78  1  0.04413645  0.33794434  0.91589356  1
  V  V79  1  0.00598271  0.49782849  0.50371553  1
  V  V80  1  0.49695084  0.49848673  0.00227582  1
  V  V81  1  0.37428141  0.49613281  0.37350065  1
  V  V82  1  0.62062421  0.26123368  0.37712227  1
  V  V83  1  0.00707760  0.62040926  0.62811662  1
  V  V84  1  0.00906624  0.25095121  0.74739856  1
  Zn  Zn85  1  0.00002737  0.87203645  0.37245077  1
  Zn  Zn86  1  0.24713513  0.87868434  0.12611822  1
  Zn  Zn87  1  0.74832392  -0.00540805  0.25228226  1
  Zn  Zn88  1  0.11898218  0.74431391  0.88023063  1
  Zn  Zn89  1  0.22272580  0.25428338  -0.00084404  1
  Zn  Zn90  1  0.24258393  0.50391125  0.74531817  1
  Zn  Zn91  1  0.13880100  0.24482282  0.36674033  1
  Zn  Zn92  1  -0.00008477  0.74891339  0.74914266  1
  Zn  Zn93  1  0.88105773  0.50399907  0.37195915  1
  Zn  Zn94  1  0.61981863  0.38181726  0.25730112  1
  Zn  Zn95  1  0.35833140  0.24959424  0.13271297  1
  Zn  Zn96  1  0.32026892  0.16343945  0.31751745  1
  Zn  Zn97  1  0.50083362  0.37516353  0.87337974  1
  Zn  Zn98  1  0.25476832  0.25134874  0.49225716  1
  Zn  Zn99  1  0.37746597  -0.00193634  0.37689057  1
  Zn  Zn100  1  0.25314139  0.74651900  0.49350899  1
  Zn  Zn101  1  0.50290621  0.74987676  0.74781283  1
  Zn  Zn102  1  0.00993846  0.01667912  -0.00051315  1
  Zn  Zn103  1  0.87856374  0.37670463  0.50068567  1
  Zn  Zn104  1  0.37781579  0.37591342  0.49848079  1
  Zn  Zn105  1  0.63113349  0.39508032  0.75192839  1
  Zn  Zn106  1  0.12272652  0.87475111  0.24771585  1
  Zn  Zn107  1  0.18503194  0.18445779  0.17985476  1
  Zn  Zn108  1  0.19006234  0.18937690  0.68649130  1
  Zn  Zn109  1  0.18542314  0.68553909  0.18686292  1
  Zn  Zn110  1  0.18780540  0.68819233  0.68675847  1
  Zn  Zn111  1  0.68181313  0.18562453  0.19311461  1
  Zn  Zn112  1  0.68875877  0.18931569  0.68868047  1
  Zn  Zn113  1  0.69017268  0.68560352  0.18647604  1
  Zn  Zn114  1  0.68830371  0.68954376  0.67692122  1
  Zn  Zn115  1  0.31322116  0.32535859  0.31240482  1
  Zn  Zn116  1  0.30711081  0.31456710  0.81361278  1
  Zn  Zn117  1  0.31113781  0.81840480  0.31139945  1
  Zn  Zn118  1  0.31101833  0.81124809  0.81160167  1
  Zn  Zn119  1  0.81253462  0.31504967  0.31330994  1
  Zn  Zn120  1  0.81432034  0.31162418  0.80945776  1
  Zn  Zn121  1  0.81782184  0.80977599  0.31277040  1
  Zn  Zn122  1  0.81119635  0.81132103  0.80752203  1
  Zn  Zn123  1  0.18942361  0.43867131  0.43140342  1
  Zn  Zn124  1  0.19028418  0.44120828  0.93940752  1
  Zn  Zn125  1  0.18855299  0.93555791  0.43349854  1
  Zn  Zn126  1  0.18732507  0.93978577  0.94047111  1
  Zn  Zn127  1  0.69245726  0.44133643  0.44072264  1
  Zn  Zn128  1  0.69050190  0.43287334  0.94172056  1
  Zn  Zn129  1  0.69021121  0.94064168  0.44553519  1
  Zn  Zn130  1  0.69182269  0.93619394  0.93778510  1
  Zn  Zn131  1  0.30431410  0.06449994  0.06355662  1
  Zn  Zn132  1  0.31868080  0.06202276  0.56444245  1
  Zn  Zn133  1  0.30898596  0.56352032  0.06501072  1
  Zn  Zn134  1  0.31488387  0.56026207  0.56063695  1
  Zn  Zn135  1  0.83959906  0.07509418  0.04699076  1
  Zn  Zn136  1  0.81167943  0.06606057  0.56298697  1
  Zn  Zn137  1  0.81417338  0.55596933  0.05776866  1
  Zn  Zn138  1  0.82134694  0.56572908  0.55832824  1
  Zn  Zn139  1  0.43465607  0.43759786  0.18703985  1
  Zn  Zn140  1  0.43832063  0.43646311  0.68689143  1
  Zn  Zn141  1  0.43235745  0.94037805  0.18253116  1
  Zn  Zn142  1  0.43788452  0.93571330  0.68835411  1
  Zn  Zn143  1  0.93988727  0.43568529  0.18442997  1
  Zn  Zn144  1  0.93479065  0.43849419  0.68974330  1
  Zn  Zn145  1  0.93940974  0.93076872  0.18969582  1
  Zn  Zn146  1  0.93836730  0.93550756  0.68689749  1
  Zn  Zn147  1  0.06370914  0.05872367  0.30989110  1
  Zn  Zn148  1  0.05963393  0.05904050  0.80930856  1
  Zn  Zn149  1  0.06634955  0.56164594  0.31404873  1
  Zn  Zn150  1  0.05239807  0.55565798  0.82924240  1
  Zn  Zn151  1  0.52029177  0.10097988  0.33858266  1
  Zn  Zn152  1  0.56384777  0.06480630  0.81156201  1
  Zn  Zn153  1  0.56665834  0.56717578  0.31542038  1
  Zn  Zn154  1  0.55221805  0.56620468  0.81404275  1
  Zn  Zn155  1  0.44002192  0.19334195  0.44705455  1
  Zn  Zn156  1  0.44248177  0.18690451  0.93412085  1
  Zn  Zn157  1  0.43927597  0.68867871  0.43823430  1
  Zn  Zn158  1  0.43591002  0.68687300  0.93641522  1
  Zn  Zn159  1  0.93985218  0.18768780  0.43895167  1
  Zn  Zn160  1  0.93206367  0.18628443  0.93595302  1
  Zn  Zn161  1  0.94165447  0.68640094  0.43670758  1
  Zn  Zn162  1  0.92313428  0.68449218  0.92173516  1
  Zn  Zn163  1  0.05877169  0.30936077  0.08171826  1
  Zn  Zn164  1  0.06825748  0.31037185  0.56212280  1
  Zn  Zn165  1  0.06046353  0.81798705  0.06873698  1
  Zn  Zn166  1  0.06062438  0.80939871  0.55961412  1
  Zn  Zn167  1  0.56100533  0.31247927  0.06187556  1
  Zn  Zn168  1  0.56740269  0.31611736  0.56903538  1
  Zn  Zn169  1  0.56128199  0.81271611  0.06369941  1
  Zn  Zn170  1  0.56573501  0.81004009  0.56428097  1
  O  O171  1  0.11621732  0.10805858  0.12832022  1
  O  O172  1  0.12054958  0.11892418  0.61734965  1
  O  O173  1  0.12586381  0.61243812  0.12331535  1
  O  O174  1  0.11261740  0.63163693  0.61986886  1
  O  O175  1  0.62440179  0.11507840  0.11687131  1
  O  O176  1  0.63182180  0.12033195  0.61462913  1
  O  O177  1  0.61857578  0.61997248  0.11714715  1
  O  O178  1  0.61579198  0.62906744  0.61148679  1
  O  O179  1  0.38105681  0.39179704  0.37697628  1
  O  O180  1  0.37730759  0.38449107  0.88124797  1
  O  O181  1  0.37363328  0.87510617  0.39219424  1
  O  O182  1  0.38183178  0.88021748  0.87694371  1
  O  O183  1  0.88945822  0.37482872  0.37798025  1
  O  O184  1  0.86168684  0.37157013  0.89471636  1
  O  O185  1  0.87566444  0.88320979  0.38392360  1
  O  O186  1  0.88156283  0.87657695  0.87697216  1
  O  O187  1  0.25225494  -0.00099316  0.36144301  1
  O  O188  1  0.25623020  0.00568216  0.86857510  1
  O  O189  1  0.26128289  0.50055573  0.36156856  1
  O  O190  1  0.25973948  0.50854837  0.87356634  1
  O  O191  1  0.75616088  0.00924713  0.37601387  1
  O  O192  1  0.75296832  0.00429568  0.86334148  1
  O  O193  1  0.75413574  0.50702380  0.36682566  1
  O  O194  1  0.76764684  0.50267907  0.88613436  1
  O  O195  1  0.24408847  0.50384376  0.13733033  1
  O  O196  1  0.25816220  0.48608863  0.62800270  1
  O  O197  1  0.24039023  1.00046426  0.13362773  1
  O  O198  1  0.24740766  0.99296850  0.63185687  1
  O  O199  1  0.74493782  0.49533843  0.13241894  1
  O  O200  1  0.75911132  0.48627257  0.61537364  1
  O  O201  1  0.74276245  0.99115677  0.12628422  1
  O  O202  1  0.74570934  1.00460040  0.63550029  1
  O  O203  1  0.00492159  0.36713452  0.25734887  1
  O  O204  1  0.01074844  0.36423756  0.73602345  1
  O  O205  1  0.00192462  0.86065861  0.25428267  1
  O  O206  1  0.00940791  0.87414384  0.75689709  1
  O  O207  1  0.50205548  0.36305483  0.24338894  1
  O  O208  1  0.50996844  0.37195515  0.75297076  1
  O  O209  1  0.50291953  0.86673170  0.24617565  1
  O  O210  1  0.51106514  0.87213762  0.75570356  1
  O  O211  1  0.51093320  0.14219494  0.23345285  1
  O  O212  1  0.48834174  0.13436247  0.75575321  1
  O  O213  1  0.49431121  0.63628649  0.24587159  1
  O  O214  1  0.49318529  0.62862308  0.73982835  1
  O  O215  1  0.98713861  0.13143110  0.26028473  1
  O  O216  1  1.00614500  0.13145081  0.73674086  1
  O  O217  1  1.00115219  0.63735347  0.25487747  1
  O  O218  1  0.99300540  0.62726415  0.74440050  1
  O  O219  1  0.38574360  0.26615402  -0.00337264  1
  O  O220  1  0.37464752  0.25550919  0.51182286  1
  O  O221  1  0.37211395  0.75533421  0.00744910  1
  O  O222  1  0.37358301  0.75775670  0.50853807  1
  O  O223  1  0.87003338  0.25233640  0.01801402  1
  O  O224  1  0.86909833  0.25117462  0.50999021  1
  O  O225  1  0.86869602  0.75433560  0.00022289  1
  O  O226  1  0.87201823  0.75733421  0.50416694  1
  O  O227  1  0.12945548  0.23536314  0.49679953  1
  O  O228  1  0.10738744  0.28117238  0.98193357  1
  O  O229  1  0.12539418  0.74219228  0.49093891  1
  O  O230  1  0.13705343  0.75511253  1.00090014  1
  O  O231  1  0.63214704  0.24368853  0.49968057  1
  O  O232  1  0.62072230  0.24061689  0.98957327  1
  O  O233  1  0.64019570  0.74569400  0.50476292  1
  O  O234  1  0.62949103  0.74371045  0.99325554  1
  O  O235  1  0.49739087  0.24392440  0.12983762  1
  O  O236  1  0.49423413  0.25631868  0.63853535  1
  O  O237  1  0.48971346  0.74696869  0.12949401  1
  O  O238  1  0.49286455  0.73956117  0.62457066  1
  O  O239  1  0.98508693  0.24855523  0.14358226  1
  O  O240  1  0.99560608  0.24255827  0.62849309  1
  O  O241  1  0.99362138  0.74995940  0.13602524  1
  O  O242  1  0.99035183  0.74150200  0.62499439  1
  O  O243  1  0.00223906  0.25542680  0.36664181  1
  O  O244  1  -0.00655200  0.25856037  0.86715687  1
  O  O245  1  0.00628675  0.74928641  0.36466801  1
  O  O246  1  -0.00018098  0.76112846  0.87289652  1
  O  O247  1  0.50950367  0.24343579  0.36604235  1
  O  O248  1  0.51008515  0.25232187  0.86402309  1
  O  O249  1  0.50070269  0.74903223  0.36050169  1
  O  O250  1  0.51392166  0.75206682  0.87363247  1
  O  O251  1  0.23834726  0.12340801  0.50566115  1
  O  O252  1  0.24944859  0.12424537  0.98226017  1
  O  O253  1  0.23562528  0.62642292  0.50973741  1
  O  O254  1  0.26025402  0.63661419  0.98962911  1
  O  O255  1  0.74625130  0.13641206  0.49331438  1
  O  O256  1  0.74144102  0.11812960  0.98976448  1
  O  O257  1  0.74628308  0.63189795  0.49554457  1
  O  O258  1  0.74502362  0.63706902  1.00442950  1
  O  O259  1  0.26553193  0.37071849  -0.00779614  1
  O  O260  1  0.25211725  0.37386515  0.50607785  1
  O  O261  1  0.25953179  0.86570570  -0.00218465  1
  O  O262  1  0.25317226  0.87345311  0.51163637  1
  O  O263  1  0.75368088  0.37609180  0.01968001  1
  O  O264  1  0.75213068  0.36420753  0.50808103  1
  O  O265  1  0.75313623  0.86193095  0.00875264  1
  O  O266  1  0.76278696  0.86817429  0.49833303  1
  O  O267  1  0.13255666  0.49537576  0.24649852  1
  O  O268  1  0.11963578  0.48965669  0.75611729  1
  O  O269  1  0.13266082  0.99735886  0.24299440  1
  O  O270  1  0.13002400  0.98908073  0.74333183  1
  O  O271  1  0.63196243  0.50069991  0.24421557  1
  O  O272  1  0.64366229  0.50954178  0.77992787  1
  O  O273  1  0.62550767  0.99082141  0.24222811  1
  O  O274  1  0.63030383  0.99507176  0.74283180  1
  O  O275  1  0.36017987  -0.00377920  0.25062550  1
  O  O276  1  0.37192039  0.00862108  0.75386209  1
  O  O277  1  0.37127398  0.50961164  0.25369408  1
  O  O278  1  0.37550577  0.50606261  0.75921748  1
  O  O279  1  0.87260291  0.00590729  0.25680760  1
  O  O280  1  0.86646071  -0.00947105  0.75940770  1
  O  O281  1  0.86368348  0.49608246  0.24942271  1
  O  O282  1  0.88864672  0.50737426  0.77296006  1
  O  O283  1  0.11682575  0.37095029  0.36422817  1
  O  O284  1  0.13146766  0.37104257  0.86351345  1
  O  O285  1  0.12043569  0.86341329  0.37543766  1
  O  O286  1  0.11760375  0.87595568  0.86799981  1
  O  O287  1  0.62960415  0.36430769  0.37948637  1
  O  O288  1  0.62776234  0.36403164  0.87455137  1
  O  O289  1  0.63067927  0.87871685  0.36744336  1
  O  O290  1  0.61972440  0.86995093  0.86886946  1
  O  O291  1  0.38923479  0.12579156  0.11465531  1
  O  O292  1  0.36912603  0.13947969  0.63523603  1
  O  O293  1  0.38124299  0.63265105  0.13342457  1
  O  O294  1  0.37990633  0.63306897  0.62727007  1
  O  O295  1  0.85409197  0.13222926  0.14705634  1
  O  O296  1  0.88596809  0.13373933  0.62060010  1
  O  O297  1  0.87300924  0.63621418  0.11487481  1
  O  O298  1  0.88549280  0.63045649  0.63218799  1
  O  O299  1  0.24823284  0.24090039  0.10860228  1
  O  O300  1  0.25850062  0.26052216  0.62423543  1
  O  O301  1  0.26056084  0.74906918  0.11869055  1
  O  O302  1  0.25891594  0.75830124  0.62348002  1
  O  O303  1  0.75497528  0.25886859  0.13870362  1
  O  O304  1  0.75898948  0.25308556  0.62034109  1
  O  O305  1  0.75634891  0.75481063  0.11851588  1
  O  O306  1  0.76569700  0.74590649  0.61230239  1
  O  O307  1  0.25651318  0.24602186  0.37380794  1
  O  O308  1  0.25063408  0.23653476  0.87853054  1
  O  O309  1  0.23773876  0.75206410  0.37410121  1
  O  O310  1  0.24951321  0.74335252  0.88311556  1
  O  O311  1  0.74462598  0.24556736  0.38388339  1
  O  O312  1  0.74227757  0.23858584  0.86526230  1
  O  O313  1  0.75643212  0.74347428  0.38405537  1
  O  O314  1  0.73709354  0.76304304  0.88493728  1
  O  O315  1  -0.05272484  0.10778187  0.01189187  1
  O  O316  1  0.00898316  0.12004309  0.50970242  1
  O  O317  1  -0.03206028  0.58086578  -0.09267117  1
  O  O318  1  0.00819878  0.61794449  0.50792915  1
  O  O319  1  0.51281093  0.12013707  0.00455127  1
  O  O320  1  0.51665010  0.12966403  0.50683781  1
  O  O321  1  0.50368792  0.61548394  0.00331715  1
  O  O322  1  0.50902015  0.62111797  0.50364278  1
  O  O323  1  0.50141599  0.39011920  0.50877726  1
  O  O324  1  0.49499080  0.38785368  0.99714345  1
  O  O325  1  0.48965772  0.87203143  0.50360396  1
  O  O326  1  0.49462670  0.88110820  0.99382661  1
  O  O327  1  1.00527604  0.38041290  0.49348741  1
  O  O328  1  0.98548846  0.36107412  1.00344181  1
  O  O329  1  0.98987725  0.88204951  0.49924347  1
  O  O330  1  0.98968878  0.87662662  0.99206729  1
  O  O331  1  0.49340325  0.50887292  0.38389296  1
  O  O332  1  0.48745848  0.50208368  0.88492972  1
  O  O333  1  0.51003544  0.98714536  0.35993653  1
  O  O334  1  0.49550682  0.99663636  0.88040494  1
  O  O335  1  1.00076611  0.49078748  0.38002746  1
  O  O336  1  1.00166170  0.44076407  0.87755633  1
  O  O337  1  0.99146369  0.99964937  0.38264753  1
  O  O338  1  0.99040035  0.99131064  0.87595742  1
  O  O339  1  0.01266601  -0.00915285  0.12467737  1
  O  O340  1  0.00536188  0.00617684  0.62077024  1
  O  O341  1  0.01177874  0.50224498  0.12833816  1
  O  O342  1  -0.00376355  0.50874667  0.61734587  1
  O  O343  1  0.50774763  0.00660252  0.11945350  1
  O  O344  1  0.51070643  0.00374381  0.63187041  1
  O  O345  1  0.50353977  0.50649290  0.11915232  1
  O  O346  1  0.49219903  0.51345925  0.61597026  1
  O  O347  1  0.24052116  0.38672798  0.25049288  1
  O  O348  1  0.23981102  0.37794957  0.74265398  1
  O  O349  1  0.24590722  0.88684049  0.24698417  1
  O  O350  1  0.24544196  0.87987541  0.74052798  1
  O  O351  1  0.74641501  0.38445338  0.24381061  1
  O  O352  1  0.75317242  0.37716827  0.73639621  1
  O  O353  1  0.75684594  0.87243268  0.23553789  1
  O  O354  1  0.73733058  0.88397140  0.75369231  1
  O  O355  1  0.24652748  0.11093919  0.24815209  1
  O  O356  1  0.25978603  0.12235551  0.75801831  1
  O  O357  1  0.26144411  0.62109152  0.24719645  1
  O  O358  1  0.25648464  0.62397453  0.75540370  1
  O  O359  1  0.74963156  0.12314502  0.26696850  1
  O  O360  1  0.74378288  0.11404185  0.75750051  1
  O  O361  1  0.74636339  0.61783937  0.25896055  1
  O  O362  1  0.75674858  0.61156478  0.72897115  1
  O  O363  1  0.40363323  0.11228755  0.37502340  1
  O  O364  1  0.37021886  0.11996174  0.86849850  1
  O  O365  1  0.37924670  0.62067823  0.36457571  1
  O  O366  1  0.36847693  0.61999481  0.86772948  1
  O  O367  1  0.86551563  0.12105794  0.37103869  1
  O  O368  1  0.86161925  0.11439571  0.87041499  1
  O  O369  1  0.86238105  0.62247013  0.38150476  1
  O  O370  1  0.83552504  0.64111770  0.84834928  1
  O  O371  1  0.12031922  0.38595110  0.13986639  1
  O  O372  1  0.13594370  0.37201567  0.63181704  1
  O  O373  1  0.13005151  0.88366365  0.12822772  1
  O  O374  1  0.13173792  0.87812735  0.62945455  1
  O  O375  1  0.63034221  0.38225325  0.12635318  1
  O  O376  1  0.64382850  0.37538488  0.63109815  1
  O  O377  1  0.63285471  0.88673267  0.11596126  1
  O  O378  1  0.62210553  0.88509758  0.63276359  1
  O  O379  1  0.11696387  0.25525596  0.24839164  1
  O  O380  1  0.11413843  0.25644870  0.74569498  1
  O  O381  1  0.11661352  0.74836782  0.25606877  1
  O  O382  1  0.12527956  0.76251510  0.75265400  1
  O  O383  1  0.61938725  0.25547552  0.26242309  1
  O  O384  1  0.61811498  0.24902904  0.75767332  1
  O  O385  1  0.60944979  0.74714777  0.24256659  1
  O  O386  1  0.62933944  0.75732076  0.75401302  1
  O  O387  1  0.38003797  0.24997165  0.25026713  1
  O  O388  1  0.38224491  0.24655299  0.74799400  1
  O  O389  1  0.38096163  0.74704775  0.24421872  1
  O  O390  1  0.37710528  0.74696421  0.73806945  1
  O  O391  1  0.87911252  0.24240230  0.24903298  1
  O  O392  1  0.88786161  0.25443734  0.73809731  1
  O  O393  1  0.88717138  0.74888330  0.24085196  1
  O  O394  1  0.87550310  0.74508940  0.73881328  1
  O  O395  1  0.38437496  0.50298219  0.48911860  1
  O  O396  1  0.37959693  0.49361820  0.99570620  1
  O  O397  1  0.37607004  0.98528154  0.50180698  1
  O  O398  1  0.37923998  0.99402436  0.99547084  1
  O  O399  1  0.89205447  0.49755875  0.49564211  1
  O  O400  1  0.87768067  0.48351891  0.99714623  1
  O  O401  1  0.87744048  0.99403528  0.49728461  1
  O  O402  1  0.85721167  0.97840672  0.98218082  1
  O  O403  1  0.12358059  -0.00201435  0.01417971  1
  O  O404  1  0.12230880  0.00755644  0.50418534  1
  O  O405  1  0.12579975  0.49485213  0.01420967  1
  O  O406  1  0.11563867  0.50785554  0.49288882  1
  O  O407  1  0.62240128  0.00632486  0.00498370  1
  O  O408  1  0.63178874  0.01557807  0.50953118  1
  O  O409  1  0.61730110  0.50554665  0.00353380  1
  O  O410  1  0.61831252  0.50994455  0.49588117  1
  O  O411  1  0.37713495  0.37376262  0.10894865  1
  O  O412  1  0.36801305  0.36513734  0.62696971  1
  O  O413  1  0.37232220  0.86631527  0.11678071  1
  O  O414  1  0.37026893  0.86866445  0.61866839  1
  O  O415  1  0.86651421  0.36584795  0.12247541  1
  O  O416  1  0.86689708  0.36715602  0.62237941  1
  O  O417  1  0.86880590  0.86717523  0.11453504  1
  O  O418  1  0.88028746  0.86528121  0.61686767  1
  O  O419  1  0.12002752  0.12410448  0.38987867  1
  O  O420  1  0.13788813  0.11931887  0.86781648  1
  O  O421  1  0.12107242  0.63413451  0.38649067  1
  O  O422  1  0.13927305  0.62565677  0.86989456  1
  O  O423  1  0.62866394  0.13380058  0.38988521  1
  O  O424  1  0.63268024  0.13083142  0.88146678  1
  O  O425  1  0.63839237  0.62591743  0.38731963  1
  O  O426  1  0.63804005  0.63193475  0.87476834  1
