# generated using pymatgen
data_V85Zn86O256
_symmetry_space_group_name_H-M   'P 1'
_cell_length_a   16.93489395
_cell_length_b   16.93181131
_cell_length_c   16.93617931
_cell_angle_alpha   90.04921999
_cell_angle_beta   90.06066560
_cell_angle_gamma   90.07270516
_symmetry_Int_Tables_number   1
_chemical_formula_structural   V85Zn86O256
_chemical_formula_sum   'V85 Zn86 O256'
_cell_volume   4856.24501851
_cell_formula_units_Z   1
loop_
 _symmetry_equiv_pos_site_id
 _symmetry_equiv_pos_as_xyz
  1  'x, y, z'
loop_
 _atom_site_type_symbol
 _atom_site_label
 _atom_site_symmetry_multiplicity
 _atom_site_fract_x
 _atom_site_fract_y
 _atom_site_fract_z
 _atom_site_occupancy
  V  V0  1  0.75093503  0.75602734  0.50438844  1
  V  V1  1  0.75022170  0.62335559  0.37412247  1
  V  V2  1  0.25644547  0.37008425  0.12801542  1
  V  V3  1  0.36701392  0.50237596  0.37552873  1
  V  V4  1  0.11423193  0.36430854  0.24743912  1
  V  V5  1  0.50269117  0.13488718  0.62828867  1
  V  V6  1  0.51491929  0.87545102  0.87755604  1
  V  V7  1  0.37817085  0.12561128  0.75060144  1
  V  V8  1  0.75413920  0.37178186  0.61306780  1
  V  V9  1  0.63543959  -0.00091284  0.63127092  1
  V  V10  1  -0.00233439  0.13178234  0.12859350  1
  V  V11  1  0.87830303  0.12789327  0.26529124  1
  V  V12  1  0.87606118  0.62347684  0.75353963  1
  V  V13  1  0.12430325  0.49916321  0.12672783  1
  V  V14  1  0.24819173  0.49986649  0.75136434  1
  V  V15  1  0.12475155  0.12619943  -0.00131952  1
  V  V16  1  0.75101116  0.49371199  0.24299912  1
  V  V17  1  0.12667223  0.75013912  0.37051315  1
  V  V18  1  0.62475533  0.00441040  0.12866576  1
  V  V19  1  0.50606044  0.62057791  0.11901641  1
  V  V20  1  0.62398363  0.35918593  0.74718941  1
  V  V21  1  0.73523388  0.62674067  0.87670130  1
  V  V22  1  0.73737506  0.75138753  -0.00585848  1
  V  V23  1  0.50076384  0.00421154  0.50319052  1
  V  V24  1  0.37311477  0.37347559  0.49940568  1
  V  V25  1  0.75969379  0.00038921  0.26604543  1
  V  V26  1  0.63623317  0.87689056  0.74884128  1
  V  V27  1  0.11937022  0.49998911  0.62330161  1
  V  V28  1  0.11813305  0.75315855  0.87095710  1
  V  V29  1  0.00857355  0.12920717  0.61666724  1
  V  V30  1  0.24973589  0.37490125  0.62493535  1
  V  V31  1  0.24262145  0.24558512  0.50167548  1
  V  V32  1  0.12100169  -0.00504132  0.12767061  1
  V  V33  1  0.50249666  0.75261961  0.75550058  1
  V  V34  1  0.12457142  0.62193129  0.49509150  1
  V  V35  1  -0.00099747  -0.00217555  -0.01137160  1
  V  V36  1  0.50131918  0.00647878  0.00185005  1
  V  V37  1  0.62377598  0.62468083  0.49924694  1
  V  V38  1  0.49804485  0.36441352  0.87029907  1
  V  V39  1  0.87330802  -0.00767386  0.85297740  1
  V  V40  1  0.88226381  0.49878297  0.38562165  1
  V  V41  1  0.88098731  0.25908091  0.60546296  1
  V  V42  1  0.64325278  0.24839012  0.37786142  1
  V  V43  1  0.12444571  0.62541432  -0.00236758  1
  V  V44  1  0.37482886  0.00206150  0.37429324  1
  V  V45  1  0.87900398  0.87429644  -0.00728068  1
  V  V46  1  0.62415094  0.37122544  0.24712798  1
  V  V47  1  0.24948051  0.11782664  0.86867566  1
  V  V48  1  0.75174356  0.87624215  0.12533110  1
  V  V49  1  0.26002106  0.24637321  0.00281375  1
  V  V50  1  0.62603387  0.87683632  0.25392472  1
  V  V51  1  0.12962129  0.00803318  0.60794300  1
  V  V52  1  0.49932458  0.74882597  0.25126857  1
  V  V53  1  0.24129808  0.12356687  0.37919086  1
  V  V54  1  0.87475055  0.75094569  0.12268426  1
  V  V55  1  0.87696952  0.62324730  0.24750702  1
  V  V56  1  0.24791024  0.75093884  -0.00192154  1
  V  V57  1  0.11567041  0.88809324  0.75338710  1
  V  V58  1  0.00114095  0.75959591  0.25011786  1
  V  V59  1  0.37544424  0.13851629  0.24894638  1
  V  V60  1  0.62497817  0.74803130  0.37597187  1
  V  V61  1  -0.00139392  0.36555755  0.86911262  1
  V  V62  1  0.49568781  0.13582108  0.13045513  1
  V  V63  1  -0.00157741  0.37174071  0.38621836  1
  V  V64  1  -0.00191496  0.49899343  -0.00264295  1
  V  V65  1  0.24696449  -0.00450145  0.25092122  1
  V  V66  1  -0.00243501  0.88140317  0.38755254  1
  V  V67  1  0.37443834  0.74957773  0.12592629  1
  V  V68  1  0.49869189  0.49922193  0.49754499  1
  V  V69  1  0.88006652  0.14852663  0.75019509  1
  V  V70  1  0.49922844  0.87588329  0.37710096  1
  V  V71  1  0.63773882  0.12962282  0.49829583  1
  V  V72  1  0.37342773  0.87564699  0.50272908  1
  V  V73  1  0.24984575  0.74645526  0.49897328  1
  V  V74  1  -0.00070929  0.62489353  0.62081595  1
  V  V75  1  0.62594739  0.49767620  0.62742634  1
  V  V76  1  0.24767089  0.87566883  0.12710438  1
  V  V77  1  0.87167392  0.36469331  0.00495718  1
  V  V78  1  0.37492652  0.49929993  0.87732854  1
  V  V79  1  0.25138966  0.87878703  0.63624433  1
  V  V80  1  0.49769459  0.36265538  0.37163344  1
  V  V81  1  0.37563539  0.87622602  -0.00273833  1
  V  V82  1  0.49785524  0.62696378  0.62633636  1
  V  V83  1  0.87250047  0.75306481  0.62358971  1
  V  V84  1  0.36731259  0.62493829  0.25298245  1
  Zn  Zn85  1  0.00013560  0.62672851  0.12358222  1
  Zn  Zn86  1  0.86682358  0.89548257  0.49508444  1
  Zn  Zn87  1  0.11865013  0.36870617  0.74614866  1
  Zn  Zn88  1  0.12327675  0.24562895  0.86773506  1
  Zn  Zn89  1  0.37461399  0.62686734  0.75204371  1
  Zn  Zn90  1  0.25032431  0.62582536  0.87352872  1
  Zn  Zn91  1  0.37406020  0.75135380  0.62744009  1
  Zn  Zn92  1  0.51069744  0.50299619  -0.00842829  1
  Zn  Zn93  1  0.87410498  0.50065623  0.87637163  1
  Zn  Zn94  1  0.11653300  0.24209803  0.37487338  1
  Zn  Zn95  1  0.67633937  0.16352600  0.03100260  1
  Zn  Zn96  1  0.37818330  0.25416746  0.63019268  1
  Zn  Zn97  1  0.74651351  0.12373058  0.86893539  1
  Zn  Zn98  1  0.86353823  0.24542340  0.12877967  1
  Zn  Zn99  1  0.75044711  0.49883286  0.75000012  1
  Zn  Zn100  1  0.63162535  0.24502246  0.88546890  1
  Zn  Zn101  1  -0.00105299  0.75544829  0.74988961  1
  Zn  Zn102  1  0.37411855  -0.00528914  0.86479659  1
  Zn  Zn103  1  0.63188693  0.49713578  0.11744229  1
  Zn  Zn104  1  0.37344989  0.37573066  0.00143953  1
  Zn  Zn105  1  0.70664598  0.32391990  0.06935532  1
  Zn  Zn106  1  0.24370257  0.50161155  0.25511159  1
  Zn  Zn107  1  0.18831401  0.18458861  0.18727084  1
  Zn  Zn108  1  0.19014657  0.18843955  0.69095349  1
  Zn  Zn109  1  0.18562907  0.68701148  0.18657465  1
  Zn  Zn110  1  0.18723753  0.68928342  0.68755372  1
  Zn  Zn111  1  0.69004544  0.18377398  0.20330971  1
  Zn  Zn112  1  0.69963695  0.18529880  0.68577440  1
  Zn  Zn113  1  0.68950558  0.68871789  0.18728305  1
  Zn  Zn114  1  0.68587704  0.68948713  0.69145089  1
  Zn  Zn115  1  0.30477595  0.31405802  0.31409537  1
  Zn  Zn116  1  0.30858369  0.30774048  0.81209218  1
  Zn  Zn117  1  0.31060825  0.81289956  0.31485467  1
  Zn  Zn118  1  0.31406553  0.81078269  0.81395992  1
  Zn  Zn119  1  0.81668797  0.31459498  0.31250879  1
  Zn  Zn120  1  0.80358220  0.31476716  0.81657943  1
  Zn  Zn121  1  0.81580099  0.81356810  0.31609201  1
  Zn  Zn122  1  0.81463867  0.80875007  0.81294621  1
  Zn  Zn123  1  0.18322421  0.43532491  0.43761283  1
  Zn  Zn124  1  0.18599479  0.43401005  0.93812937  1
  Zn  Zn125  1  0.18611611  0.92940171  0.43528067  1
  Zn  Zn126  1  0.18665281  0.93857758  0.93554354  1
  Zn  Zn127  1  0.68838979  0.43830329  0.43327812  1
  Zn  Zn128  1  0.68355204  0.44264919  0.93094831  1
  Zn  Zn129  1  0.68404300  0.93791039  0.44329407  1
  Zn  Zn130  1  0.70376047  0.97242819  0.95125904  1
  Zn  Zn131  1  0.31355380  0.06231286  0.06380184  1
  Zn  Zn132  1  0.31264910  0.06317943  0.56655322  1
  Zn  Zn133  1  0.31119463  0.56207235  0.06302768  1
  Zn  Zn134  1  0.31023490  0.56250992  0.56300604  1
  Zn  Zn135  1  0.81947105  0.05830224  0.06741621  1
  Zn  Zn136  1  0.81566248  0.07089681  0.56682455  1
  Zn  Zn137  1  0.81066328  0.56410914  0.05747812  1
  Zn  Zn138  1  0.80972963  0.56585321  0.56369160  1
  Zn  Zn139  1  0.43820796  0.43861858  0.19166755  1
  Zn  Zn140  1  0.43750547  0.43724553  0.69087723  1
  Zn  Zn141  1  0.43556865  0.94081100  0.18864825  1
  Zn  Zn142  1  0.44099940  0.94213484  0.68904823  1
  Zn  Zn143  1  0.93725766  0.43573865  0.18501224  1
  Zn  Zn144  1  0.93630424  0.43845202  0.68634820  1
  Zn  Zn145  1  0.93875929  0.93912189  0.18698729  1
  Zn  Zn146  1  0.92753286  0.95451195  0.65008368  1
  Zn  Zn147  1  0.06052636  0.05809062  0.31147284  1
  Zn  Zn148  1  0.05828845  0.06532833  0.80551520  1
  Zn  Zn149  1  0.06024448  0.56372332  0.31167555  1
  Zn  Zn150  1  0.06155153  0.56147802  0.81137879  1
  Zn  Zn151  1  0.56332917  0.06832051  0.31349145  1
  Zn  Zn152  1  0.56340936  0.06679987  0.81417830  1
  Zn  Zn153  1  0.55832020  0.55800773  0.30866963  1
  Zn  Zn154  1  0.55958719  0.55790067  0.80904764  1
  Zn  Zn155  1  0.43296244  0.18616689  0.44072259  1
  Zn  Zn156  1  0.43960623  0.18542891  0.93618777  1
  Zn  Zn157  1  0.43459396  0.68708356  0.43785871  1
  Zn  Zn158  1  0.43781455  0.68909223  0.93510074  1
  Zn  Zn159  1  0.94111838  0.18684447  0.43847864  1
  Zn  Zn160  1  0.93295922  0.18309218  0.93584238  1
  Zn  Zn161  1  0.93941552  0.68799819  0.43781892  1
  Zn  Zn162  1  0.93667910  0.68795313  0.93602987  1
  Zn  Zn163  1  0.06223249  0.31053145  0.05862441  1
  Zn  Zn164  1  0.06277283  0.31241060  0.56161519  1
  Zn  Zn165  1  0.06052478  0.81352589  0.06101596  1
  Zn  Zn166  1  0.06505893  0.81199395  0.56637460  1
  Zn  Zn167  1  0.54495800  0.31684065  0.06125906  1
  Zn  Zn168  1  0.56498215  0.31356563  0.55774512  1
  Zn  Zn169  1  0.56089949  0.81629494  0.06693594  1
  Zn  Zn170  1  0.56341358  0.81395218  0.56623264  1
  O  O171  1  0.11958448  0.11425361  0.11892229  1
  O  O172  1  0.12645541  0.11563396  0.62620338  1
  O  O173  1  0.12281617  0.61614543  0.11753608  1
  O  O174  1  0.11793442  0.62030660  0.61982095  1
  O  O175  1  0.61652045  0.11603732  0.13120624  1
  O  O176  1  0.62011175  0.11867283  0.62155345  1
  O  O177  1  0.60819958  0.62564037  0.13489863  1
  O  O178  1  0.61505097  0.61796279  0.62148236  1
  O  O179  1  0.38030066  0.38086101  0.37734786  1
  O  O180  1  0.38050067  0.38071608  0.87142110  1
  O  O181  1  0.38036426  0.88186817  0.38202528  1
  O  O182  1  0.38203681  0.87653058  0.88362854  1
  O  O183  1  0.88797447  0.38661260  0.36924258  1
  O  O184  1  0.88434104  0.37889817  0.88485746  1
  O  O185  1  0.89017206  0.86959345  0.38200094  1
  O  O186  1  0.87683012  0.88302278  0.87835188  1
  O  O187  1  0.25175137  0.00290327  0.36917537  1
  O  O188  1  0.25747688  0.01411439  0.88651207  1
  O  O189  1  0.26269460  0.49464718  0.37532681  1
  O  O190  1  0.25373440  0.49853521  0.86704506  1
  O  O191  1  0.74857806  -0.00861945  0.36453486  1
  O  O192  1  0.77063708  -0.00216001  0.86063044  1
  O  O193  1  0.76006041  0.50387975  0.36478647  1
  O  O194  1  0.75410838  0.51472263  0.87121954  1
  O  O195  1  0.23661095  0.49152469  0.12352008  1
  O  O196  1  0.24136051  0.49567783  0.63082723  1
  O  O197  1  0.24259453  0.99591375  0.13177014  1
  O  O198  1  0.24016937  0.99268622  0.62231941  1
  O  O199  1  0.75156333  0.50775599  0.13928688  1
  O  O200  1  0.74111595  0.49635563  0.62614162  1
  O  O201  1  0.74121377  0.99328158  0.13714069  1
  O  O202  1  0.73313773  1.00415411  0.62534819  1
  O  O203  1  0.01074478  0.37892759  0.25502886  1
  O  O204  1  -0.00165682  0.38208453  0.76670305  1
  O  O205  1  -0.00607244  0.86306687  0.25735162  1
  O  O206  1  0.01661316  0.87568921  0.74161965  1
  O  O207  1  0.51239846  0.38086368  0.25928703  1
  O  O208  1  0.51044179  0.37773420  0.75636228  1
  O  O209  1  0.50407989  0.87012818  0.25706185  1
  O  O210  1  0.50445027  0.87064153  0.75901374  1
  O  O211  1  0.48747451  0.11905773  0.24358825  1
  O  O212  1  0.49028293  0.12325253  0.74101101  1
  O  O213  1  0.48906866  0.62989724  0.24272932  1
  O  O214  1  0.50043585  0.63345937  0.74248743  1
  O  O215  1  0.98690047  0.11486421  0.24305564  1
  O  O216  1  0.98692357  0.12384555  0.73768716  1
  O  O217  1  0.98800127  0.63234641  0.24844984  1
  O  O218  1  0.99403160  0.62655552  0.73983409  1
  O  O219  1  0.36305706  0.24916206  -0.00066577  1
  O  O220  1  0.36424206  0.25895697  0.50088390  1
  O  O221  1  0.37036447  0.76003281  0.00449257  1
  O  O222  1  0.36699380  0.75628983  0.50136413  1
  O  O223  1  0.87822122  0.26159955  0.00166680  1
  O  O224  1  0.87614431  0.25411784  0.50712472  1
  O  O225  1  0.87052349  0.75827151  0.00283911  1
  O  O226  1  0.86457130  0.74244616  0.50736751  1
  O  O227  1  0.13848511  0.25495605  0.49498600  1
  O  O228  1  0.12972334  0.23525956  0.99802731  1
  O  O229  1  0.13145910  0.74150262  0.49552930  1
  O  O230  1  0.12797538  0.74743888  0.99260588  1
  O  O231  1  0.62231500  0.24365315  0.48692088  1
  O  O232  1  0.62746691  0.26140585  1.00401127  1
  O  O233  1  0.62998100  0.74493949  0.49624480  1
  O  O234  1  0.63873572  0.76023814  1.00482089  1
  O  O235  1  0.49697602  0.23507762  0.12457423  1
  O  O236  1  0.49913954  0.23808486  0.61656778  1
  O  O237  1  0.49418564  0.74299798  0.13199834  1
  O  O238  1  0.49725316  0.74179404  0.62950573  1
  O  O239  1  1.00092403  0.23362527  0.12102341  1
  O  O240  1  0.98963383  0.25041896  0.62267634  1
  O  O241  1  0.99440781  0.74978540  0.13265287  1
  O  O242  1  0.99380666  0.74068269  0.62687903  1
  O  O243  1  -0.00009509  0.26606262  0.37692029  1
  O  O244  1  0.00029728  0.26267099  0.88151355  1
  O  O245  1  0.00612434  0.75358381  0.36763002  1
  O  O246  1  0.01379781  0.74884089  0.87293400  1
  O  O247  1  0.49898662  0.26118239  0.37958036  1
  O  O248  1  0.50250432  0.26176446  0.87818711  1
  O  O249  1  0.50476236  0.75443601  0.37040955  1
  O  O250  1  0.49955547  0.76015027  0.86759629  1
  O  O251  1  0.25805887  0.13272146  0.49036635  1
  O  O252  1  0.24287547  0.12889212  0.99834693  1
  O  O253  1  0.24296506  0.63883339  0.50682736  1
  O  O254  1  0.24218513  0.63322957  1.00007788  1
  O  O255  1  0.73715263  0.12313253  0.50353424  1
  O  O256  1  0.74366590  0.08442975  0.98926347  1
  O  O257  1  0.74104709  0.63055358  0.49223192  1
  O  O258  1  0.75348453  0.63549233  0.98585569  1
  O  O259  1  0.24928712  0.36462531  0.00844990  1
  O  O260  1  0.25427911  0.36994425  0.50505350  1
  O  O261  1  0.25737679  0.87198530  0.00521046  1
  O  O262  1  0.25370606  0.86552369  0.50894231  1
  O  O263  1  0.76882293  0.38600558  -0.00442022  1
  O  O264  1  0.74382156  0.38013152  0.51380897  1
  O  O265  1  0.76176137  0.87433055  0.00351702  1
  O  O266  1  0.75123844  0.86061960  0.49515095  1
  O  O267  1  0.12460814  0.49510606  0.24187742  1
  O  O268  1  0.13157706  0.49623314  0.74163900  1
  O  O269  1  0.13382455  1.00257621  0.23903742  1
  O  O270  1  0.12913585  0.98958763  0.75030155  1
  O  O271  1  0.63404664  0.49104597  0.24909947  1
  O  O272  1  0.62436582  0.49446425  0.73556888  1
  O  O273  1  0.63399777  0.99713182  0.24813598  1
  O  O274  1  0.61663655  0.99348810  0.73720837  1
  O  O275  1  0.36655119  0.00427981  0.25811481  1
  O  O276  1  0.37687107  0.01588498  0.74901363  1
  O  O277  1  0.37178471  0.50759632  0.25847110  1
  O  O278  1  0.36665473  0.50238679  0.75930627  1
  O  O279  1  0.86462771  0.00379923  0.24920720  1
  O  O280  1  0.88756776  -0.00904807  0.75464710  1
  O  O281  1  0.87083018  0.50617014  0.25410599  1
  O  O282  1  0.87255064  0.51280683  0.74902978  1
  O  O283  1  0.11299652  0.37817538  0.36363415  1
  O  O284  1  0.10844943  0.37314506  0.87849345  1
  O  O285  1  0.11420153  0.85876082  0.37814348  1
  O  O286  1  0.13059825  0.87054852  0.86116378  1
  O  O287  1  0.61806845  0.36513226  0.37252124  1
  O  O288  1  0.61785644  0.37344291  0.86178760  1
  O  O289  1  0.61761502  0.86937589  0.37292601  1
  O  O290  1  0.61608680  0.88719737  0.86812795  1
  O  O291  1  0.38246074  0.11730425  0.13803417  1
  O  O292  1  0.38364849  0.12682644  0.63304302  1
  O  O293  1  0.38128110  0.63079278  0.13176333  1
  O  O294  1  0.38817669  0.62376080  0.62565357  1
  O  O295  1  0.88453171  0.12247231  0.13428919  1
  O  O296  1  0.88375106  0.14499497  0.63247355  1
  O  O297  1  0.87607927  0.63186191  0.13138088  1
  O  O298  1  0.88261786  0.62835791  0.63039633  1
  O  O299  1  0.24213122  0.25802769  0.11652302  1
  O  O300  1  0.25299355  0.25769934  0.61718152  1
  O  O301  1  0.25340019  0.75670434  0.11977283  1
  O  O302  1  0.25179380  0.75929331  0.61850117  1
  O  O303  1  0.74780095  0.22901664  0.11684761  1
  O  O304  1  0.76879790  0.25902547  0.62626954  1
  O  O305  1  0.75582010  0.75611246  0.11833731  1
  O  O306  1  0.75738653  0.73708781  0.61396676  1
  O  O307  1  0.24599002  0.24008353  0.38192082  1
  O  O308  1  0.24780579  0.23685126  0.88581871  1
  O  O309  1  0.24028097  0.75521223  0.38466407  1
  O  O310  1  0.24028977  0.74954163  0.88143971  1
  O  O311  1  0.74140163  0.25544989  0.37909559  1
  O  O312  1  0.74797679  0.23967821  0.87517260  1
  O  O313  1  0.74469037  0.74242415  0.38036368  1
  O  O314  1  0.75197739  0.73803805  0.88162189  1
  O  O315  1  0.00552012  0.11651605  0.00486613  1
  O  O316  1  0.00145451  0.13002682  0.51608311  1
  O  O317  1  0.00563460  0.61691302  0.00063308  1
  O  O318  1  0.00932350  0.62835416  0.51163823  1
  O  O319  1  0.49092359  0.11214665  0.01078726  1
  O  O320  1  0.50615730  0.11887692  0.50556863  1
  O  O321  1  0.49358804  0.62669530  0.01596646  1
  O  O322  1  0.50487663  0.62099631  0.50637507  1
  O  O323  1  0.49307044  0.38073057  0.49273235  1
  O  O324  1  0.49001026  0.38268035  0.98738191  1
  O  O325  1  0.49505737  0.88282692  0.49704659  1
  O  O326  1  0.49338088  0.87957473  0.99528237  1
  O  O327  1  1.00833533  0.38195906  0.48419075  1
  O  O328  1  0.99208681  0.38026714  0.99356626  1
  O  O329  1  0.99900772  0.86653439  0.48981036  1
  O  O330  1  0.98770700  0.88233025  1.00294365  1
  O  O331  1  0.49090391  0.49159534  0.38073295  1
  O  O332  1  0.48975967  0.49342791  0.87287519  1
  O  O333  1  0.49834443  0.99787824  0.38643719  1
  O  O334  1  0.49605092  0.99373874  0.88723189  1
  O  O335  1  0.98783974  0.49438039  0.37128465  1
  O  O336  1  0.99875766  0.49248371  0.88375579  1
  O  O337  1  1.00843048  0.97945765  0.37437722  1
  O  O338  1  0.99499166  1.00254718  0.88422342  1
  O  O339  1  0.00622972  0.00467812  0.11558873  1
  O  O340  1  0.02484404  0.01291083  0.63080502  1
  O  O341  1  0.01030131  0.50017140  0.11782004  1
  O  O342  1  0.01240677  0.50560776  0.62750775  1
  O  O343  1  0.50781690  0.00403887  0.12291268  1
  O  O344  1  0.50496433  0.00989883  0.61439932  1
  O  O345  1  0.49739787  0.51459312  0.12542969  1
  O  O346  1  0.50570274  0.50592913  0.61859504  1
  O  O347  1  0.23618362  0.37824958  0.24403205  1
  O  O348  1  0.25087228  0.38603949  0.74235395  1
  O  O349  1  0.25514994  0.88732723  0.24459993  1
  O  O350  1  0.24480973  0.87020386  0.73909208  1
  O  O351  1  0.73919903  0.38216880  0.25524423  1
  O  O352  1  0.74014790  0.37965912  0.74014112  1
  O  O353  1  0.74798780  0.88233553  0.24751711  1
  O  O354  1  0.73474741  0.86451687  0.75264132  1
  O  O355  1  0.25624155  0.11430897  0.25506733  1
  O  O356  1  0.26114748  0.12402897  0.75941958  1
  O  O357  1  0.26282982  0.62281372  0.24441681  1
  O  O358  1  0.25100754  0.61239689  0.74839345  1
  O  O359  1  0.76369268  0.10889337  0.25441774  1
  O  O360  1  0.77696817  0.12338219  0.74462694  1
  O  O361  1  0.76062347  0.62169868  0.25556551  1
  O  O362  1  0.75625232  0.62675914  0.76066429  1
  O  O363  1  0.36584623  0.11896363  0.36874328  1
  O  O364  1  0.37167756  0.12261392  0.86505611  1
  O  O365  1  0.38048764  0.61514692  0.36608283  1
  O  O366  1  0.37163475  0.61663894  0.87262923  1
  O  O367  1  0.88402687  0.12099235  0.36423919  1
  O  O368  1  0.88156023  0.11287917  0.85944911  1
  O  O369  1  0.87352781  0.61529640  0.36751782  1
  O  O370  1  0.87138756  0.62342980  0.86636354  1
  O  O371  1  0.12642763  0.37892181  0.13296242  1
  O  O372  1  0.13090739  0.38497692  0.62318130  1
  O  O373  1  0.13020865  0.88730570  0.11812473  1
  O  O374  1  0.13200399  0.88553336  0.63265915  1
  O  O375  1  0.62134693  0.37475672  0.13497918  1
  O  O376  1  0.62937976  0.38061655  0.62813544  1
  O  O377  1  0.62930334  0.88214854  0.13730548  1
  O  O378  1  0.61949691  0.89050495  0.63164916  1
  O  O379  1  0.12710255  0.26143987  0.25227376  1
  O  O380  1  0.13184242  0.25691219  0.75516935  1
  O  O381  1  0.11457013  0.74194502  0.25815170  1
  O  O382  1  0.12497496  0.76013968  0.75622813  1
  O  O383  1  0.62735954  0.25632411  0.26745390  1
  O  O384  1  0.62801297  0.25819471  0.74157689  1
  O  O385  1  0.62091895  0.75594945  0.25716269  1
  O  O386  1  0.61066705  0.76160279  0.74116872  1
  O  O387  1  0.36688715  0.23765188  0.25425966  1
  O  O388  1  0.37058311  0.23372289  0.74711362  1
  O  O389  1  0.37878686  0.74404872  0.24747060  1
  O  O390  1  0.38665291  0.74858373  0.74755576  1
  O  O391  1  0.86836767  0.23205240  0.24994205  1
  O  O392  1  0.88010307  0.24851779  0.75231799  1
  O  O393  1  0.88013830  0.74243160  0.24532172  1
  O  O394  1  0.87762404  0.73843515  0.74387163  1
  O  O395  1  0.37804720  0.49482006  0.49395066  1
  O  O396  1  0.37095355  0.49907521  0.98581569  1
  O  O397  1  0.38232141  0.99687037  0.49516192  1
  O  O398  1  0.38303142  0.98694479  1.00531400  1
  O  O399  1  0.87003566  0.50650222  0.48350258  1
  O  O400  1  0.88774202  0.49401503  1.00312277  1
  O  O401  1  0.88740915  0.99101713  0.54727857  1
  O  O402  1  0.88394039  0.99150616  0.99051558  1
  O  O403  1  0.11878835  0.00769037  0.00432757  1
  O  O404  1  0.12958355  -0.00224878  0.50981564  1
  O  O405  1  0.11588063  0.50270343  0.00570926  1
  O  O406  1  0.13390132  0.51437415  0.50716168  1
  O  O407  1  0.61154166  -0.01319659  0.01840048  1
  O  O408  1  0.61815441  0.00670661  0.50866327  1
  O  O409  1  0.62352958  0.49936225  0.00529463  1
  O  O410  1  0.61954563  0.50438382  0.50771083  1
  O  O411  1  0.35977055  0.38161249  0.12754134  1
  O  O412  1  0.36838776  0.37643126  0.61863281  1
  O  O413  1  0.37073559  0.86830012  0.11932019  1
  O  O414  1  0.36823344  0.87764620  0.62026685  1
  O  O415  1  0.87983791  0.36768872  0.11151349  1
  O  O416  1  0.87080593  0.36689013  0.62576270  1
  O  O417  1  0.86995710  0.87117722  0.11738338  1
  O  O418  1  0.87543007  0.85350684  0.62804769  1
  O  O419  1  0.13688727  0.12404378  0.36786867  1
  O  O420  1  0.13126228  0.12178876  0.88161926  1
  O  O421  1  0.11855336  0.63408436  0.38438014  1
  O  O422  1  0.12742559  0.63282844  0.87980799  1
  O  O423  1  0.62277481  0.13986181  0.38217506  1
  O  O424  1  0.62853269  0.12760502  0.87774123  1
  O  O425  1  0.62758660  0.62777484  0.37798750  1
  O  O426  1  0.63655702  0.62372869  0.86772354  1
