# generated using pymatgen
data_V85Zn86O256
_symmetry_space_group_name_H-M   'P 1'
_cell_length_a   16.92611614
_cell_length_b   16.92812509
_cell_length_c   16.93008981
_cell_angle_alpha   90.02399404
_cell_angle_beta   90.01070234
_cell_angle_gamma   90.02344916
_symmetry_Int_Tables_number   1
_chemical_formula_structural   V85Zn86O256
_chemical_formula_sum   'V85 Zn86 O256'
_cell_volume   4850.93388689
_cell_formula_units_Z   1
loop_
 _symmetry_equiv_pos_site_id
 _symmetry_equiv_pos_as_xyz
  1  'x, y, z'
loop_
 _atom_site_type_symbol
 _atom_site_label
 _atom_site_symmetry_multiplicity
 _atom_site_fract_x
 _atom_site_fract_y
 _atom_site_fract_z
 _atom_site_occupancy
  V  V0  1  -0.00898207  0.62299427  0.63082784  1
  V  V1  1  0.62028375  0.86912803  0.24997483  1
  V  V2  1  0.62518760  0.74865091  0.87507336  1
  V  V3  1  0.49739209  0.87931674  0.37434274  1
  V  V4  1  0.12052151  -0.00359286  0.61513118  1
  V  V5  1  0.50211266  0.37474091  0.37139091  1
  V  V6  1  0.87597607  0.50510969  0.88114460  1
  V  V7  1  0.23698481  0.74505746  0.49803275  1
  V  V8  1  -0.00008805  0.12316800  0.61853884  1
  V  V9  1  0.87829017  0.12257802  0.75084733  1
  V  V10  1  0.87543000  0.26242551  0.12161785  1
  V  V11  1  0.75601745  0.50649702  0.74865954  1
  V  V12  1  0.75119896  0.87463040  0.62608792  1
  V  V13  1  0.11963698  0.12812647  0.01124965  1
  V  V14  1  0.24566260  0.50329559  0.24881860  1
  V  V15  1  0.37966145  0.49369023  0.87446711  1
  V  V16  1  0.37741549  0.36356097  0.00123484  1
  V  V17  1  0.36344390  0.87224997  0.00080532  1
  V  V18  1  0.75195458  0.00043179  0.75430653  1
  V  V19  1  0.74934232  0.48741224  0.24638018  1
  V  V20  1  0.00232668  0.37184984  0.37357597  1
  V  V21  1  0.62778528  0.25466896  0.86957251  1
  V  V22  1  0.50425038  0.49684933  -0.00212651  1
  V  V23  1  0.12674392  0.37439667  0.24362182  1
  V  V24  1  0.38456494  0.13577174  0.22910256  1
  V  V25  1  0.11086037  -0.00630187  0.12190383  1
  V  V26  1  0.12017456  0.37346052  0.75102905  1
  V  V27  1  0.62408838  0.25213982  0.37446411  1
  V  V28  1  0.37301045  0.50405324  0.37668242  1
  V  V29  1  0.49753028  0.74898243  0.75141438  1
  V  V30  1  0.75617029  0.26142587  0.00262403  1
  V  V31  1  0.12676997  0.73725801  0.88316828  1
  V  V32  1  0.24550181  0.36788739  0.62125158  1
  V  V33  1  0.13171872  0.24770742  0.87924158  1
  V  V34  1  0.24620606  0.00289380  0.75096455  1
  V  V35  1  0.62500747  0.62117372  0.50523626  1
  V  V36  1  0.36928984  0.62554273  0.75816199  1
  V  V37  1  0.37064440  0.75503249  0.13233033  1
  V  V38  1  0.87884311  0.75251689  0.12605761  1
  V  V39  1  0.24620116  0.50303347  0.75703901  1
  V  V40  1  0.12559580  0.50713383  0.62190162  1
  V  V41  1  0.37370106  0.87820582  0.49679704  1
  V  V42  1  0.62206994  0.38369851  0.74730913  1
  V  V43  1  0.62319107  0.12253316  0.00009894  1
  V  V44  1  0.75156397  0.24806273  0.50165396  1
  V  V45  1  0.25868811  -0.00471308  0.24284787  1
  V  V46  1  0.12189359  0.87410818  0.75366709  1
  V  V47  1  0.87917382  0.89111258  -0.00117180  1
  V  V48  1  0.49732506  0.12542872  0.62568461  1
  V  V49  1  -0.00113280  0.62199033  0.11864665  1
  V  V50  1  0.87760931  0.37383014  0.50094020  1
  V  V51  1  0.49820361  0.25559913  0.74983301  1
  V  V52  1  0.26270339  0.12151154  0.37452186  1
  V  V53  1  0.37182559  0.00100130  0.87524442  1
  V  V54  1  0.87427403  0.49918763  0.37381584  1
  V  V55  1  0.12789243  0.12817285  0.49683116  1
  V  V56  1  0.74669651  0.38127532  0.62450888  1
  V  V57  1  0.50161054  0.49881478  0.50550423  1
  V  V58  1  0.75328412  0.74962211  -0.00120019  1
  V  V59  1  0.00129694  0.24018532  0.24377923  1
  V  V60  1  0.24851032  0.87338638  0.62438104  1
  V  V61  1  0.75236986  0.75034879  0.49966436  1
  V  V62  1  0.13305828  0.24866975  0.37537565  1
  V  V63  1  0.49900637  0.62281619  0.62623296  1
  V  V64  1  0.75080329  0.87593183  0.12734071  1
  V  V65  1  0.61762401  -0.00148759  0.12389760  1
  V  V66  1  0.49859588  0.87644694  0.87713505  1
  V  V67  1  -0.00108702  0.88710893  0.88034153  1
  V  V68  1  0.25289915  0.35328253  0.11933865  1
  V  V69  1  0.75702447  0.12388740  0.87545531  1
  V  V70  1  0.23240769  0.62710378  0.37998423  1
  V  V71  1  0.50574136  0.63264266  0.13448609  1
  V  V72  1  0.62302305  0.00063922  0.62367488  1
  V  V73  1  0.62933023  0.49413811  0.12796565  1
  V  V74  1  0.88002222  0.00057469  0.38160281  1
  V  V75  1  0.37169881  0.74834380  0.62575114  1
  V  V76  1  -0.00628552  0.37138631  0.88678162  1
  V  V77  1  0.87369214  0.62711320  0.25134000  1
  V  V78  1  -0.00801491  0.74626763  0.75510454  1
  V  V79  1  0.00399575  0.50753065  0.49737923  1
  V  V80  1  0.36920396  0.36806657  0.49913336  1
  V  V81  1  0.17415248  0.56261681  0.06645547  1
  V  V82  1  0.86782349  0.12406837  0.24166254  1
  V  V83  1  0.61943920  0.74831050  0.37325224  1
  V  V84  1  0.12139219  0.87611760  0.25681466  1
  Zn  Zn85  1  0.62377482  0.87540322  0.75063736  1
  Zn  Zn86  1  0.62662297  0.62480364  -0.00036993  1
  Zn  Zn87  1  0.88046449  0.88000283  0.50370145  1
  Zn  Zn88  1  0.49402910  0.00236517  0.49818879  1
  Zn  Zn89  1  0.36870523  0.24693443  0.62333886  1
  Zn  Zn90  1  0.00662369  0.74845427  0.25747930  1
  Zn  Zn91  1  0.57051350  0.32383049  0.21289186  1
  Zn  Zn92  1  0.62401293  0.12402099  0.49835549  1
  Zn  Zn93  1  -0.00131457  0.24841809  0.75170607  1
  Zn  Zn94  1  0.37195250  0.12846695  0.75036036  1
  Zn  Zn95  1  0.25144175  0.13009095  0.88308737  1
  Zn  Zn96  1  0.74630099  0.00221197  0.25370981  1
  Zn  Zn97  1  0.87797325  0.25065866  0.62598097  1
  Zn  Zn98  1  0.87182144  0.74582266  0.63048012  1
  Zn  Zn99  1  -0.00141846  0.49554550  0.00822859  1
  Zn  Zn100  1  0.74740416  0.12420253  0.37371191  1
  Zn  Zn101  1  0.24633666  0.74247212  -0.00048937  1
  Zn  Zn102  1  0.49334023  0.00613968  0.00328838  1
  Zn  Zn103  1  0.37733831  0.63244375  0.25724399  1
  Zn  Zn104  1  0.00631601  0.86996833  0.39082185  1
  Zn  Zn105  1  0.74812362  0.62355978  0.37416549  1
  Zn  Zn106  1  0.75722693  0.63066553  0.86806670  1
  Zn  Zn107  1  0.18959420  0.17910629  0.18996536  1
  Zn  Zn108  1  0.18359697  0.18642454  0.68978515  1
  Zn  Zn109  1  0.19398419  0.69523608  0.19510422  1
  Zn  Zn110  1  0.18206697  0.68759086  0.69058086  1
  Zn  Zn111  1  0.67307971  0.19399046  0.17867149  1
  Zn  Zn112  1  0.68767840  0.18899254  0.68496864  1
  Zn  Zn113  1  0.69021594  0.68644209  0.18859229  1
  Zn  Zn114  1  0.68439134  0.68776031  0.68672858  1
  Zn  Zn115  1  0.31612648  0.31119230  0.30626635  1
  Zn  Zn116  1  0.31195635  0.31569482  0.81123441  1
  Zn  Zn117  1  0.30772620  0.81421091  0.31493295  1
  Zn  Zn118  1  0.30618608  0.81254177  0.81584275  1
  Zn  Zn119  1  0.81240473  0.30881642  0.31251349  1
  Zn  Zn120  1  0.81444716  0.31394374  0.81139165  1
  Zn  Zn121  1  0.81265682  0.81377482  0.31514849  1
  Zn  Zn122  1  0.81565009  0.81805406  0.81526343  1
  Zn  Zn123  1  0.18618104  0.43756905  0.43621311  1
  Zn  Zn124  1  0.19196985  0.42938691  0.93512635  1
  Zn  Zn125  1  0.19356031  0.94122976  0.43438918  1
  Zn  Zn126  1  0.18257165  0.93880038  0.93982675  1
  Zn  Zn127  1  0.68779667  0.43854063  0.43672665  1
  Zn  Zn128  1  0.68776150  0.43879143  0.93407833  1
  Zn  Zn129  1  0.69059885  0.93869829  0.43692015  1
  Zn  Zn130  1  0.68876689  0.93615783  0.93770728  1
  Zn  Zn131  1  0.30541643  0.06527751  0.06290716  1
  Zn  Zn132  1  0.30969478  0.06317882  0.56195206  1
  Zn  Zn133  1  0.33552383  0.56424130  0.06289898  1
  Zn  Zn134  1  0.31068118  0.56072527  0.56435814  1
  Zn  Zn135  1  0.80795243  0.06769412  0.06688353  1
  Zn  Zn136  1  0.81137674  0.06372606  0.56399608  1
  Zn  Zn137  1  0.81287674  0.56228597  0.06132034  1
  Zn  Zn138  1  0.81311169  0.56111727  0.56099328  1
  Zn  Zn139  1  0.43129630  0.44427729  0.18447526  1
  Zn  Zn140  1  0.43464196  0.43589224  0.68566598  1
  Zn  Zn141  1  0.43907028  0.93558958  0.18936670  1
  Zn  Zn142  1  0.43493020  0.93721888  0.68869802  1
  Zn  Zn143  1  0.93915283  0.43739961  0.18763149  1
  Zn  Zn144  1  0.93512417  0.43812673  0.68995180  1
  Zn  Zn145  1  0.93696116  0.94000267  0.19261200  1
  Zn  Zn146  1  0.93799706  0.93825502  0.68837742  1
  Zn  Zn147  1  0.06259106  0.06005260  0.31114614  1
  Zn  Zn148  1  0.06424397  0.06536651  0.81271289  1
  Zn  Zn149  1  0.06001574  0.56169337  0.30644315  1
  Zn  Zn150  1  0.05750196  0.56057691  0.81430707  1
  Zn  Zn151  1  0.56245312  0.06189622  0.31225803  1
  Zn  Zn152  1  0.56351190  0.06493380  0.81105042  1
  Zn  Zn153  1  0.56434137  0.55939712  0.31421088  1
  Zn  Zn154  1  0.56276968  0.56325646  0.81404083  1
  Zn  Zn155  1  0.44178417  0.19004077  0.43706618  1
  Zn  Zn156  1  0.44170335  0.18580655  0.93162647  1
  Zn  Zn157  1  0.43502696  0.69127849  0.43957391  1
  Zn  Zn158  1  0.43723901  0.68483440  0.94116554  1
  Zn  Zn159  1  0.93939822  0.18362684  0.43375149  1
  Zn  Zn160  1  0.94090958  0.18302654  0.94004498  1
  Zn  Zn161  1  0.94087036  0.69015531  0.43663655  1
  Zn  Zn162  1  0.93887443  0.68967896  0.93868670  1
  Zn  Zn163  1  0.06534633  0.30966087  0.06485149  1
  Zn  Zn164  1  0.06289977  0.31033813  0.56075594  1
  Zn  Zn165  1  0.06239429  0.81349603  0.06495823  1
  Zn  Zn166  1  0.05682309  0.81004149  0.56327839  1
  Zn  Zn167  1  0.56165247  0.30727997  0.05066492  1
  Zn  Zn168  1  0.56336778  0.31363503  0.56260952  1
  Zn  Zn169  1  0.55997977  0.81332641  0.05939486  1
  Zn  Zn170  1  0.56260219  0.81190263  0.56183621  1
  O  O171  1  0.12372371  0.11720492  0.11781506  1
  O  O172  1  0.12113081  0.11867090  0.61691152  1
  O  O173  1  0.12022078  0.62694127  0.12886607  1
  O  O174  1  0.11592342  0.61125178  0.62973263  1
  O  O175  1  0.64156215  0.10539879  0.11068101  1
  O  O176  1  0.61702326  0.11748769  0.62472908  1
  O  O177  1  0.61615441  0.62367832  0.12251088  1
  O  O178  1  0.61564512  0.62973864  0.61307708  1
  O  O179  1  0.37660827  0.38481691  0.38058654  1
  O  O180  1  0.37025075  0.38679176  0.88235192  1
  O  O181  1  0.38485076  0.86644880  0.38373266  1
  O  O182  1  0.37918501  0.88041974  0.88028061  1
  O  O183  1  0.88244526  0.37936410  0.38007128  1
  O  O184  1  0.88523369  0.38446922  0.86929154  1
  O  O185  1  0.87231272  0.89073811  0.37591796  1
  O  O186  1  0.88553109  0.87361137  0.88664690  1
  O  O187  1  0.24503646  0.01173704  0.35819319  1
  O  O188  1  0.25535344  -0.00224740  0.86677735  1
  O  O189  1  0.25572724  0.50548119  0.36888542  1
  O  O190  1  0.25607492  0.49619244  0.86282962  1
  O  O191  1  0.75850854  0.00435795  0.37243653  1
  O  O192  1  0.74314616  0.00654019  0.86168448  1
  O  O193  1  0.75619225  0.50215357  0.36774952  1
  O  O194  1  0.76076170  0.50230411  0.86882003  1
  O  O195  1  0.24379156  0.51019931  0.12729461  1
  O  O196  1  0.24185599  0.49244639  0.63368753  1
  O  O197  1  0.23906654  1.00449295  0.13994304  1
  O  O198  1  0.24211615  0.99374042  0.63199380  1
  O  O199  1  0.74125882  0.50742145  0.13247183  1
  O  O200  1  0.75590722  0.48946066  0.63202901  1
  O  O201  1  0.74251305  0.98464358  0.12470186  1
  O  O202  1  0.74321263  0.99507702  0.63358660  1
  O  O203  1  0.00710302  0.36662815  0.25521431  1
  O  O204  1  0.01057828  0.37529412  0.75523687  1
  O  O205  1  0.01413495  0.87675454  0.25203630  1
  O  O206  1  0.00352762  0.86730409  0.75659224  1
  O  O207  1  0.49419317  0.38761909  0.26426113  1
  O  O208  1  0.50919228  0.36878459  0.74205063  1
  O  O209  1  0.51158492  0.87454350  0.25769504  1
  O  O210  1  0.49752497  0.86812134  0.76183172  1
  O  O211  1  0.47941460  0.11279733  0.25462903  1
  O  O212  1  0.49845507  0.13235516  0.73948554  1
  O  O213  1  0.49901689  0.62089837  0.23759848  1
  O  O214  1  0.49218194  0.62882924  0.74585804  1
  O  O215  1  0.99232302  0.13670406  0.25522006  1
  O  O216  1  0.99263199  0.12553972  0.74342100  1
  O  O217  1  0.98875670  0.62486546  0.24164940  1
  O  O218  1  1.00329964  0.63236027  0.74264169  1
  O  O219  1  0.38777593  0.26426078  -0.00716018  1
  O  O220  1  0.37767948  0.26476830  0.50180324  1
  O  O221  1  0.37065826  0.75424558  0.00669291  1
  O  O222  1  0.36763611  0.75816676  0.50902926  1
  O  O223  1  0.86457871  0.24312281  0.00515342  1
  O  O224  1  0.87026331  0.25554729  0.50075829  1
  O  O225  1  0.86867417  0.75753827  0.00693691  1
  O  O226  1  0.86012848  0.74662854  0.50443499  1
  O  O227  1  0.12416881  0.24232164  0.48787956  1
  O  O228  1  0.12316248  0.23768084  0.99525347  1
  O  O229  1  0.13818646  0.74911956  0.50932267  1
  O  O230  1  0.12607268  0.75253703  0.98829523  1
  O  O231  1  0.63393133  0.25093870  0.49389324  1
  O  O232  1  0.63826400  0.24316314  0.98591637  1
  O  O233  1  0.63390901  0.74383765  0.49578475  1
  O  O234  1  0.63336929  0.75152497  0.99176886  1
  O  O235  1  0.56867700  0.24087915  0.13888319  1
  O  O236  1  0.49945076  0.24342071  0.63334935  1
  O  O237  1  0.49377678  0.73744385  0.11856953  1
  O  O238  1  0.49263629  0.74549869  0.63225649  1
  O  O239  1  0.99170322  0.25257420  0.13323104  1
  O  O240  1  1.00185127  0.23673268  0.62767340  1
  O  O241  1  0.99522583  0.74308550  0.13237812  1
  O  O242  1  0.99890196  0.73904676  0.63602119  1
  O  O243  1  0.01026128  0.25418091  0.36736086  1
  O  O244  1  0.00729613  0.25715224  0.87346191  1
  O  O245  1  -0.00390736  0.75675490  0.36958159  1
  O  O246  1  0.00796977  0.75574147  0.87104426  1
  O  O247  1  0.50961226  0.26186708  0.37867583  1
  O  O248  1  0.51262950  0.24427299  0.85801046  1
  O  O249  1  0.51295740  0.75887921  0.38327799  1
  O  O250  1  0.50497498  0.75482023  0.87225634  1
  O  O251  1  0.23792968  0.11974562  0.49069228  1
  O  O252  1  0.22945729  0.11748305  0.99587212  1
  O  O253  1  0.25488709  0.63178203  0.49256422  1
  O  O254  1  0.24116966  0.61652546  1.01102191  1
  O  O255  1  0.74654141  0.13626834  0.50204992  1
  O  O256  1  0.74321033  0.12921060  0.98940746  1
  O  O257  1  0.74090711  0.62989665  0.50057937  1
  O  O258  1  0.75033156  0.63998083  0.99762807  1
  O  O259  1  0.25853927  0.37562454  0.01276705  1
  O  O260  1  0.25654211  0.38226319  0.50908559  1
  O  O261  1  0.26102028  0.87217340  -0.00423540  1
  O  O262  1  0.25465480  0.86735958  0.50279111  1
  O  O263  1  0.74916534  0.35953480  -0.00734258  1
  O  O264  1  0.75585386  0.37257253  0.50776655  1
  O  O265  1  0.75603979  0.86632598  0.00527801  1
  O  O266  1  0.75215495  0.86716477  0.50909919  1
  O  O267  1  0.13827024  0.49180247  0.25440094  1
  O  O268  1  0.12966417  0.49399492  0.74616989  1
  O  O269  1  0.13079525  0.99590139  0.24039143  1
  O  O270  1  0.13099209  0.99546178  0.74187622  1
  O  O271  1  0.63711835  0.50718743  0.24236767  1
  O  O272  1  0.63244017  0.48845758  0.75876012  1
  O  O273  1  0.62659228  0.99081472  0.24131982  1
  O  O274  1  0.63114364  0.99853018  0.73984333  1
  O  O275  1  0.36197299  0.00182441  0.24249355  1
  O  O276  1  0.36535024  -0.00075795  0.75937688  1
  O  O277  1  0.36206292  0.50405981  0.25802074  1
  O  O278  1  0.36826097  0.50360453  0.75620606  1
  O  O279  1  0.86898494  0.00886696  0.25537438  1
  O  O280  1  0.86535155  0.01238895  0.74512816  1
  O  O281  1  0.87013139  0.50670775  0.25460038  1
  O  O282  1  0.86596382  0.49674325  0.76187943  1
  O  O283  1  0.12419468  0.36632058  0.36625072  1
  O  O284  1  0.11801037  0.36933059  0.86855693  1
  O  O285  1  0.12324592  0.88738690  0.36079887  1
  O  O286  1  0.11713004  0.86866475  0.87133016  1
  O  O287  1  0.61137009  0.37122966  0.38392050  1
  O  O288  1  0.63124043  0.36217969  0.86498404  1
  O  O289  1  0.62185789  0.86789497  0.36872052  1
  O  O290  1  0.61648330  0.86609279  0.87436600  1
  O  O291  1  0.37831281  0.12442518  0.12866445  1
  O  O292  1  0.38108698  0.12715594  0.62741184  1
  O  O293  1  0.38810675  0.63708926  0.13118636  1
  O  O294  1  0.37883898  0.62755190  0.63651820  1
  O  O295  1  0.87133552  0.13378961  0.13650821  1
  O  O296  1  0.88413856  0.12579777  0.63006929  1
  O  O297  1  0.88076256  0.63106479  0.13118083  1
  O  O298  1  0.88669496  0.62341305  0.62482456  1
  O  O299  1  0.25266671  0.25536780  0.12678169  1
  O  O300  1  0.24708969  0.26373289  0.63041093  1
  O  O301  1  0.26725696  0.74526234  0.12012625  1
  O  O302  1  0.25314800  0.75400168  0.62212046  1
  O  O303  1  0.75609803  0.24765316  0.10794779  1
  O  O304  1  0.75143528  0.26034130  0.61608842  1
  O  O305  1  0.75413506  0.75904681  0.11782668  1
  O  O306  1  0.74938248  0.75787623  0.62089767  1
  O  O307  1  0.23872862  0.24199256  0.36408687  1
  O  O308  1  0.23643010  0.25242093  0.87115619  1
  O  O309  1  0.25351405  0.73832468  0.38460729  1
  O  O310  1  0.23267129  0.74900988  0.87635267  1
  O  O311  1  0.74811901  0.25178394  0.39098241  1
  O  O312  1  0.74783396  0.24280920  0.87905799  1
  O  O313  1  0.74012003  0.74825850  0.38408178  1
  O  O314  1  0.74369002  0.75161159  0.88005351  1
  O  O315  1  0.02022382  0.11868586  -0.00948718  1
  O  O316  1  0.01362442  0.12655373  0.50574285  1
  O  O317  1  -0.00338258  0.62361241  0.01453479  1
  O  O318  1  -0.00404028  0.61202945  0.50748495  1
  O  O319  1  0.51840631  0.12363906  -0.00953283  1
  O  O320  1  0.50070174  0.12294263  0.51264325  1
  O  O321  1  0.50029596  0.61393532  0.01050643  1
  O  O322  1  0.50389534  0.61881706  0.50503238  1
  O  O323  1  0.49164811  0.38310622  0.49564962  1
  O  O324  1  0.49445540  0.38781079  1.00616680  1
  O  O325  1  0.49115802  0.87437886  0.49500224  1
  O  O326  1  0.49045337  0.87518321  0.98700760  1
  O  O327  1  0.99682039  0.38257567  0.49439146  1
  O  O328  1  1.00547156  0.37602243  0.99006761  1
  O  O329  1  0.99395611  0.87800670  0.50477526  1
  O  O330  1  0.99153061  0.87268443  0.99275874  1
  O  O331  1  0.49243248  0.49640920  0.38516094  1
  O  O332  1  0.49223442  0.50341390  0.88398833  1
  O  O333  1  0.50811359  0.98363542  0.38124732  1
  O  O334  1  0.49128080  0.99279035  0.87328905  1
  O  O335  1  0.99694118  0.49399338  0.38111301  1
  O  O336  1  0.98981572  0.49272689  0.87842174  1
  O  O337  1  0.98312235  0.99980777  0.36934388  1
  O  O338  1  1.00433967  0.98599185  0.86855603  1
  O  O339  1  0.01227365  0.00210628  0.13025168  1
  O  O340  1  0.00902840  0.01199326  0.63117825  1
  O  O341  1  -0.00017553  0.51049180  0.12513789  1
  O  O342  1  0.00549797  0.50367968  0.61957795  1
  O  O343  1  0.51304988  -0.00976666  0.11946513  1
  O  O344  1  0.50626304  0.00611241  0.62658145  1
  O  O345  1  0.50512275  0.51285091  0.11995145  1
  O  O346  1  0.49350770  0.50474901  0.61256604  1
  O  O347  1  0.25050814  0.38241585  0.23533606  1
  O  O348  1  0.23781290  0.38259905  0.74369132  1
  O  O349  1  0.24134820  0.88886157  0.25502907  1
  O  O350  1  0.24330603  0.88374684  0.74543975  1
  O  O351  1  0.75644806  0.38811246  0.25151037  1
  O  O352  1  0.74437577  0.38248775  0.74245912  1
  O  O353  1  0.73906757  0.87366188  0.24208466  1
  O  O354  1  0.74859469  0.88358278  0.74538162  1
  O  O355  1  0.26314443  0.11636297  0.25478773  1
  O  O356  1  0.24965155  0.11270418  0.75139669  1
  O  O357  1  0.25240771  0.61968130  0.26078245  1
  O  O358  1  0.25750925  0.61523834  0.74370898  1
  O  O359  1  0.75546370  0.12715483  0.25008414  1
  O  O360  1  0.75565791  0.11948562  0.75352519  1
  O  O361  1  0.76288753  0.61975657  0.25113278  1
  O  O362  1  0.74276473  0.61072491  0.74853405  1
  O  O363  1  0.36375566  0.12831003  0.38116315  1
  O  O364  1  0.37144142  0.11473566  0.87279220  1
  O  O365  1  0.37410049  0.61392669  0.37625953  1
  O  O366  1  0.37756675  0.61526280  0.86471010  1
  O  O367  1  0.87247481  0.11766868  0.36445452  1
  O  O368  1  0.86480958  0.12712567  0.86797097  1
  O  O369  1  0.87404307  0.61698669  0.36764390  1
  O  O370  1  0.87667856  0.61106630  0.87618771  1
  O  O371  1  0.14261778  0.37035849  0.12864514  1
  O  O372  1  0.12698355  0.38260902  0.63159333  1
  O  O373  1  0.12262637  0.88758483  0.13348080  1
  O  O374  1  0.12844007  0.88126022  0.63256093  1
  O  O375  1  0.61917591  0.39320377  0.12406817  1
  O  O376  1  0.63499432  0.37395658  0.63303801  1
  O  O377  1  0.63037407  0.87498086  0.13083641  1
  O  O378  1  0.63407686  0.88051690  0.62788036  1
  O  O379  1  0.11853026  0.25136437  0.25300640  1
  O  O380  1  0.12164168  0.25780795  0.75798403  1
  O  O381  1  0.12923123  0.77241069  0.24555445  1
  O  O382  1  0.11548434  0.75527724  0.75968712  1
  O  O383  1  0.64889270  0.26052111  0.27411327  1
  O  O384  1  0.62196945  0.25941382  0.75225584  1
  O  O385  1  0.62952850  0.75526599  0.26089107  1
  O  O386  1  0.61773612  0.75258949  0.75817480  1
  O  O387  1  0.37691485  0.23558128  0.24788071  1
  O  O388  1  0.38373532  0.25133330  0.74770250  1
  O  O389  1  0.37185602  0.75251088  0.23675878  1
  O  O390  1  0.37537125  0.74173406  0.74893889  1
  O  O391  1  0.88076617  0.24446964  0.24305171  1
  O  O392  1  0.87516873  0.23685125  0.74705562  1
  O  O393  1  0.87151861  0.74270648  0.24301565  1
  O  O394  1  0.88727443  0.75220871  0.75184927  1
  O  O395  1  0.37979465  0.49279569  0.49372949  1
  O  O396  1  0.38422324  0.49247572  0.99147516  1
  O  O397  1  0.37324958  0.98278868  0.50699968  1
  O  O398  1  0.37376689  0.99330218  0.99147226  1
  O  O399  1  0.88257711  0.49346553  0.49355395  1
  O  O400  1  0.87430966  0.49857072  0.98608099  1
  O  O401  1  0.87020892  1.00414307  0.48539373  1
  O  O402  1  0.86657891  0.98970615  1.00558804  1
  O  O403  1  0.12640372  0.00348659  0.01649694  1
  O  O404  1  0.13012903  0.00450573  0.51128369  1
  O  O405  1  0.12455825  0.50131969  0.00134696  1
  O  O406  1  0.11584410  0.49361097  0.50968263  1
  O  O407  1  0.62350772  0.00441941  0.00362411  1
  O  O408  1  0.62448195  -0.00065505  0.51411730  1
  O  O409  1  0.62106030  0.50355349  0.00445437  1
  O  O410  1  0.61508969  0.50977794  0.49577539  1
  O  O411  1  0.36165364  0.38124842  0.11645221  1
  O  O412  1  0.36275362  0.37561272  0.61681320  1
  O  O413  1  0.38585875  0.86097984  0.11598808  1
  O  O414  1  0.36746258  0.86776287  0.62142669  1
  O  O415  1  0.87565940  0.36219971  0.12787538  1
  O  O416  1  0.86907676  0.37218280  0.61920203  1
  O  O417  1  0.86835330  0.87187596  0.12269292  1
  O  O418  1  0.86135786  0.87462500  0.62660560  1
  O  O419  1  0.13091599  0.12991435  0.37940709  1
  O  O420  1  0.12793198  0.13407465  0.87857058  1
  O  O421  1  0.13321210  0.61863801  0.37510553  1
  O  O422  1  0.11832350  0.63838645  0.87432814  1
  O  O423  1  0.62467471  0.13426969  0.37894345  1
  O  O424  1  0.63749637  0.13352555  0.87430487  1
  O  O425  1  0.62365582  0.63190145  0.38583916  1
  O  O426  1  0.62699949  0.63820198  0.87736497  1
