# generated using pymatgen
data_V85Zn86O256
_symmetry_space_group_name_H-M   'P 1'
_cell_length_a   16.96807045
_cell_length_b   16.96146771
_cell_length_c   16.96311632
_cell_angle_alpha   90.10696432
_cell_angle_beta   89.98170066
_cell_angle_gamma   89.98625832
_symmetry_Int_Tables_number   1
_chemical_formula_structural   V85Zn86O256
_chemical_formula_sum   'V85 Zn86 O256'
_cell_volume   4882.03329712
_cell_formula_units_Z   1
loop_
 _symmetry_equiv_pos_site_id
 _symmetry_equiv_pos_as_xyz
  1  'x, y, z'
loop_
 _atom_site_type_symbol
 _atom_site_label
 _atom_site_symmetry_multiplicity
 _atom_site_fract_x
 _atom_site_fract_y
 _atom_site_fract_z
 _atom_site_occupancy
  V  V0  1  0.12581286  0.25065582  0.37468823  1
  V  V1  1  0.00146195  0.62514821  0.62934089  1
  V  V2  1  0.37640979  0.62378744  0.25338589  1
  V  V3  1  0.87517041  0.62770379  0.74561040  1
  V  V4  1  0.74975337  0.12201100  0.35134264  1
  V  V5  1  0.25267107  0.49541287  0.75290024  1
  V  V6  1  0.37302773  -0.00060794  0.87232642  1
  V  V7  1  0.74522880  0.50001294  0.75319058  1
  V  V8  1  0.37557497  0.49029246  0.37953841  1
  V  V9  1  0.36797918  0.75110478  0.61560724  1
  V  V10  1  0.12158399  0.87309463  0.25176300  1
  V  V11  1  0.49914292  0.35989416  0.86553559  1
  V  V12  1  0.37983625  0.12101311  0.25048293  1
  V  V13  1  0.49010645  0.87205699  0.37441860  1
  V  V14  1  0.00047338  -0.00396953  -0.00088323  1
  V  V15  1  0.49125502  0.00094166  0.49408242  1
  V  V16  1  0.74843348  0.87804769  0.62026803  1
  V  V17  1  0.92576830  0.69051812  0.07757720  1
  V  V18  1  0.74218195  0.50860059  0.25718024  1
  V  V19  1  0.88231511  0.50233585  0.88129102  1
  V  V20  1  0.62183606  0.50665741  0.62894660  1
  V  V21  1  0.87260604  0.75580609  0.62593089  1
  V  V22  1  0.74807164  0.00716311  0.75305026  1
  V  V23  1  0.25058871  0.12475284  0.87488222  1
  V  V24  1  -0.00834787  0.24669941  0.25349411  1
  V  V25  1  0.24715531  0.74359856  -0.00035355  1
  V  V26  1  0.25127351  0.12124486  0.37774454  1
  V  V27  1  0.37953243  0.74709449  0.12514260  1
  V  V28  1  0.05960969  0.80898149  0.70377229  1
  V  V29  1  0.49889155  0.87513648  0.87360253  1
  V  V30  1  0.25011489  0.25018728  -0.00020246  1
  V  V31  1  0.24721652  0.37563180  0.12544854  1
  V  V32  1  0.12406807  0.12585493  0.00279932  1
  V  V33  1  0.62640238  0.75356734  0.87149907  1
  V  V34  1  0.38859218  0.50453392  0.87989283  1
  V  V35  1  0.75090910  0.24302729  0.49773052  1
  V  V36  1  0.38464207  0.38017537  0.00385730  1
  V  V37  1  0.24187710  0.62226112  0.87619028  1
  V  V38  1  0.25318490  -0.00021904  0.25533653  1
  V  V39  1  0.87636758  0.12750830  0.74670298  1
  V  V40  1  0.87670694  0.00273253  0.87503723  1
  V  V41  1  0.67325533  0.31643528  0.80943913  1
  V  V42  1  0.61534595  0.00191072  0.62221933  1
  V  V43  1  0.11886298  0.76335573  0.87718549  1
  V  V44  1  0.12848527  0.74558543  0.37813495  1
  V  V45  1  -0.00086080  0.37986972  0.37489847  1
  V  V46  1  0.49933702  0.00714646  0.00766536  1
  V  V47  1  -0.00029365  0.01189418  0.50762754  1
  V  V48  1  0.25783130  0.37457311  0.62274089  1
  V  V49  1  0.87567897  0.87700360  -0.00171212  1
  V  V50  1  0.62017092  0.00207421  0.13069327  1
  V  V51  1  0.75039651  0.87545716  0.12896170  1
  V  V52  1  0.62669685  0.87347949  0.25315002  1
  V  V53  1  0.11830483  0.51344855  0.11176636  1
  V  V54  1  0.38003300  0.62542636  0.74665995  1
  V  V55  1  -0.00894774  0.12404366  0.13161188  1
  V  V56  1  0.24960685  0.87421672  0.12481111  1
  V  V57  1  0.25836551  0.25290658  0.49792091  1
  V  V58  1  0.62178922  0.12371982  0.49949870  1
  V  V59  1  0.12562181  0.00176307  0.12657308  1
  V  V60  1  0.11540956  0.37298939  0.74825849  1
  V  V61  1  0.87061525  0.50926473  0.37727859  1
  V  V62  1  0.04542738  0.19208863  0.68852255  1
  V  V63  1  0.11482690  0.24859404  0.87559208  1
  V  V64  1  0.12657118  0.49995815  0.62273855  1
  V  V65  1  0.37867852  0.24462139  0.12578832  1
  V  V66  1  0.74797870  0.62956382  0.87202271  1
  V  V67  1  0.38835153  0.24898725  0.62531759  1
  V  V68  1  0.38668247  0.12615230  0.74490737  1
  V  V69  1  0.50529692  0.24857552  0.24967572  1
  V  V70  1  0.74553817  0.75550487  0.00258110  1
  V  V71  1  0.62541262  0.87431917  0.74689321  1
  V  V72  1  0.63628113  0.74679912  0.38443445  1
  V  V73  1  0.88222949  0.37781950  0.00713450  1
  V  V74  1  0.87426543  0.00588042  0.35967737  1
  V  V75  1  0.87000956  0.87925135  0.49564142  1
  V  V76  1  0.23853362  -0.00501416  0.74222877  1
  V  V77  1  0.87487663  0.63334352  0.25394658  1
  V  V78  1  0.50177513  0.74784136  0.74014495  1
  V  V79  1  0.37368762  0.87502874  -0.00040774  1
  V  V80  1  0.49507203  0.49909508  0.50771132  1
  V  V81  1  0.74209137  0.37032226  0.62437167  1
  V  V82  1  0.75032800  0.37508124  0.13133238  1
  V  V83  1  0.87181173  0.37666760  0.50126789  1
  V  V84  1  0.24627523  0.50162138  0.25348841  1
  Zn  Zn85  1  0.50242123  0.37158548  0.37871613  1
  Zn  Zn86  1  0.62100579  0.37897021  0.25165983  1
  Zn  Zn87  1  0.00601009  0.38400072  0.88317059  1
  Zn  Zn88  1  0.36359074  0.87786110  0.49440339  1
  Zn  Zn89  1  0.50406860  0.74468784  0.25088834  1
  Zn  Zn90  1  -0.00295910  0.87660333  0.37102982  1
  Zn  Zn91  1  0.25730746  0.62964714  0.38881725  1
  Zn  Zn92  1  -0.00001635  0.74356522  0.24853301  1
  Zn  Zn93  1  0.61162867  0.62289101  -0.00030255  1
  Zn  Zn94  1  0.62731244  0.14213036  -0.02489242  1
  Zn  Zn95  1  0.63072000  0.62326208  0.49425968  1
  Zn  Zn96  1  0.87888295  0.24759146  0.62528012  1
  Zn  Zn97  1  0.12238270  0.37802908  0.24847773  1
  Zn  Zn98  1  0.75018503  0.25040421  -0.01260277  1
  Zn  Zn99  1  0.87309664  0.24675061  0.12503113  1
  Zn  Zn100  1  0.12223804  0.12482126  0.51241171  1
  Zn  Zn101  1  0.12970190  0.63212136  0.50585692  1
  Zn  Zn102  1  0.49258291  0.60760269  0.11175278  1
  Zn  Zn103  1  0.23702018  0.87459003  0.62116837  1
  Zn  Zn104  1  0.62482249  0.24885281  0.37157296  1
  Zn  Zn105  1  -0.00138288  0.50611024  0.49913094  1
  Zn  Zn106  1  0.61494129  0.50238414  0.11934145  1
  Zn  Zn107  1  0.18590630  0.18851927  0.19076506  1
  Zn  Zn108  1  0.21057687  0.18762494  0.69010800  1
  Zn  Zn109  1  0.18939211  0.68583384  0.19042059  1
  Zn  Zn110  1  0.19633319  0.68169178  0.68758493  1
  Zn  Zn111  1  0.68012312  0.19199171  0.12868850  1
  Zn  Zn112  1  0.68903236  0.18089737  0.68122538  1
  Zn  Zn113  1  0.68270966  0.68653803  0.18621650  1
  Zn  Zn114  1  0.69836246  0.67658814  0.65757710  1
  Zn  Zn115  1  0.31408863  0.31211790  0.30988631  1
  Zn  Zn116  1  0.31300956  0.31086470  0.81241021  1
  Zn  Zn117  1  0.30970714  0.81079507  0.31176933  1
  Zn  Zn118  1  0.30942166  0.81210351  0.80855311  1
  Zn  Zn119  1  0.80919066  0.31566741  0.31323742  1
  Zn  Zn120  1  0.83880222  0.31271897  0.81271152  1
  Zn  Zn121  1  0.80893923  0.81491702  0.31345568  1
  Zn  Zn122  1  0.81542498  0.81890001  0.81042001  1
  Zn  Zn123  1  0.18968198  0.43903672  0.43962037  1
  Zn  Zn124  1  0.19104023  0.43611905  0.93873042  1
  Zn  Zn125  1  0.18410813  0.93720332  0.44038100  1
  Zn  Zn126  1  0.18913175  0.93763624  0.93674422  1
  Zn  Zn127  1  0.68208420  0.43538108  0.43708346  1
  Zn  Zn128  1  0.69385836  0.43809429  0.94490665  1
  Zn  Zn129  1  0.68669903  0.94019746  0.43199378  1
  Zn  Zn130  1  0.67383824  0.97033619  0.92500044  1
  Zn  Zn131  1  0.31281519  0.06226664  0.06472165  1
  Zn  Zn132  1  0.30901428  0.06331610  0.56468408  1
  Zn  Zn133  1  0.30991500  0.56136034  0.06363106  1
  Zn  Zn134  1  0.31462761  0.56604309  0.56329641  1
  Zn  Zn135  1  0.80665987  0.05974806  0.06574944  1
  Zn  Zn136  1  0.81286553  0.06204203  0.56188406  1
  Zn  Zn137  1  0.78137694  0.55356843  0.05316253  1
  Zn  Zn138  1  0.80825948  0.56345112  0.55966342  1
  Zn  Zn139  1  0.43772201  0.43591714  0.19128919  1
  Zn  Zn140  1  0.43911701  0.43465280  0.69042714  1
  Zn  Zn141  1  0.43696747  0.93324272  0.19185948  1
  Zn  Zn142  1  0.43352014  0.93621743  0.68551283  1
  Zn  Zn143  1  0.93668058  0.44518238  0.19067329  1
  Zn  Zn144  1  0.93436345  0.43866330  0.68663088  1
  Zn  Zn145  1  0.93735082  0.93372455  0.18271575  1
  Zn  Zn146  1  0.93592381  0.94568954  0.68393355  1
  Zn  Zn147  1  0.06342462  0.06258504  0.31636613  1
  Zn  Zn148  1  0.06210160  0.05491535  0.81944443  1
  Zn  Zn149  1  0.05902518  0.56463691  0.30699231  1
  Zn  Zn150  1  0.06334295  0.56540069  0.80980704  1
  Zn  Zn151  1  0.56337852  0.05924388  0.31275058  1
  Zn  Zn152  1  0.56111678  0.06409922  0.81332010  1
  Zn  Zn153  1  0.55781072  0.56687757  0.31732452  1
  Zn  Zn154  1  0.56495277  0.56263171  0.81323747  1
  Zn  Zn155  1  0.43675854  0.18538318  0.43457598  1
  Zn  Zn156  1  0.43606918  0.18614978  0.93852185  1
  Zn  Zn157  1  0.44696665  0.68089920  0.43781473  1
  Zn  Zn158  1  0.43617037  0.68995484  0.93376921  1
  Zn  Zn159  1  0.93305973  0.18606064  0.43427021  1
  Zn  Zn160  1  0.93308462  0.18497322  0.94035441  1
  Zn  Zn161  1  0.94229145  0.69169492  0.43938082  1
  Zn  Zn162  1  0.93667736  0.69274504  0.91762347  1
  Zn  Zn163  1  0.06079758  0.31416779  0.06557060  1
  Zn  Zn164  1  0.06904429  0.31967034  0.55222839  1
  Zn  Zn165  1  0.06619941  0.81305962  0.06032935  1
  Zn  Zn166  1  0.05510872  0.81850777  0.54112290  1
  Zn  Zn167  1  0.56167006  0.32165620  0.06600732  1
  Zn  Zn168  1  0.56606457  0.31733497  0.55819409  1
  Zn  Zn169  1  0.56246003  0.81361081  0.06177368  1
  Zn  Zn170  1  0.55711225  0.81470042  0.55893179  1
  O  O171  1  0.11980281  0.12094625  0.11988132  1
  O  O172  1  0.11932158  0.14287257  0.63204784  1
  O  O173  1  0.13108710  0.61272339  0.12514972  1
  O  O174  1  0.11973653  0.61628485  0.63105620  1
  O  O175  1  0.61453236  0.10089995  0.14207442  1
  O  O176  1  0.62742239  0.11326136  0.61279623  1
  O  O177  1  0.61375614  0.62510079  0.12225040  1
  O  O178  1  0.60803738  0.60448271  0.64805743  1
  O  O179  1  0.37336199  0.38749890  0.37411423  1
  O  O180  1  0.38407597  0.37921914  0.88058019  1
  O  O181  1  0.38503590  0.86925565  0.37484371  1
  O  O182  1  0.37967686  0.87863094  0.87780175  1
  O  O183  1  0.87998256  0.38631399  0.38148468  1
  O  O184  1  0.88224025  0.38603220  0.88468907  1
  O  O185  1  0.87182023  0.88810708  0.37964765  1
  O  O186  1  0.87676170  0.87874231  0.89065382  1
  O  O187  1  0.24258806  0.00846935  0.36472147  1
  O  O188  1  0.25703830  0.00430945  0.86960584  1
  O  O189  1  0.25573802  0.50078161  0.36861254  1
  O  O190  1  0.25729586  0.50508679  0.86996749  1
  O  O191  1  0.75983935  0.01305011  0.37390848  1
  O  O192  1  0.76885828  -0.01251370  0.86392724  1
  O  O193  1  0.75708617  0.49946814  0.36747954  1
  O  O194  1  0.76005013  0.50509576  0.86734599  1
  O  O195  1  0.24377973  0.49260923  0.13294747  1
  O  O196  1  0.24577695  0.49185110  0.63221485  1
  O  O197  1  0.24325627  0.99480853  0.13176209  1
  O  O198  1  0.24571657  1.00309170  0.63895385  1
  O  O199  1  0.75467843  0.49077123  0.14711774  1
  O  O200  1  0.74345648  0.48885325  0.63648022  1
  O  O201  1  0.73490866  0.98371712  0.11950402  1
  O  O202  1  0.74232138  0.99327506  0.63068267  1
  O  O203  1  0.00062596  0.37050830  0.26271653  1
  O  O204  1  0.01226765  0.38009824  0.75278770  1
  O  O205  1  0.01244430  0.87534479  0.24831069  1
  O  O206  1  0.00134386  0.87470143  0.74967326  1
  O  O207  1  0.49762429  0.36200060  0.25620503  1
  O  O208  1  0.49856752  0.37241930  0.76652797  1
  O  O209  1  0.50494126  0.86895487  0.25938201  1
  O  O210  1  0.50320808  0.86962682  0.75530642  1
  O  O211  1  0.48378505  0.12638012  0.25892806  1
  O  O212  1  0.48594577  0.12021213  0.75180628  1
  O  O213  1  0.48511269  0.62557386  0.24761137  1
  O  O214  1  0.48885926  0.63584705  0.76308286  1
  O  O215  1  1.00911665  0.13438601  0.24285554  1
  O  O216  1  0.99626414  0.12091937  0.74878368  1
  O  O217  1  0.98367125  0.62499244  0.24685429  1
  O  O218  1  0.99264904  0.62295589  0.73793689  1
  O  O219  1  0.36955606  0.25432775  0.00772956  1
  O  O220  1  0.36430498  0.24199654  0.50695517  1
  O  O221  1  0.36569179  0.75634474  0.00522639  1
  O  O222  1  0.38340585  0.74398989  0.51508165  1
  O  O223  1  0.87130392  0.25959028  0.00314070  1
  O  O224  1  0.86382884  0.25409992  0.50028684  1
  O  O225  1  0.87483169  0.75631056  0.00530557  1
  O  O226  1  0.88526151  0.76468303  0.51404789  1
  O  O227  1  0.13487332  0.24783679  0.48844422  1
  O  O228  1  0.13020918  0.24710394  0.99371199  1
  O  O229  1  0.12371602  0.75156771  0.48283734  1
  O  O230  1  0.13325622  0.75317523  0.98786870  1
  O  O231  1  0.63460730  0.24106574  0.49831703  1
  O  O232  1  0.63203320  0.24394348  1.02480414  1
  O  O233  1  0.61879872  0.75103274  0.48750449  1
  O  O234  1  0.63234774  0.75418946  0.98914856  1
  O  O235  1  0.48301357  0.25732512  0.13078851  1
  O  O236  1  0.48698201  0.25792070  0.61615798  1
  O  O237  1  0.48452443  0.75354491  0.12610525  1
  O  O238  1  0.49292141  0.75337919  0.63659407  1
  O  O239  1  1.00021822  0.24221864  0.13586793  1
  O  O240  1  0.99944935  0.25720650  0.62237255  1
  O  O241  1  0.99378808  0.75077801  0.12737849  1
  O  O242  1  1.00077932  0.75036393  0.63285718  1
  O  O243  1  0.00694983  0.25559339  0.37237936  1
  O  O244  1  0.01251293  0.25135399  0.88150345  1
  O  O245  1  0.01088446  0.75608896  0.36997424  1
  O  O246  1  0.01933707  0.74958630  0.87044249  1
  O  O247  1  0.50133673  0.24929731  0.36528150  1
  O  O248  1  0.49925473  0.26069002  0.87855406  1
  O  O249  1  0.50680183  0.75828429  0.37354156  1
  O  O250  1  0.50207569  0.76267270  0.86510157  1
  O  O251  1  0.24438596  0.13104390  0.49377794  1
  O  O252  1  0.24471475  0.12983107  0.99489134  1
  O  O253  1  0.24083428  0.61727882  0.49984441  1
  O  O254  1  0.25580171  0.63653001  0.99162002  1
  O  O255  1  0.74186789  0.13064443  0.49730247  1
  O  O256  1  0.73945540  0.14066181  1.02937571  1
  O  O257  1  0.72784013  0.63600178  0.55049819  1
  O  O258  1  0.76086893  0.64809091  0.98754213  1
  O  O259  1  0.25972626  0.36735992  0.00569378  1
  O  O260  1  0.24684971  0.36570003  0.51093634  1
  O  O261  1  0.25470990  0.86651476  0.00473569  1
  O  O262  1  0.25275409  0.88698796  0.50970498  1
  O  O263  1  0.76113278  0.37004072  0.01392378  1
  O  O264  1  0.75229512  0.36594986  0.50664170  1
  O  O265  1  0.75784916  0.86601599  0.00268745  1
  O  O266  1  0.76099828  0.88685705  0.50597533  1
  O  O267  1  0.13722856  0.49910917  0.24834288  1
  O  O268  1  0.13033275  0.49164737  0.74167563  1
  O  O269  1  0.13265122  0.99362115  0.24630395  1
  O  O270  1  0.14045254  1.00159604  0.75763360  1
  O  O271  1  0.63637012  0.50463358  0.25637254  1
  O  O272  1  0.63805534  0.49516896  0.75205207  1
  O  O273  1  0.61680410  0.98192221  0.24545592  1
  O  O274  1  0.63050573  0.99475418  0.73927857  1
  O  O275  1  0.36183637  0.00592841  0.24384990  1
  O  O276  1  0.36994292  0.00932394  0.75257134  1
  O  O277  1  0.36525354  0.50430416  0.25848114  1
  O  O278  1  0.37342506  0.50701613  0.75818061  1
  O  O279  1  0.87826878  -0.00409643  0.26134120  1
  O  O280  1  0.86952154  0.00536097  0.75621146  1
  O  O281  1  0.86731622  0.51046238  0.26079675  1
  O  O282  1  0.86393978  0.50386705  0.75519616  1
  O  O283  1  0.11612167  0.37000684  0.37630624  1
  O  O284  1  0.12599096  0.36686604  0.86667386  1
  O  O285  1  0.12292902  0.86717548  0.36600287  1
  O  O286  1  0.13057491  0.86208280  0.87370915  1
  O  O287  1  0.62465307  0.36612086  0.36812848  1
  O  O288  1  0.61736930  0.37506641  0.87810512  1
  O  O289  1  0.61823561  0.86802313  0.37046172  1
  O  O290  1  0.61582611  0.87598280  0.86653490  1
  O  O291  1  0.36780884  0.13414164  0.13560276  1
  O  O292  1  0.37062254  0.13290849  0.63762949  1
  O  O293  1  0.37240828  0.63181041  0.13232323  1
  O  O294  1  0.37336557  0.63500708  0.63826100  1
  O  O295  1  0.88857580  0.12335367  0.12511541  1
  O  O296  1  0.87205455  0.12429487  0.63917707  1
  O  O297  1  0.86558213  0.62789638  0.13215360  1
  O  O298  1  0.88384069  0.63673636  0.62617678  1
  O  O299  1  0.25633577  0.25690179  0.12260892  1
  O  O300  1  0.25900125  0.25775075  0.61580485  1
  O  O301  1  0.25601904  0.75296245  0.11692806  1
  O  O302  1  0.26424801  0.75302714  0.63009810  1
  O  O303  1  0.76003498  0.27041884  0.14917730  1
  O  O304  1  0.75183717  0.25439802  0.61584332  1
  O  O305  1  0.74247610  0.76262088  0.11512553  1
  O  O306  1  0.75896900  0.77141278  0.63058546  1
  O  O307  1  0.24522736  0.24712098  0.38040677  1
  O  O308  1  0.24059052  0.24421755  0.87895783  1
  O  O309  1  0.23326350  0.74698519  0.36720362  1
  O  O310  1  0.24457609  0.74325026  0.88042691  1
  O  O311  1  0.75111178  0.23637990  0.37897520  1
  O  O312  1  0.74132984  0.26531361  0.86659639  1
  O  O313  1  0.73500860  0.75772396  0.38033816  1
  O  O314  1  0.74442404  0.75183787  0.87684028  1
  O  O315  1  0.00461108  0.11545931  0.00855616  1
  O  O316  1  -0.00046826  0.11736026  0.49686910  1
  O  O317  1  -0.02240449  0.63708171  0.01267520  1
  O  O318  1  0.00708078  0.62666750  0.51547103  1
  O  O319  1  0.50298476  0.10983119  -0.00670845  1
  O  O320  1  0.51460752  0.11727643  0.48785498  1
  O  O321  1  0.49772369  0.62629706  -0.00253107  1
  O  O322  1  0.50962332  0.60490463  0.49877931  1
  O  O323  1  0.50684929  0.39211154  0.49466085  1
  O  O324  1  0.48772006  0.37277404  0.99158595  1
  O  O325  1  0.49243746  0.88343349  0.49137251  1
  O  O326  1  0.49110455  0.87740557  0.99052179  1
  O  O327  1  0.99206666  0.37833626  0.48876453  1
  O  O328  1  0.98759507  0.37448236  1.00177441  1
  O  O329  1  0.98575448  0.89131233  0.49186353  1
  O  O330  1  0.99320957  0.88899169  1.01042412  1
  O  O331  1  0.49144907  0.49711673  0.38338895  1
  O  O332  1  0.49049818  0.49184675  0.87298295  1
  O  O333  1  0.50492287  0.98690318  0.38359347  1
  O  O334  1  0.49113531  0.98789675  0.88001142  1
  O  O335  1  0.99297148  0.49439303  0.37672084  1
  O  O336  1  0.98702289  0.50537244  0.87137185  1
  O  O337  1  0.98513961  1.00278750  0.37817284  1
  O  O338  1  0.98977567  0.99952558  0.88676206  1
  O  O339  1  0.00708528  0.00716005  0.12155223  1
  O  O340  1  -0.00430304  0.00256856  0.60674332  1
  O  O341  1  0.02145279  0.49408475  0.13242923  1
  O  O342  1  0.00739807  0.50790705  0.62506509  1
  O  O343  1  0.50257948  -0.01089878  0.11622909  1
  O  O344  1  0.51104028  -0.00789326  0.61704915  1
  O  O345  1  0.50023293  0.49272058  0.12150776  1
  O  O346  1  0.50588594  0.48909006  0.61625493  1
  O  O347  1  0.24977504  0.38254979  0.24146852  1
  O  O348  1  0.24024074  0.37686835  0.74500514  1
  O  O349  1  0.24171474  0.88250332  0.24602033  1
  O  O350  1  0.25535583  0.89073475  0.74411352  1
  O  O351  1  0.75033872  0.39112026  0.25044918  1
  O  O352  1  0.74553043  0.37308537  0.75031520  1
  O  O353  1  0.74089959  0.87156535  0.24060349  1
  O  O354  1  0.74598969  0.88791876  0.74192512  1
  O  O355  1  0.25513870  0.11790102  0.25622135  1
  O  O356  1  0.25949667  0.11306221  0.75898906  1
  O  O357  1  0.26048274  0.61629532  0.25349072  1
  O  O358  1  0.26017169  0.61583046  0.75789943  1
  O  O359  1  0.74490542  0.12803478  0.25618202  1
  O  O360  1  0.75666624  0.11247254  0.74762602  1
  O  O361  1  0.75651915  0.61428563  0.24835039  1
  O  O362  1  0.75508233  0.61674472  0.75060127  1
  O  O363  1  0.35855049  0.12946370  0.36630576  1
  O  O364  1  0.37094744  0.12028629  0.86626307  1
  O  O365  1  0.37499779  0.61646579  0.36881765  1
  O  O366  1  0.36503667  0.61896781  0.86826600  1
  O  O367  1  0.86294888  0.11522301  0.37210307  1
  O  O368  1  0.87908908  0.11534987  0.86370708  1
  O  O369  1  0.87932448  0.61623090  0.37385848  1
  O  O370  1  0.86768892  0.62132465  0.86370350  1
  O  O371  1  0.13814371  0.37627957  0.12621252  1
  O  O372  1  0.13390890  0.37898625  0.63193097  1
  O  O373  1  0.13151443  0.87978971  0.13171984  1
  O  O374  1  0.11473068  0.86039978  0.63425919  1
  O  O375  1  0.63594111  0.38269927  0.13314870  1
  O  O376  1  0.63746865  0.38047632  0.62532233  1
  O  O377  1  0.62810507  0.87493931  0.13604748  1
  O  O378  1  0.63115361  0.88064926  0.62598833  1
  O  O379  1  0.11986698  0.25542557  0.26222457  1
  O  O380  1  0.11961446  0.25112521  0.75317201  1
  O  O381  1  0.12319772  0.75777852  0.25432032  1
  O  O382  1  0.12897552  0.75152727  0.75776893  1
  O  O383  1  0.60697351  0.24246474  0.24030013  1
  O  O384  1  0.62717461  0.24964915  0.75277107  1
  O  O385  1  0.62373566  0.75814643  0.26053326  1
  O  O386  1  0.61765132  0.75672001  0.75185613  1
  O  O387  1  0.37851780  0.24078608  0.24343761  1
  O  O388  1  0.36790071  0.23526654  0.74225787  1
  O  O389  1  0.37161790  0.74067816  0.24115755  1
  O  O390  1  0.38140818  0.74294541  0.74483986  1
  O  O391  1  0.88993954  0.25342567  0.25507992  1
  O  O392  1  0.88205848  0.23721413  0.74533311  1
  O  O393  1  0.87339986  0.73766324  0.25852710  1
  O  O394  1  0.87268369  0.74803826  0.73570256  1
  O  O395  1  0.38680942  0.50247869  0.49636687  1
  O  O396  1  0.36417987  0.48957734  0.98989196  1
  O  O397  1  0.38923948  1.00642747  0.50601035  1
  O  O398  1  0.37916465  0.99447097  0.99500460  1
  O  O399  1  0.87392208  0.49736828  0.49468979  1
  O  O400  1  0.86457052  0.49317734  0.99062782  1
  O  O401  1  0.88108712  0.99863181  0.49061291  1
  O  O402  1  0.87955228  0.99707330  0.99425001  1
  O  O403  1  0.11810391  0.00379798  0.00420098  1
  O  O404  1  0.10439377  0.00666571  0.49019728  1
  O  O405  1  0.13019287  0.49755236  0.01222520  1
  O  O406  1  0.12108925  0.49519211  0.51564777  1
  O  O407  1  0.60982071  -0.01545618  0.01822124  1
  O  O408  1  0.61850576  0.00499806  0.50446888  1
  O  O409  1  0.66798765  0.52050201  0.01409487  1
  O  O410  1  0.62053654  0.50166132  0.51210603  1
  O  O411  1  0.36367783  0.36945497  0.11891041  1
  O  O412  1  0.36327029  0.36680101  0.63531856  1
  O  O413  1  0.36668120  0.86660803  0.12200924  1
  O  O414  1  0.37589250  0.85851650  0.62316052  1
  O  O415  1  0.87168843  0.37806231  0.12144924  1
  O  O416  1  0.86215851  0.37436241  0.62007838  1
  O  O417  1  0.86359965  0.88248772  0.11208437  1
  O  O418  1  0.86813788  0.87506036  0.61810640  1
  O  O419  1  0.13620065  0.13534987  0.37353249  1
  O  O420  1  0.12871198  0.13132961  0.88220284  1
  O  O421  1  0.12217067  0.63833502  0.37246397  1
  O  O422  1  0.13859123  0.63209429  0.86785108  1
  O  O423  1  0.63854174  0.12389567  0.37832911  1
  O  O424  1  0.64126625  0.07856836  0.88570837  1
  O  O425  1  0.62435170  0.64169390  0.37525636  1
  O  O426  1  0.63274154  0.63469519  0.87505753  1
