# generated using pymatgen
data_V85Zn86O256
_symmetry_space_group_name_H-M   'P 1'
_cell_length_a   16.91883027
_cell_length_b   16.92380019
_cell_length_c   16.91487648
_cell_angle_alpha   90.01685358
_cell_angle_beta   90.02383254
_cell_angle_gamma   90.01720066
_symmetry_Int_Tables_number   1
_chemical_formula_structural   V85Zn86O256
_chemical_formula_sum   'V85 Zn86 O256'
_cell_volume   4843.25100852
_cell_formula_units_Z   1
loop_
 _symmetry_equiv_pos_site_id
 _symmetry_equiv_pos_as_xyz
  1  'x, y, z'
loop_
 _atom_site_type_symbol
 _atom_site_label
 _atom_site_symmetry_multiplicity
 _atom_site_fract_x
 _atom_site_fract_y
 _atom_site_fract_z
 _atom_site_occupancy
  V  V0  1  0.61755628  0.11928703  0.49789435  1
  V  V1  1  0.00104568  0.62552253  0.62131489  1
  V  V2  1  0.74723113  0.86858578  0.11876359  1
  V  V3  1  0.50328577  0.24367992  0.24702588  1
  V  V4  1  0.25515190  0.50670501  0.74731835  1
  V  V5  1  0.74701917  0.37656857  0.61724108  1
  V  V6  1  0.00219768  0.36616824  0.37711065  1
  V  V7  1  -0.00103078  0.74831531  0.75324788  1
  V  V8  1  0.12487690  0.50478002  0.62158843  1
  V  V9  1  0.25055062  0.12316720  0.36934899  1
  V  V10  1  0.25126463  0.37615191  0.62393245  1
  V  V11  1  0.86756087  0.61953583  0.75294135  1
  V  V12  1  0.12890404  0.87768299  0.74986478  1
  V  V13  1  0.37597150  0.75211475  0.12576876  1
  V  V14  1  0.25655506  0.49728401  0.25921582  1
  V  V15  1  0.86780703  0.25040609  0.61799399  1
  V  V16  1  0.87917440  0.87371712  0.49839716  1
  V  V17  1  0.73667374  0.13107560  0.88368275  1
  V  V18  1  0.49332224  0.00572342  -0.01547190  1
  V  V19  1  0.74999635  0.87651070  0.62540414  1
  V  V20  1  0.37715783  0.24910832  0.62679996  1
  V  V21  1  0.25123975  0.74980218  0.00043900  1
  V  V22  1  0.12310339  0.74192345  0.36243889  1
  V  V23  1  0.75222619  0.12900039  0.38133717  1
  V  V24  1  0.75351493  0.62865847  0.88566777  1
  V  V25  1  0.49911624  0.38185070  0.37331631  1
  V  V26  1  0.50079847  0.50337807  -0.00121264  1
  V  V27  1  0.87277422  0.26459618  0.11661918  1
  V  V28  1  0.61315456  -0.00209344  0.62082804  1
  V  V29  1  0.87515286  -0.00146278  0.37342848  1
  V  V30  1  0.24140511  0.74404886  0.50507832  1
  V  V31  1  0.25377716  0.10727280  0.87091143  1
  V  V32  1  0.50404580  0.50840335  0.49953233  1
  V  V33  1  0.25179359  0.37425073  0.12283257  1
  V  V34  1  0.50237125  0.36678830  0.87320637  1
  V  V35  1  0.86766387  0.86762220  -0.00465996  1
  V  V36  1  0.50076498  0.75078984  0.25131114  1
  V  V37  1  -0.00570177  0.37344812  0.87945806  1
  V  V38  1  0.00635043  0.87082455  0.35835023  1
  V  V39  1  0.75177072  0.62482164  0.37785117  1
  V  V40  1  -0.00131436  0.49954932  0.49915962  1
  V  V41  1  0.74716563  0.00223980  0.74938947  1
  V  V42  1  0.37889808  0.50367414  0.87031292  1
  V  V43  1  0.37717265  0.62169455  0.26052530  1
  V  V44  1  0.37676232  0.38088841  0.49543249  1
  V  V45  1  0.25849668  0.87332509  0.62458330  1
  V  V46  1  0.87466589  0.74905094  0.62598065  1
  V  V47  1  0.63141116  0.37223965  0.75237170  1
  V  V48  1  -0.00182232  0.12713310  0.12237641  1
  V  V49  1  0.86852537  0.49596185  0.87654049  1
  V  V50  1  -0.00045405  0.25035128  0.74896726  1
  V  V51  1  -0.00021111  0.87617140  0.87229882  1
  V  V52  1  0.63078714  0.51198774  0.62885824  1
  V  V53  1  0.48457381  0.62850990  0.62927804  1
  V  V54  1  0.75240125  0.50131379  0.24571501  1
  V  V55  1  0.12623324  -0.00663389  0.13297637  1
  V  V56  1  0.63138201  0.37608335  0.24764685  1
  V  V57  1  0.12532475  0.12714846  0.49409491  1
  V  V58  1  0.24761425  0.62153581  0.87638292  1
  V  V59  1  0.61428945  0.01447169  0.12033179  1
  V  V60  1  0.13180992  0.25105683  0.87514630  1
  V  V61  1  0.62541571  0.75037011  0.87981523  1
  V  V62  1  0.87364159  0.12624394  0.24704341  1
  V  V63  1  0.88866339  0.62905513  0.24474733  1
  V  V64  1  0.48716979  0.74729696  0.75366148  1
  V  V65  1  0.61968623  0.87260456  0.75519985  1
  V  V66  1  0.13048527  0.00040091  0.62683422  1
  V  V67  1  0.87273871  0.00519957  0.87461967  1
  V  V68  1  0.63120471  0.25411512  0.38434184  1
  V  V69  1  0.37823500  0.87483268  0.49732876  1
  V  V70  1  -0.00222555  0.50036610  0.00260504  1
  V  V71  1  0.12401614  0.50468657  0.12637105  1
  V  V72  1  0.87214178  0.12716001  0.74956141  1
  V  V73  1  0.00032565  0.12480564  0.62407536  1
  V  V74  1  0.24808582  0.25115264  0.49235842  1
  V  V75  1  0.74025637  0.26264610  0.00050991  1
  V  V76  1  0.74761675  0.74715269  0.50065186  1
  V  V77  1  0.62865303  0.49916618  0.12228414  1
  V  V78  1  0.12515402  0.37607416  0.74926916  1
  V  V79  1  0.62426044  0.74597973  0.37986754  1
  V  V80  1  0.62681571  0.87539856  0.24751571  1
  V  V81  1  0.37371142  0.11106451  0.74993452  1
  V  V82  1  0.12679007  0.36684356  0.25474362  1
  V  V83  1  -0.00024756  0.00110960  -0.00221481  1
  V  V84  1  0.37889566  0.24360508  0.12322576  1
  Zn  Zn85  1  0.50462520  0.88023608  0.38257923  1
  Zn  Zn86  1  0.12343556  0.62711765  0.00788075  1
  Zn  Zn87  1  0.25358434  0.24916047  -0.00243928  1
  Zn  Zn88  1  0.24617057  0.86977744  0.12968260  1
  Zn  Zn89  1  0.12761824  0.12536668  -0.00097963  1
  Zn  Zn90  1  0.87666096  0.49867421  0.37423711  1
  Zn  Zn91  1  0.38647037  0.00449264  0.37731044  1
  Zn  Zn92  1  0.50121342  0.62431287  0.12538511  1
  Zn  Zn93  1  0.74784632  0.00145423  0.24593579  1
  Zn  Zn94  1  0.86903497  0.37155540  0.49431479  1
  Zn  Zn95  1  0.37983786  0.12001580  0.24832131  1
  Zn  Zn96  1  0.62894799  0.63220321  0.00437339  1
  Zn  Zn97  1  0.49518531  0.12170388  0.62135096  1
  Zn  Zn98  1  0.25289041  -0.01398504  0.25792363  1
  Zn  Zn99  1  0.24842951  0.62009581  0.38163411  1
  Zn  Zn100  1  0.37646353  0.37493733  -0.00073920  1
  Zn  Zn101  1  0.00242726  -0.00233560  0.49854195  1
  Zn  Zn102  1  0.88301506  0.75001976  0.13079348  1
  Zn  Zn103  1  0.37814401  0.87942989  -0.01130531  1
  Zn  Zn104  1  0.50103409  0.24771987  0.75162600  1
  Zn  Zn105  1  0.00187667  0.24959268  0.25112397  1
  Zn  Zn106  1  0.12395008  0.74781417  0.87695959  1
  Zn  Zn107  1  0.18726322  0.18664814  0.18337285  1
  Zn  Zn108  1  0.19180598  0.18643343  0.68683968  1
  Zn  Zn109  1  0.19142763  0.68542217  0.19125774  1
  Zn  Zn110  1  0.18600077  0.68818235  0.68894376  1
  Zn  Zn111  1  0.69232024  0.19153408  0.18799609  1
  Zn  Zn112  1  0.68611716  0.18921967  0.68558044  1
  Zn  Zn113  1  0.69148328  0.68693560  0.18721701  1
  Zn  Zn114  1  0.68722673  0.68889325  0.69294945  1
  Zn  Zn115  1  0.31633218  0.31053904  0.31179251  1
  Zn  Zn116  1  0.31643578  0.31570341  0.80957765  1
  Zn  Zn117  1  0.30849442  0.81314747  0.31367315  1
  Zn  Zn118  1  0.30752301  0.80879352  0.81167587  1
  Zn  Zn119  1  0.81486519  0.31256032  0.31007980  1
  Zn  Zn120  1  0.80871490  0.31135698  0.81119363  1
  Zn  Zn121  1  0.81323247  0.81000398  0.30904612  1
  Zn  Zn122  1  0.81005337  0.81194639  0.81475563  1
  Zn  Zn123  1  0.18341865  0.43710946  0.43803920  1
  Zn  Zn124  1  0.18704641  0.43682305  0.93878078  1
  Zn  Zn125  1  0.18700639  0.93659720  0.43764669  1
  Zn  Zn126  1  0.18739182  0.93245487  0.94359797  1
  Zn  Zn127  1  0.68511426  0.44298133  0.43906691  1
  Zn  Zn128  1  0.68760127  0.43929236  0.93536252  1
  Zn  Zn129  1  0.68910268  0.93752933  0.43453840  1
  Zn  Zn130  1  0.68024408  0.94272642  0.93883737  1
  Zn  Zn131  1  0.31235652  0.06400825  0.05886375  1
  Zn  Zn132  1  0.31171919  0.05917941  0.56193826  1
  Zn  Zn133  1  0.31536020  0.56374331  0.06639013  1
  Zn  Zn134  1  0.31496438  0.56324006  0.55940172  1
  Zn  Zn135  1  0.80664528  0.05895890  0.06203662  1
  Zn  Zn136  1  0.80886480  0.06124493  0.56024098  1
  Zn  Zn137  1  0.81616997  0.55846411  0.06292847  1
  Zn  Zn138  1  0.81334838  0.56044776  0.56225271  1
  Zn  Zn139  1  0.43916046  0.43587641  0.18618077  1
  Zn  Zn140  1  0.44095145  0.43844876  0.68722567  1
  Zn  Zn141  1  0.43572609  0.93761062  0.19055561  1
  Zn  Zn142  1  0.43621233  0.93246543  0.80954768  1
  Zn  Zn143  1  0.94051611  0.44093829  0.19101209  1
  Zn  Zn144  1  0.93401559  0.43644877  0.68956448  1
  Zn  Zn145  1  0.93373734  0.93907539  0.18291344  1
  Zn  Zn146  1  0.93950769  0.93996563  0.68640351  1
  Zn  Zn147  1  0.06047260  0.06298179  0.31320641  1
  Zn  Zn148  1  0.06562116  0.06381187  0.81102022  1
  Zn  Zn149  1  0.06656781  0.55715153  0.31368684  1
  Zn  Zn150  1  0.05968166  0.56122202  0.81260263  1
  Zn  Zn151  1  0.56277015  0.05817893  0.31433648  1
  Zn  Zn152  1  0.56251817  0.06828410  0.80735133  1
  Zn  Zn153  1  0.56523188  0.56489959  0.31343432  1
  Zn  Zn154  1  0.56708968  0.56294119  0.80983814  1
  Zn  Zn155  1  0.43788696  0.19220880  0.43400182  1
  Zn  Zn156  1  0.43761677  0.18235036  0.94050005  1
  Zn  Zn157  1  0.43325619  0.69361874  0.44282814  1
  Zn  Zn158  1  0.43568705  0.68655729  0.93506853  1
  Zn  Zn159  1  0.93820070  0.18740439  0.43846221  1
  Zn  Zn160  1  0.93430836  0.19003341  0.93825740  1
  Zn  Zn161  1  0.93877976  0.68686423  0.43437599  1
  Zn  Zn162  1  0.95071505  0.69950599  0.96535702  1
  Zn  Zn163  1  0.06457649  0.31426829  0.06143094  1
  Zn  Zn164  1  0.06254545  0.31202399  0.56207742  1
  Zn  Zn165  1  0.05950383  0.81160087  0.06375873  1
  Zn  Zn166  1  0.06495489  0.81107094  0.56072362  1
  Zn  Zn167  1  0.56277204  0.31568526  0.06314534  1
  Zn  Zn168  1  0.56296320  0.31432866  0.56318704  1
  Zn  Zn169  1  0.55603889  0.81885292  0.06120383  1
  Zn  Zn170  1  0.56133659  0.80878803  0.56812504  1
  O  O171  1  0.11202472  0.11954847  0.12174467  1
  O  O172  1  0.12348801  0.11846248  0.61857433  1
  O  O173  1  0.13048542  0.60871011  0.12814840  1
  O  O174  1  0.11350719  0.61613071  0.63120350  1
  O  O175  1  0.63045243  0.11190462  0.13199886  1
  O  O176  1  0.62703571  0.11741526  0.61464152  1
  O  O177  1  0.62485672  0.61412500  0.12452613  1
  O  O178  1  0.62297531  0.61473249  0.63067448  1
  O  O179  1  0.38645701  0.37234181  0.38299952  1
  O  O180  1  0.38357484  0.38644296  0.87532913  1
  O  O181  1  0.37572731  0.87304593  0.38869975  1
  O  O182  1  0.37256346  0.87049101  0.87525663  1
  O  O183  1  0.88404350  0.37808388  0.37523460  1
  O  O184  1  0.88307554  0.38179638  0.86606270  1
  O  O185  1  0.88430190  0.87492531  0.38017346  1
  O  O186  1  0.87757582  0.88797510  0.87454420  1
  O  O187  1  0.24958877  0.01064344  0.37561003  1
  O  O188  1  0.24437835  0.00929883  0.87567327  1
  O  O189  1  0.24567065  0.50000710  0.36414005  1
  O  O190  1  0.25661595  0.50138637  0.86719659  1
  O  O191  1  0.75786288  0.00825956  0.37006086  1
  O  O192  1  0.75134167  0.01335314  0.87071042  1
  O  O193  1  0.74927795  0.50825517  0.36716005  1
  O  O194  1  0.76193341  0.50734600  0.87765740  1
  O  O195  1  0.24650039  0.49139217  0.13447470  1
  O  O196  1  0.24350093  0.49913071  0.62855391  1
  O  O197  1  0.23169691  1.00414329  0.12082678  1
  O  O198  1  0.23713831  0.99124777  0.62215314  1
  O  O199  1  0.74423467  0.50267184  0.13686173  1
  O  O200  1  0.74041208  0.49404953  0.62215617  1
  O  O201  1  0.73842523  0.98978252  0.12599946  1
  O  O202  1  0.74501870  0.99396245  0.63192583  1
  O  O203  1  0.00898743  0.37519573  0.25929957  1
  O  O204  1  0.00520081  0.36945036  0.75745543  1
  O  O205  1  -0.00652880  0.87386014  0.26003148  1
  O  O206  1  0.00617013  0.86943524  0.75358338  1
  O  O207  1  0.51159495  0.37382529  0.25789386  1
  O  O208  1  0.50882375  0.37327891  0.75592362  1
  O  O209  1  0.50830129  0.86239302  0.25121623  1
  O  O210  1  0.50770677  0.85858263  0.74772376  1
  O  O211  1  0.50425176  0.14137646  0.25647812  1
  O  O212  1  0.49003217  0.13073230  0.74480816  1
  O  O213  1  0.49617060  0.63438492  0.25131164  1
  O  O214  1  0.50379285  0.63314169  0.73903190  1
  O  O215  1  0.99220064  0.12870460  0.24311613  1
  O  O216  1  0.99391287  0.13060692  0.74396172  1
  O  O217  1  0.98691120  0.61481062  0.25242664  1
  O  O218  1  0.99137614  0.62946451  0.74268287  1
  O  O219  1  0.37542628  0.25470914  0.00809968  1
  O  O220  1  0.36966820  0.26141850  0.50485624  1
  O  O221  1  0.36719041  0.74566091  0.00776697  1
  O  O222  1  0.35474747  0.76106838  0.49639025  1
  O  O223  1  0.86898115  0.24962669  0.01206540  1
  O  O224  1  0.87869777  0.25178840  0.51392512  1
  O  O225  1  0.85820820  0.76943163  -0.02281717  1
  O  O226  1  0.86961461  0.75515288  0.50552599  1
  O  O227  1  0.13640707  0.24048776  0.50862800  1
  O  O228  1  0.12690105  0.24724161  0.98897299  1
  O  O229  1  0.13612440  0.75308276  0.49147080  1
  O  O230  1  0.13892493  0.74743764  0.99876040  1
  O  O231  1  0.62354489  0.24593806  0.48855196  1
  O  O232  1  0.64075005  0.25198254  1.00859506  1
  O  O233  1  0.63472407  0.75853676  0.49172381  1
  O  O234  1  0.61449492  0.75152338  0.98440680  1
  O  O235  1  0.49224692  0.26019094  0.13518482  1
  O  O236  1  0.48615596  0.24946817  0.62145361  1
  O  O237  1  0.49597675  0.74594878  0.13358058  1
  O  O238  1  0.50493293  0.73500972  0.63607589  1
  O  O239  1  0.98988866  0.24364416  0.12256590  1
  O  O240  1  0.99349687  0.24482474  0.63084574  1
  O  O241  1  0.98017869  0.73695215  0.07452402  1
  O  O242  1  0.99534924  0.74192703  0.62961229  1
  O  O243  1  -0.00270642  0.26152225  0.37349319  1
  O  O244  1  0.00807746  0.25454099  0.87003132  1
  O  O245  1  0.01171469  0.75970372  0.38029426  1
  O  O246  1  0.00139760  0.75716741  0.87145033  1
  O  O247  1  0.50955937  0.26332157  0.36857498  1
  O  O248  1  0.49406247  0.26411984  0.87621036  1
  O  O249  1  0.50907101  0.75311024  0.37096361  1
  O  O250  1  0.50755595  0.73762650  0.85991383  1
  O  O251  1  0.24480140  0.13268962  0.49287581  1
  O  O252  1  0.24875769  0.12851698  0.98325567  1
  O  O253  1  0.25331778  0.63794898  0.49965654  1
  O  O254  1  0.24818871  0.62774959  0.99302910  1
  O  O255  1  0.74297506  0.12405552  0.48701674  1
  O  O256  1  0.75359283  0.13099352  0.98740544  1
  O  O257  1  0.75766247  0.62968503  0.48659282  1
  O  O258  1  0.75070107  0.62353370  0.98973330  1
  O  O259  1  0.25265566  0.37435910  0.01117734  1
  O  O260  1  0.25662514  0.37132748  0.50311536  1
  O  O261  1  0.25489823  0.86471038  0.00781426  1
  O  O262  1  0.25078963  0.86552879  0.50621348  1
  O  O263  1  0.75006780  0.36189565  -0.00659997  1
  O  O264  1  0.74933728  0.37881731  0.51172105  1
  O  O265  1  0.75607557  0.88689402  0.00672607  1
  O  O266  1  0.76198714  0.86976653  0.50311613  1
  O  O267  1  0.13322730  0.48874034  0.24411179  1
  O  O268  1  0.12958474  0.49467297  0.73996056  1
  O  O269  1  0.12358724  1.00488837  0.23501510  1
  O  O270  1  0.11900793  0.98951076  0.74059104  1
  O  O271  1  0.63167688  0.49586014  0.24460838  1
  O  O272  1  0.61988435  0.48711909  0.73811326  1
  O  O273  1  0.62603707  0.99002711  0.24107142  1
  O  O274  1  0.62859827  0.99240354  0.74324274  1
  O  O275  1  0.37083106  0.00467407  0.25445619  1
  O  O276  1  0.38018009  0.01178230  0.74491530  1
  O  O277  1  0.36844128  0.50723054  0.24561427  1
  O  O278  1  0.36684020  0.49578849  0.75663522  1
  O  O279  1  0.87438880  0.01159744  0.25353435  1
  O  O280  1  0.86783664  0.00677126  0.75378440  1
  O  O281  1  0.86717131  0.50706372  0.25194626  1
  O  O282  1  0.88135003  0.50968013  0.76104644  1
  O  O283  1  0.11707838  0.37657489  0.36683550  1
  O  O284  1  0.11844329  0.36933215  0.86824476  1
  O  O285  1  0.11065015  0.86848297  0.37712629  1
  O  O286  1  0.11969749  0.87486170  0.86635020  1
  O  O287  1  0.62099557  0.37030693  0.37068604  1
  O  O288  1  0.61898688  0.38277185  0.85971602  1
  O  O289  1  0.62965846  0.86470580  0.36365003  1
  O  O290  1  0.63196964  0.86846870  0.86247306  1
  O  O291  1  0.36603830  0.14000051  0.12934109  1
  O  O292  1  0.37216803  0.13172352  0.63001610  1
  O  O293  1  0.37825625  0.63437190  0.13728916  1
  O  O294  1  0.38606787  0.62144939  0.63006946  1
  O  O295  1  0.88280518  0.12496707  0.12991828  1
  O  O296  1  0.87681064  0.13130440  0.62879244  1
  O  O297  1  0.86820333  0.62477753  0.14181534  1
  O  O298  1  0.87990415  0.62803317  0.63365753  1
  O  O299  1  0.25654345  0.25865651  0.12313662  1
  O  O300  1  0.25993061  0.25482868  0.61551012  1
  O  O301  1  0.25787252  0.74479943  0.11724258  1
  O  O302  1  0.23948820  0.75649333  0.61317417  1
  O  O303  1  0.76315778  0.24615868  0.11326655  1
  O  O304  1  0.75740469  0.26001255  0.62789628  1
  O  O305  1  0.75414601  0.76397529  0.12693249  1
  O  O306  1  0.75462308  0.75522522  0.62077432  1
  O  O307  1  0.25358766  0.24656965  0.38720856  1
  O  O308  1  0.23863979  0.25568041  0.87277801  1
  O  O309  1  0.23513401  0.74836614  0.38326311  1
  O  O310  1  0.24815006  0.73699348  0.88197980  1
  O  O311  1  0.74252318  0.24308928  0.36945696  1
  O  O312  1  0.75591611  0.24081871  0.88765630  1
  O  O313  1  0.74539357  0.74349708  0.37953466  1
  O  O314  1  0.73835683  0.74005488  0.86804571  1
  O  O315  1  -0.00080766  0.11830619  0.00556456  1
  O  O316  1  0.00864951  0.12418292  0.50561549  1
  O  O317  1  0.00932481  0.60293816  -0.01518132  1
  O  O318  1  -0.00697828  0.61715799  0.51288743  1
  O  O319  1  0.50097515  0.10737856  -0.00245348  1
  O  O320  1  0.51390817  0.13080388  0.49871013  1
  O  O321  1  0.50342190  0.61348792  -0.00088385  1
  O  O322  1  0.49368785  0.62050185  0.51321211  1
  O  O323  1  0.49463142  0.38256703  0.49377292  1
  O  O324  1  0.50310664  0.38722993  0.99025083  1
  O  O325  1  0.48114973  0.86201364  0.50518283  1
  O  O326  1  0.49675135  0.89581434  1.00478050  1
  O  O327  1  0.99940461  0.38104463  0.49413472  1
  O  O328  1  1.00514765  0.38112412  0.98570053  1
  O  O329  1  0.98825041  0.87421488  0.49729293  1
  O  O330  1  0.99023079  0.88541304  0.99000943  1
  O  O331  1  0.50889857  0.49153211  0.38407007  1
  O  O332  1  0.49462595  0.49690573  0.87820429  1
  O  O333  1  0.50154140  0.99316740  0.37870365  1
  O  O334  1  0.50390284  0.99989172  0.87891865  1
  O  O335  1  1.00206543  0.49122328  0.38555784  1
  O  O336  1  0.99254100  0.48934563  0.87770329  1
  O  O337  1  0.99543876  0.98654911  0.37568634  1
  O  O338  1  0.99490388  0.99901151  0.88035211  1
  O  O339  1  0.00547083  0.00675582  0.11772423  1
  O  O340  1  0.00901131  0.00797581  0.62230857  1
  O  O341  1  0.01019165  0.49029234  0.11473598  1
  O  O342  1  0.00546809  0.50451889  0.62123935  1
  O  O343  1  0.51272220  0.00097611  0.12863471  1
  O  O344  1  0.51442717  0.00215564  0.62386014  1
  O  O345  1  0.50731300  0.50112134  0.11604497  1
  O  O346  1  0.50579052  0.51215933  0.62090552  1
  O  O347  1  0.24642068  0.37868355  0.24544757  1
  O  O348  1  0.24607426  0.38647111  0.74274600  1
  O  O349  1  0.24864405  0.87376075  0.24284480  1
  O  O350  1  0.23537992  0.86434017  0.73996844  1
  O  O351  1  0.73913880  0.38454570  0.25646345  1
  O  O352  1  0.73706514  0.37323511  0.74182019  1
  O  O353  1  0.74335272  0.87668075  0.24294133  1
  O  O354  1  0.74296603  0.88032252  0.74379358  1
  O  O355  1  0.24590975  0.12909253  0.26414977  1
  O  O356  1  0.25641899  0.12729222  0.76227212  1
  O  O357  1  0.25918701  0.61433521  0.25450827  1
  O  O358  1  0.24629597  0.61305829  0.75538326  1
  O  O359  1  0.75836176  0.12473010  0.25929901  1
  O  O360  1  0.75372036  0.12430672  0.75873235  1
  O  O361  1  0.75522041  0.61864519  0.26067565  1
  O  O362  1  0.76335330  0.62798233  0.75716912  1
  O  O363  1  0.36528028  0.12592333  0.37505473  1
  O  O364  1  0.36048876  0.13012225  0.86583248  1
  O  O365  1  0.37345213  0.63003663  0.36433185  1
  O  O366  1  0.36356343  0.61132267  0.87731931  1
  O  O367  1  0.87082325  0.12254950  0.36852875  1
  O  O368  1  0.86917342  0.12200424  0.86785604  1
  O  O369  1  0.86958440  0.62216578  0.36544864  1
  O  O370  1  0.86987621  0.61834326  0.86974464  1
  O  O371  1  0.13466806  0.38066525  0.13131935  1
  O  O372  1  0.13168846  0.38186200  0.62952833  1
  O  O373  1  0.11995521  0.89016153  0.11980459  1
  O  O374  1  0.12742761  0.88273203  0.63045845  1
  O  O375  1  0.62245694  0.38877323  0.13481343  1
  O  O376  1  0.62968072  0.38314448  0.63109914  1
  O  O377  1  0.62997868  0.87597821  0.13441078  1
  O  O378  1  0.62999351  0.87965780  0.63294833  1
  O  O379  1  0.12255234  0.26312312  0.24278668  1
  O  O380  1  0.12062546  0.25544882  0.75404971  1
  O  O381  1  0.12493066  0.74701401  0.26275209  1
  O  O382  1  0.11480015  0.75711333  0.75192335  1
  O  O383  1  0.62284083  0.25972938  0.25531738  1
  O  O384  1  0.61979756  0.26718277  0.74180499  1
  O  O385  1  0.61951582  0.75438225  0.25564424  1
  O  O386  1  0.61876588  0.75678179  0.75749094  1
  O  O387  1  0.38713083  0.24963597  0.24403064  1
  O  O388  1  0.37528364  0.24556044  0.73942959  1
  O  O389  1  0.38349725  0.74359998  0.24698246  1
  O  O390  1  0.38860457  0.74751348  0.75105763  1
  O  O391  1  0.87502987  0.24086558  0.23659737  1
  O  O392  1  0.87911089  0.24541882  0.74080055  1
  O  O393  1  0.87768781  0.73502970  0.24998703  1
  O  O394  1  0.88092037  0.74472308  0.74469486  1
  O  O395  1  0.38628864  0.48894579  0.50512915  1
  O  O396  1  0.38391369  0.49791162  0.99371572  1
  O  O397  1  0.36622298  0.97984495  0.49943101  1
  O  O398  1  0.38831346  0.99979626  1.00400000  1
  O  O399  1  0.88770060  0.49510443  0.50019894  1
  O  O400  1  0.88395691  0.49928346  0.99076538  1
  O  O401  1  0.87659173  0.99138656  0.49263610  1
  O  O402  1  0.88334098  0.99713723  0.99415487  1
  O  O403  1  0.11198254  0.00266156  0.00498993  1
  O  O404  1  0.12307668  0.00839848  0.50796768  1
  O  O405  1  0.11985544  0.49731421  0.01041692  1
  O  O406  1  0.11519260  0.49617081  0.51304541  1
  O  O407  1  0.61340050  -0.00071688  0.01296652  1
  O  O408  1  0.63354497  0.00782759  0.50758077  1
  O  O409  1  0.62071431  0.50191202  0.00736239  1
  O  O410  1  0.61121782  0.49725352  0.51202489  1
  O  O411  1  0.36610236  0.36737874  0.12581451  1
  O  O412  1  0.37023978  0.37031177  0.61820407  1
  O  O413  1  0.37712338  0.85853282  0.12494425  1
  O  O414  1  0.35840201  0.87391670  0.61632968  1
  O  O415  1  0.87840711  0.36215113  0.12995879  1
  O  O416  1  0.86456049  0.36855503  0.62612207  1
  O  O417  1  0.86752814  0.87379539  0.11347619  1
  O  O418  1  0.87161407  0.87045424  0.61798663  1
  O  O419  1  0.12883678  0.12216725  0.38766241  1
  O  O420  1  0.13709738  0.13320917  0.87160929  1
  O  O421  1  0.12408211  0.63736881  0.37433274  1
  O  O422  1  0.13764980  0.62124586  0.87457482  1
  O  O423  1  0.63338476  0.13262948  0.37961874  1
  O  O424  1  0.63841099  0.12903228  0.87020586  1
  O  O425  1  0.63423434  0.63822136  0.37216046  1
  O  O426  1  0.63623340  0.63084638  0.87475386  1
