# generated using pymatgen
data_V85Zn86O256
_symmetry_space_group_name_H-M   'P 1'
_cell_length_a   16.93084272
_cell_length_b   16.93311984
_cell_length_c   16.93247375
_cell_angle_alpha   89.99223940
_cell_angle_beta   89.93532663
_cell_angle_gamma   89.98778076
_symmetry_Int_Tables_number   1
_chemical_formula_structural   V85Zn86O256
_chemical_formula_sum   'V85 Zn86 O256'
_cell_volume   4854.40132364
_cell_formula_units_Z   1
loop_
 _symmetry_equiv_pos_site_id
 _symmetry_equiv_pos_as_xyz
  1  'x, y, z'
loop_
 _atom_site_type_symbol
 _atom_site_label
 _atom_site_symmetry_multiplicity
 _atom_site_fract_x
 _atom_site_fract_y
 _atom_site_fract_z
 _atom_site_occupancy
  V  V0  1  0.87760465  0.50393338  0.39596211  1
  V  V1  1  0.62374452  0.12981860  0.47877844  1
  V  V2  1  0.61694969  0.62604773  0.00446617  1
  V  V3  1  0.24393459  0.62199042  0.37773622  1
  V  V4  1  0.75391186  0.50024103  0.74748904  1
  V  V5  1  0.87554438  0.74535109  0.12211598  1
  V  V6  1  0.62536405  0.12519374  0.00125623  1
  V  V7  1  0.62465753  0.24992696  0.87484631  1
  V  V8  1  0.62217871  0.75271378  0.87720820  1
  V  V9  1  0.00147952  0.87242742  0.87457185  1
  V  V10  1  0.10906905  0.37501114  0.75271750  1
  V  V11  1  0.50136053  0.12549132  0.12318090  1
  V  V12  1  0.87620472  0.74541068  0.62848318  1
  V  V13  1  0.61998709  0.01406245  0.62517693  1
  V  V14  1  0.50592891  0.25144104  0.25443657  1
  V  V15  1  0.12328595  0.50300321  0.61359723  1
  V  V16  1  0.61929665  0.74824307  0.37423201  1
  V  V17  1  0.12431795  0.12809824  0.49896323  1
  V  V18  1  0.74918232  0.74810846  0.49773357  1
  V  V19  1  0.12107735  0.49389397  0.13386455  1
  V  V20  1  0.37823930  0.62096022  0.74698780  1
  V  V21  1  0.76247449  0.50748344  0.24559827  1
  V  V22  1  0.50004307  0.37381313  0.38416466  1
  V  V23  1  0.75454671  0.00110934  0.26046439  1
  V  V24  1  0.88176148  0.13731264  0.74688797  1
  V  V25  1  0.25222338  0.12556381  0.87461887  1
  V  V26  1  0.62343471  0.87634035  0.74933048  1
  V  V27  1  0.37567803  0.74328103  0.62263978  1
  V  V28  1  0.37647899  0.62228380  0.23850624  1
  V  V29  1  0.62871596  0.37600868  0.25377839  1
  V  V30  1  0.25358326  0.75092976  0.01945529  1
  V  V31  1  0.49657727  0.50878230  0.50537284  1
  V  V32  1  0.88491808  0.39186820  -0.01204393  1
  V  V33  1  0.62603367  0.00119124  0.12394993  1
  V  V34  1  -0.00484270  0.74779609  0.25107668  1
  V  V35  1  -0.00093600  0.38305690  0.37812474  1
  V  V36  1  0.12654623  0.61525083  0.00256565  1
  V  V37  1  0.00134045  0.87883828  0.37368606  1
  V  V38  1  0.75185874  0.87531760  0.12421622  1
  V  V39  1  0.24065302  0.74531423  0.50119660  1
  V  V40  1  0.87330323  0.88055759  0.49524518  1
  V  V41  1  0.74936214  0.87600007  0.62484998  1
  V  V42  1  0.74913018  0.62334902  0.87159255  1
  V  V43  1  0.86754994  0.24977269  0.12054111  1
  V  V44  1  -0.00593393  0.00567147  0.49700356  1
  V  V45  1  0.37495102  0.24912208  0.12399776  1
  V  V46  1  0.75337667  -0.00088117  0.74922128  1
  V  V47  1  0.36945516  0.87822897  0.01344831  1
  V  V48  1  0.00099092  0.74527196  0.75040051  1
  V  V49  1  0.13245742  0.74993339  0.87594220  1
  V  V50  1  0.48728376  0.88179427  0.87438437  1
  V  V51  1  0.62888235  0.37718879  0.74647643  1
  V  V52  1  0.25277015  0.25463149  0.49912248  1
  V  V53  1  0.12548602  0.25851805  0.36327439  1
  V  V54  1  0.24433874  0.24593230  -0.00263043  1
  V  V55  1  0.50205582  0.24762539  0.73965672  1
  V  V56  1  0.24928420  0.12562933  0.37471098  1
  V  V57  1  0.87181630  0.27103552  0.60816193  1
  V  V58  1  0.37898124  0.24871118  0.61976867  1
  V  V59  1  0.50152352  0.37339591  0.87819735  1
  V  V60  1  0.37340894  0.87285945  0.50033197  1
  V  V61  1  0.37457911  0.49752208  0.38045896  1
  V  V62  1  0.87447882  0.12447550  0.25989217  1
  V  V63  1  0.00424348  0.12557355  0.12242365  1
  V  V64  1  0.38049699  0.12134055  0.74866286  1
  V  V65  1  0.49970576  0.74730445  0.74404221  1
  V  V66  1  0.37460676  0.37268842  0.00058970  1
  V  V67  1  0.12784815  -0.00687850  0.12095268  1
  V  V68  1  0.37465403  0.49909179  0.87482600  1
  V  V69  1  0.61611838  0.50395740  0.12854738  1
  V  V70  1  0.87689059  -0.00250275  0.87431825  1
  V  V71  1  0.24332378  0.37095519  0.13269679  1
  V  V72  1  0.11377488  0.24959994  0.87198087  1
  V  V73  1  0.00509268  0.62540223  0.61013844  1
  V  V74  1  0.49552653  0.74694178  0.23610376  1
  V  V75  1  0.12418514  0.00218100  0.62497489  1
  V  V76  1  -0.00411038  0.61876773  0.12903365  1
  V  V77  1  0.37374449  -0.00203130  0.37623209  1
  V  V78  1  0.37485551  0.12395531  0.24934773  1
  V  V79  1  0.24954994  -0.01109683  0.24581815  1
  V  V80  1  0.00602850  0.00290602  -0.00228138  1
  V  V81  1  0.62060074  0.51158003  0.62694501  1
  V  V82  1  0.25223241  0.00049601  0.75253413  1
  V  V83  1  0.75124387  0.12375530  0.87736957  1
  V  V84  1  0.25214851  0.37329961  0.62838296  1
  Zn  Zn85  1  0.12682922  0.87517779  0.74897504  1
  Zn  Zn86  1  0.12732762  0.87001193  0.24757936  1
  Zn  Zn87  1  0.00456288  0.25804885  0.24373805  1
  Zn  Zn88  1  0.75196270  0.37938854  0.12116547  1
  Zn  Zn89  1  0.75218985  0.25428046  0.47840794  1
  Zn  Zn90  1  0.87716611  0.87257074  -0.00008933  1
  Zn  Zn91  1  0.49725190  0.87026745  0.37390000  1
  Zn  Zn92  1  0.25590842  0.62598473  0.87777051  1
  Zn  Zn93  1  0.91090331  0.57623357  0.79747961  1
  Zn  Zn94  1  0.75130727  0.74894468  0.00010893  1
  Zn  Zn95  1  0.49273456  0.00238745  -0.00391460  1
  Zn  Zn96  1  0.49689483  0.00000929  0.50550203  1
  Zn  Zn97  1  0.75454846  0.62863392  0.37034262  1
  Zn  Zn98  1  0.24966149  0.87481813  0.62685745  1
  Zn  Zn99  1  0.24842505  0.49449788  0.25375179  1
  Zn  Zn100  1  0.75263404  0.25697093  -0.00416162  1
  Zn  Zn101  1  -0.00148242  0.13493292  0.62706355  1
  Zn  Zn102  1  0.49573001  0.50611477  0.00611045  1
  Zn  Zn103  1  0.12008410  0.74347592  0.37743101  1
  Zn  Zn104  1  0.62379754  0.87289193  0.24952308  1
  Zn  Zn105  1  0.61990376  0.62904216  0.50331902  1
  Zn  Zn106  1  0.24961826  0.49882281  0.75056267  1
  Zn  Zn107  1  0.18773086  0.17861563  0.18455024  1
  Zn  Zn108  1  0.18588861  0.18853067  0.68975915  1
  Zn  Zn109  1  0.18304031  0.68260457  0.19410470  1
  Zn  Zn110  1  0.19080914  0.68381790  0.68909687  1
  Zn  Zn111  1  0.69146765  0.18753597  0.30406152  1
  Zn  Zn112  1  0.69587343  0.19108161  0.68819547  1
  Zn  Zn113  1  0.68558286  0.68657026  0.18735293  1
  Zn  Zn114  1  0.68734600  0.68652837  0.68784975  1
  Zn  Zn115  1  0.31841851  0.31195765  0.31382145  1
  Zn  Zn116  1  0.31247874  0.31075996  0.80945710  1
  Zn  Zn117  1  0.31344363  0.80649895  0.31258459  1
  Zn  Zn118  1  0.31210545  0.81327198  0.81161248  1
  Zn  Zn119  1  0.82210281  0.32148253  0.30759248  1
  Zn  Zn120  1  0.81359525  0.31596991  0.81477937  1
  Zn  Zn121  1  0.81454482  0.81419913  0.31113208  1
  Zn  Zn122  1  0.81335735  0.80947412  0.81291979  1
  Zn  Zn123  1  0.18751594  0.43260589  0.43757688  1
  Zn  Zn124  1  0.18730110  0.43191167  0.93763096  1
  Zn  Zn125  1  0.18634712  0.93554814  0.43802494  1
  Zn  Zn126  1  0.19005847  0.93649865  0.93719094  1
  Zn  Zn127  1  0.69382069  0.43896069  0.43497777  1
  Zn  Zn128  1  0.69251487  0.44046065  0.93984929  1
  Zn  Zn129  1  0.68284534  0.93558393  0.43851043  1
  Zn  Zn130  1  0.68659901  0.93571841  0.93947584  1
  Zn  Zn131  1  0.31072620  0.06136763  0.06065466  1
  Zn  Zn132  1  0.31242969  0.06621203  0.56489947  1
  Zn  Zn133  1  0.30786782  0.55757461  0.06251738  1
  Zn  Zn134  1  0.31132645  0.56067248  0.56158332  1
  Zn  Zn135  1  0.81597195  0.06161443  0.06418355  1
  Zn  Zn136  1  0.80610933  0.06914995  0.55910376  1
  Zn  Zn137  1  0.80712885  0.56549647  0.06143697  1
  Zn  Zn138  1  0.80789822  0.56521037  0.57010847  1
  Zn  Zn139  1  0.43552493  0.43589242  0.19031460  1
  Zn  Zn140  1  0.43975824  0.43196928  0.68520137  1
  Zn  Zn141  1  0.43907463  0.93527104  0.18783638  1
  Zn  Zn142  1  0.43608695  0.93552448  0.68617752  1
  Zn  Zn143  1  0.94208588  0.43119103  0.18640691  1
  Zn  Zn144  1  0.93955617  0.43688958  0.67497766  1
  Zn  Zn145  1  0.93686595  0.93798288  0.18688376  1
  Zn  Zn146  1  0.93905211  0.93650406  0.68563484  1
  Zn  Zn147  1  0.06249024  0.06393259  0.31055929  1
  Zn  Zn148  1  0.06506490  0.06571751  0.81320561  1
  Zn  Zn149  1  0.05918549  0.56031470  0.31142974  1
  Zn  Zn150  1  0.07355074  0.56087750  0.81480889  1
  Zn  Zn151  1  0.55669362  0.05407057  0.30723082  1
  Zn  Zn152  1  0.56268867  0.06172083  0.81165176  1
  Zn  Zn153  1  0.56238358  0.56429295  0.31443736  1
  Zn  Zn154  1  0.56121432  0.56315605  0.81507760  1
  Zn  Zn155  1  0.44357945  0.18447392  0.44101615  1
  Zn  Zn156  1  0.43594199  0.18658534  0.93423718  1
  Zn  Zn157  1  0.43272846  0.68431438  0.43244980  1
  Zn  Zn158  1  0.43564174  0.69169268  0.93771059  1
  Zn  Zn159  1  0.94138026  0.19457164  0.43572119  1
  Zn  Zn160  1  0.93660800  0.18521495  0.94010405  1
  Zn  Zn161  1  0.93372377  0.68810013  0.43583951  1
  Zn  Zn162  1  0.94898868  0.66359342  0.93389583  1
  Zn  Zn163  1  0.05874818  0.31308695  0.05550460  1
  Zn  Zn164  1  0.05881605  0.31295514  0.56230149  1
  Zn  Zn165  1  0.06275696  0.81127802  0.06167577  1
  Zn  Zn166  1  0.06146732  0.81748628  0.56301879  1
  Zn  Zn167  1  0.56684667  0.31256641  0.06575902  1
  Zn  Zn168  1  0.60571144  0.33418538  0.54226744  1
  Zn  Zn169  1  0.56046637  0.81609894  0.06120590  1
  Zn  Zn170  1  0.56115323  0.81614105  0.56268943  1
  O  O171  1  0.11139817  0.11292665  0.12908383  1
  O  O172  1  0.12128054  0.11850906  0.62087950  1
  O  O173  1  0.12244910  0.61322363  0.12174721  1
  O  O174  1  0.12291283  0.61022578  0.62967900  1
  O  O175  1  0.61784932  0.11587080  0.11541877  1
  O  O176  1  0.62747115  0.11444929  0.63094719  1
  O  O177  1  0.62600006  0.61759159  0.11650813  1
  O  O178  1  0.61859065  0.61662569  0.62665862  1
  O  O179  1  0.38424844  0.38887651  0.36869653  1
  O  O180  1  0.38208910  0.37827446  0.87837423  1
  O  O181  1  0.37194733  0.88013187  0.38351856  1
  O  O182  1  0.38365294  0.86813631  0.88298133  1
  O  O183  1  0.88549280  0.39344513  0.37301299  1
  O  O184  1  0.87379671  0.37593630  0.88828964  1
  O  O185  1  0.88469640  0.87186067  0.38736795  1
  O  O186  1  0.88275428  0.87895203  0.87630573  1
  O  O187  1  0.25761813  0.00323219  0.36955743  1
  O  O188  1  0.24251830  0.01024486  0.86227950  1
  O  O189  1  0.25669810  0.50203401  0.37543900  1
  O  O190  1  0.26406143  0.49648941  0.87406829  1
  O  O191  1  0.74610109  -0.00973639  0.35938957  1
  O  O192  1  0.75469964  0.00437162  0.87047817  1
  O  O193  1  0.76318834  0.50153712  0.36585148  1
  O  O194  1  0.74295943  0.51281592  0.86401038  1
  O  O195  1  0.24198718  0.48670815  0.12635576  1
  O  O196  1  0.24209552  0.49115561  0.62679304  1
  O  O197  1  0.24071554  1.00705016  0.13431555  1
  O  O198  1  0.24248534  1.00266403  0.63485269  1
  O  O199  1  0.73960389  0.50188433  0.13496258  1
  O  O200  1  0.73481785  0.50611493  0.63558942  1
  O  O201  1  0.74439433  0.99344416  0.12878381  1
  O  O202  1  0.74081231  0.99525005  0.62943234  1
  O  O203  1  -0.00084237  0.37257146  0.26555763  1
  O  O204  1  0.01048314  0.37985032  0.74863546  1
  O  O205  1  -0.00116835  0.87100061  0.25959041  1
  O  O206  1  0.00414933  0.86443150  0.75503519  1
  O  O207  1  0.50547373  0.36812118  0.25605605  1
  O  O208  1  0.50410671  0.36679159  0.76232056  1
  O  O209  1  0.49832276  0.85887233  0.25127172  1
  O  O210  1  0.50151337  0.86826847  0.75740779  1
  O  O211  1  0.49443419  0.13210616  0.24494688  1
  O  O212  1  0.49051224  0.13347010  0.75768686  1
  O  O213  1  0.48639217  0.63276159  0.25449226  1
  O  O214  1  0.48835880  0.63425574  0.75614857  1
  O  O215  1  0.99036032  0.12366539  0.24009544  1
  O  O216  1  0.98477446  0.12036831  0.74939022  1
  O  O217  1  1.00355279  0.63343720  0.23874404  1
  O  O218  1  1.00096239  0.63820779  0.73567951  1
  O  O219  1  0.36828781  0.25402816  0.00487243  1
  O  O220  1  0.36748427  0.24326029  0.50829641  1
  O  O221  1  0.36031812  0.75590615  -0.00085030  1
  O  O222  1  0.36985792  0.75438800  0.50614542  1
  O  O223  1  0.87479347  0.25149236  0.00951025  1
  O  O224  1  0.86874825  0.24703652  0.50583738  1
  O  O225  1  0.87587055  0.74969039  0.01290623  1
  O  O226  1  0.86721098  0.75906036  0.50584330  1
  O  O227  1  0.13307601  0.24500277  0.49344838  1
  O  O228  1  0.13268937  0.25546487  0.98352903  1
  O  O229  1  0.13763933  0.75592792  0.50071288  1
  O  O230  1  0.13785555  0.74616235  0.99584094  1
  O  O231  1  0.61134501  0.22810930  0.49622550  1
  O  O232  1  0.62821296  0.24285188  0.99379546  1
  O  O233  1  0.63071512  0.75161721  0.49440038  1
  O  O234  1  0.62364542  0.74608860  0.99212229  1
  O  O235  1  0.49550674  0.24570661  0.13284173  1
  O  O236  1  0.49407940  0.25661952  0.63765197  1
  O  O237  1  0.50355505  0.74827529  0.13747085  1
  O  O238  1  0.49309458  0.75483816  0.63654632  1
  O  O239  1  0.99688217  0.24043513  0.12385469  1
  O  O240  1  0.98027369  0.25053874  0.62085245  1
  O  O241  1  0.99336241  0.74658089  0.13254833  1
  O  O242  1  0.99595232  0.74877815  0.63077139  1
  O  O243  1  0.01025246  0.25901594  0.36954245  1
  O  O244  1  0.01541506  0.24086746  0.87727185  1
  O  O245  1  -0.00102191  0.75682979  0.36845279  1
  O  O246  1  0.01164783  0.75020917  0.86843886  1
  O  O247  1  0.48893010  0.26088401  0.36549990  1
  O  O248  1  0.50547643  0.25591220  0.86730357  1
  O  O249  1  0.50511283  0.74933741  0.36850439  1
  O  O250  1  0.50665406  0.75749808  0.86602275  1
  O  O251  1  0.24561968  0.13492670  0.49440193  1
  O  O252  1  0.25484230  0.13657434  0.99071482  1
  O  O253  1  0.25599527  0.63383249  0.49151192  1
  O  O254  1  0.24620318  0.63711236  1.00220002  1
  O  O255  1  0.72976170  0.12985260  0.50022808  1
  O  O256  1  0.74749309  0.12269015  0.98824197  1
  O  O257  1  0.74759095  0.64022342  0.50061893  1
  O  O258  1  0.73551835  0.62855510  0.99127133  1
  O  O259  1  0.25521758  0.36250102  0.00667029  1
  O  O260  1  0.24550864  0.36206011  0.51231075  1
  O  O261  1  0.26009622  0.86422419  -0.00193057  1
  O  O262  1  0.25965205  0.86751442  0.50185763  1
  O  O263  1  0.75961714  0.37383193  0.00365013  1
  O  O264  1  0.71152724  0.35798184  0.50654003  1
  O  O265  1  0.75187455  0.87166852  0.01160461  1
  O  O266  1  0.75526619  0.86770477  0.50346144  1
  O  O267  1  0.12977823  0.50119127  0.23775061  1
  O  O268  1  0.12940061  0.48814487  0.74730640  1
  O  O269  1  0.13384935  0.99755751  0.24402929  1
  O  O270  1  0.13159394  1.00150528  0.74136949  1
  O  O271  1  0.62979806  0.49647262  0.24498636  1
  O  O272  1  0.62697246  0.49559020  0.74640588  1
  O  O273  1  0.63205123  0.99744370  0.23779357  1
  O  O274  1  0.63114485  0.99657138  0.74128894  1
  O  O275  1  0.36853917  0.00258838  0.25533482  1
  O  O276  1  0.36774599  0.01088720  0.74198838  1
  O  O277  1  0.37371644  0.50930259  0.25707091  1
  O  O278  1  0.37728080  0.50523801  0.75532949  1
  O  O279  1  0.86845935  0.01403308  0.24265777  1
  O  O280  1  0.87026930  0.00234203  0.75614837  1
  O  O281  1  0.86228738  0.49878309  0.24369240  1
  O  O282  1  0.86037955  0.49760762  0.73616183  1
  O  O283  1  0.11939517  0.36877570  0.37233086  1
  O  O284  1  0.12812526  0.36562447  0.86203553  1
  O  O285  1  0.11170381  0.87173717  0.37560569  1
  O  O286  1  0.11994625  0.86615599  0.87365693  1
  O  O287  1  0.61404615  0.38619926  0.35926136  1
  O  O288  1  0.61775787  0.37220050  0.86965675  1
  O  O289  1  0.62098043  0.86232529  0.37193091  1
  O  O290  1  0.61692052  0.86913301  0.86982888  1
  O  O291  1  0.38074833  0.12923552  0.12869411  1
  O  O292  1  0.37321329  0.13775487  0.63426787  1
  O  O293  1  0.37167211  0.61639987  0.13952375  1
  O  O294  1  0.37324867  0.63502427  0.63110939  1
  O  O295  1  0.88499822  0.13312356  0.12654944  1
  O  O296  1  0.87393963  0.12121498  0.64119163  1
  O  O297  1  0.88345820  0.63190339  0.12100512  1
  O  O298  1  0.88432475  0.63842390  0.61942980  1
  O  O299  1  0.25111888  0.25100196  0.11656555  1
  O  O300  1  0.25554770  0.25403291  0.61889761  1
  O  O301  1  0.24404185  0.74999513  0.11739425  1
  O  O302  1  0.25745902  0.75031514  0.61891160  1
  O  O303  1  0.76636947  0.24761511  0.12164379  1
  O  O304  1  0.77233727  0.24743486  0.62830174  1
  O  O305  1  0.75713722  0.75665177  0.12678186  1
  O  O306  1  0.75694408  0.75504794  0.62024189  1
  O  O307  1  0.24627628  0.24954946  0.38174606  1
  O  O308  1  0.24493226  0.24580559  0.88034164  1
  O  O309  1  0.24831335  0.74028983  0.38326204  1
  O  O310  1  0.24063827  0.75027730  0.87839707  1
  O  O311  1  0.75570264  0.25388799  0.36448198  1
  O  O312  1  0.74302995  0.23981282  0.87428251  1
  O  O313  1  0.74428973  0.75087143  0.38137665  1
  O  O314  1  0.73292795  0.75026299  0.87369723  1
  O  O315  1  -0.00210608  0.11103409  0.00577316  1
  O  O316  1  0.00460434  0.11969728  0.50132219  1
  O  O317  1  0.01828751  0.63855363  0.02155091  1
  O  O318  1  0.00562840  0.63861782  0.51104419  1
  O  O319  1  0.50424048  0.12290287  0.00292946  1
  O  O320  1  0.51486281  0.11290311  0.49461573  1
  O  O321  1  0.51170328  0.62484442  -0.00757832  1
  O  O322  1  0.49904553  0.61298323  0.49544477  1
  O  O323  1  0.51075236  0.38250376  0.48692939  1
  O  O324  1  0.49632719  0.37229318  0.98961918  1
  O  O325  1  0.48580577  0.87810058  0.49841292  1
  O  O326  1  0.48527016  0.87345996  0.99329333  1
  O  O327  1  1.00602439  0.37128765  0.47910275  1
  O  O328  1  0.98469965  0.37792824  1.00064254  1
  O  O329  1  0.99188626  0.88289710  0.49462202  1
  O  O330  1  1.00008200  0.88361209  0.99250999  1
  O  O331  1  0.49297293  0.49559767  0.38191476  1
  O  O332  1  0.49028151  0.49066352  0.87711614  1
  O  O333  1  0.48361373  0.99244154  0.37177937  1
  O  O334  1  0.50515389  0.98618281  0.87679866  1
  O  O335  1  0.98866370  0.49657021  0.37527997  1
  O  O336  1  0.98465626  0.56305143  0.88008008  1
  O  O337  1  1.00529760  0.99454168  0.38824808  1
  O  O338  1  0.99924746  0.99532720  0.88015224  1
  O  O339  1  0.00491756  0.00445595  0.11644919  1
  O  O340  1  0.00719529  0.00151754  0.61361425  1
  O  O341  1  0.00766885  0.50697120  0.12853160  1
  O  O342  1  0.01370420  0.50982337  0.62597105  1
  O  O343  1  0.50851432  0.00493421  0.12443423  1
  O  O344  1  0.51652716  -0.00594808  0.62661410  1
  O  O345  1  0.51136358  0.49399137  0.12483347  1
  O  O346  1  0.50322793  0.49599406  0.61500758  1
  O  O347  1  0.25524985  0.37099478  0.23583262  1
  O  O348  1  0.24400260  0.37356787  0.73805893  1
  O  O349  1  0.24970672  0.88516282  0.25558176  1
  O  O350  1  0.24929131  0.88612623  0.74819291  1
  O  O351  1  0.74341752  0.38876302  0.24532970  1
  O  O352  1  0.73879938  0.38560295  0.75869031  1
  O  O353  1  0.75028261  0.88110385  0.23869568  1
  O  O354  1  0.74407703  0.87998306  0.74564985  1
  O  O355  1  0.25720500  0.11573354  0.25651857  1
  O  O356  1  0.25873789  0.12095234  0.75434500  1
  O  O357  1  0.26211519  0.62385080  0.25732341  1
  O  O358  1  0.26509607  0.62130301  0.75380779  1
  O  O359  1  0.76515328  0.11617521  0.24673386  1
  O  O360  1  0.75858032  0.11907090  0.76095283  1
  O  O361  1  0.74574950  0.61133121  0.25217110  1
  O  O362  1  0.74330721  0.61544800  0.75773333  1
  O  O363  1  0.36974011  0.11656262  0.37073440  1
  O  O364  1  0.36190258  0.13008494  0.86407946  1
  O  O365  1  0.36540800  0.61343750  0.36795553  1
  O  O366  1  0.37576917  0.61578363  0.86961100  1
  O  O367  1  0.88439291  0.12835315  0.35801137  1
  O  O368  1  0.86943041  0.11952106  0.86628890  1
  O  O369  1  0.87390364  0.60971919  0.37746821  1
  O  O370  1  0.85027831  0.64875566  0.87247270  1
  O  O371  1  0.13185993  0.38110180  0.11659386  1
  O  O372  1  0.12757067  0.38190304  0.63478119  1
  O  O373  1  0.11881644  0.88851484  0.12843142  1
  O  O374  1  0.12789586  0.88998375  0.62542094  1
  O  O375  1  0.62753199  0.38217013  0.13622644  1
  O  O376  1  0.61285741  0.38812115  0.64413407  1
  O  O377  1  0.63203759  0.88225843  0.12563831  1
  O  O378  1  0.63154148  0.88109249  0.63104109  1
  O  O379  1  0.12796520  0.24247934  0.26087292  1
  O  O380  1  0.12648224  0.26327579  0.75795124  1
  O  O381  1  0.11132189  0.75264234  0.25247903  1
  O  O382  1  0.12141384  0.74992077  0.75787344  1
  O  O383  1  0.61321750  0.25810442  0.24927035  1
  O  O384  1  0.62077976  0.25672436  0.75382400  1
  O  O385  1  0.61208345  0.74780029  0.25568849  1
  O  O386  1  0.61603815  0.75535109  0.75424263  1
  O  O387  1  0.38295080  0.24395305  0.24278137  1
  O  O388  1  0.38266095  0.24198388  0.74444000  1
  O  O389  1  0.38524044  0.73708943  0.25261355  1
  O  O390  1  0.37993496  0.74366350  0.74271202  1
  O  O391  1  0.88007579  0.23996067  0.23591786  1
  O  O392  1  0.87387705  0.23861739  0.75075346  1
  O  O393  1  0.88640399  0.75441884  0.24002731  1
  O  O394  1  0.88497063  0.75646102  0.73882818  1
  O  O395  1  0.38234658  0.49968918  0.49313137  1
  O  O396  1  0.37664257  0.49246023  0.99330258  1
  O  O397  1  0.37182220  0.99271326  0.49437208  1
  O  O398  1  0.37214976  0.98390584  1.00061115  1
  O  O399  1  0.86811277  0.50160572  0.49408143  1
  O  O400  1  0.87025813  0.49059851  1.00426849  1
  O  O401  1  0.88115625  0.99378087  0.50645281  1
  O  O402  1  0.88416905  0.99763569  0.99118420  1
  O  O403  1  0.11938493  -0.00276928  0.00647875  1
  O  O404  1  0.12071501  0.00744691  0.50635872  1
  O  O405  1  0.13468793  0.51099659  0.00525458  1
  O  O406  1  0.12933957  0.49559768  0.51551974  1
  O  O407  1  0.62265203  0.00399295  0.00963389  1
  O  O408  1  0.62593272  0.00762854  0.51108329  1
  O  O409  1  0.62254321  0.50765243  0.00952800  1
  O  O410  1  0.61702538  0.50594918  0.50992634  1
  O  O411  1  0.36803685  0.36819961  0.11932879  1
  O  O412  1  0.36592599  0.36034299  0.63074391  1
  O  O413  1  0.37675434  0.87336317  0.11223151  1
  O  O414  1  0.37240158  0.86310827  0.61868892  1
  O  O415  1  0.87566309  0.36079159  0.12017337  1
  O  O416  1  0.87319226  0.37036350  0.61293431  1
  O  O417  1  0.86803083  0.86811155  0.12264231  1
  O  O418  1  0.87073821  0.86783691  0.61488620  1
  O  O419  1  0.13161091  0.13236074  0.37959232  1
  O  O420  1  0.13838338  0.14095028  0.86357956  1
  O  O421  1  0.13917571  0.62260484  0.36847500  1
  O  O422  1  0.13631255  0.63269424  0.88588353  1
  O  O423  1  0.62495830  0.11873180  0.37388061  1
  O  O424  1  0.63298605  0.12720046  0.87964369  1
  O  O425  1  0.62907611  0.63707987  0.37853592  1
  O  O426  1  0.62853939  0.63499004  0.87945540  1
