# generated using pymatgen
data_V85Zn86O256
_symmetry_space_group_name_H-M   'P 1'
_cell_length_a   16.94467081
_cell_length_b   16.94606394
_cell_length_c   16.95784260
_cell_angle_alpha   89.95567685
_cell_angle_beta   89.97574663
_cell_angle_gamma   90.09592302
_symmetry_Int_Tables_number   1
_chemical_formula_structural   V85Zn86O256
_chemical_formula_sum   'V85 Zn86 O256'
_cell_volume   4869.35904897
_cell_formula_units_Z   1
loop_
 _symmetry_equiv_pos_site_id
 _symmetry_equiv_pos_as_xyz
  1  'x, y, z'
loop_
 _atom_site_type_symbol
 _atom_site_label
 _atom_site_symmetry_multiplicity
 _atom_site_fract_x
 _atom_site_fract_y
 _atom_site_fract_z
 _atom_site_occupancy
  V  V0  1  0.12663871  0.37076354  0.25079039  1
  V  V1  1  0.12160588  0.75048881  0.37382634  1
  V  V2  1  0.37300386  -0.00224170  0.87516108  1
  V  V3  1  0.12135988  0.12582143  0.00200150  1
  V  V4  1  0.75289833  0.61941743  0.37207333  1
  V  V5  1  0.49530179  0.62442453  0.13052422  1
  V  V6  1  0.49570601  0.00408980  0.49941374  1
  V  V7  1  0.61996784  0.25128670  0.86230266  1
  V  V8  1  0.74904950  0.37594319  0.12962550  1
  V  V9  1  0.62881660  0.25842450  0.36915212  1
  V  V10  1  0.37436443  0.24799415  0.12699028  1
  V  V11  1  0.38147371  0.63181552  0.74947146  1
  V  V12  1  0.43257709  0.69321103  0.57426866  1
  V  V13  1  0.62576643  0.62167738  0.00259580  1
  V  V14  1  0.75133960  0.75332912  0.49726089  1
  V  V15  1  0.24953145  0.62367868  0.37059230  1
  V  V16  1  0.37429444  0.88039520  0.50102592  1
  V  V17  1  -0.00248009  0.62346373  0.62212486  1
  V  V18  1  0.12443944  0.75012296  0.87678495  1
  V  V19  1  -0.05751476  0.44137839  0.55262206  1
  V  V20  1  0.62850808  0.75594866  0.36906384  1
  V  V21  1  0.24881745  0.37424835  0.12534751  1
  V  V22  1  0.62359160  0.00282500  0.62569455  1
  V  V23  1  0.12582263  0.49423475  0.62299690  1
  V  V24  1  -0.01798224  0.24440606  0.75717516  1
  V  V25  1  0.12898896  0.00021632  0.13396708  1
  V  V26  1  0.75879814  0.00547750  0.74769949  1
  V  V27  1  0.87418585  -0.00710401  0.88382933  1
  V  V28  1  -0.00035222  0.38518904  0.37388290  1
  V  V29  1  0.86733145  0.62148373  0.74874796  1
  V  V30  1  0.49738320  0.14112812  0.62711039  1
  V  V31  1  0.87466140  0.75236952  0.62347444  1
  V  V32  1  0.12844040  0.24720120  0.38310921  1
  V  V33  1  -0.00084830  0.74950990  0.74863251  1
  V  V34  1  0.37632294  0.37469463  -0.00027519  1
  V  V35  1  0.38130141  0.50136318  0.37786814  1
  V  V36  1  0.25464331  0.50067535  0.24976935  1
  V  V37  1  0.87681147  0.49722121  0.87973265  1
  V  V38  1  0.76173920  0.00318456  0.24579242  1
  V  V39  1  0.62668106  0.87895432  0.24492089  1
  V  V40  1  0.49613638  0.88503835  0.37015037  1
  V  V41  1  0.75532726  0.12641798  0.36841237  1
  V  V42  1  0.11801167  0.62035251  0.49814658  1
  V  V43  1  0.24504685  0.24893912  -0.00316018  1
  V  V44  1  0.62498581  0.87715772  0.75224188  1
  V  V45  1  0.87273864  0.60772111  0.24743992  1
  V  V46  1  0.26119505  0.36842174  0.62445128  1
  V  V47  1  0.12739492  0.00881310  0.62395437  1
  V  V48  1  0.49920688  0.25945842  0.25002867  1
  V  V49  1  0.49834171  -0.00068423  -0.00097013  1
  V  V50  1  0.74677657  0.61684891  0.87262768  1
  V  V51  1  0.25336175  0.11313396  0.37662418  1
  V  V52  1  0.25525042  0.88056974  0.12917979  1
  V  V53  1  0.86546554  0.24321276  0.12441881  1
  V  V54  1  0.63010477  0.49713461  0.14127588  1
  V  V55  1  0.24557052  0.12458095  0.87531659  1
  V  V56  1  0.25064039  0.62727642  0.87635675  1
  V  V57  1  0.37923696  0.13732560  0.74848179  1
  V  V58  1  -0.00346478  0.12558891  0.13594991  1
  V  V59  1  0.49964894  0.12527714  0.12654078  1
  V  V60  1  0.25885089  0.24628598  0.50072642  1
  V  V61  1  0.75751536  0.13166071  0.87668285  1
  V  V62  1  0.25299017  0.86899863  0.62609904  1
  V  V63  1  0.00473894  0.01059635  0.50004058  1
  V  V64  1  0.62833906  0.12943052  0.49663256  1
  V  V65  1  0.12946518  0.36023094  0.75561689  1
  V  V66  1  0.76281558  0.75273574  0.00034728  1
  V  V67  1  0.37347303  0.74882733  0.13224412  1
  V  V68  1  0.25061477  0.49995511  0.74921086  1
  V  V69  1  0.37786016  0.49967570  0.87424200  1
  V  V70  1  0.76547726  0.87212944  0.11869365  1
  V  V71  1  0.39026885  0.37658918  0.50349036  1
  V  V72  1  0.62438302  0.75040887  0.87617543  1
  V  V73  1  -0.01011745  0.75417727  0.24422284  1
  V  V74  1  0.12302932  0.87682789  0.74957355  1
  V  V75  1  0.25670391  0.75704978  0.00081955  1
  V  V76  1  0.49610168  0.87428438  0.87896036  1
  V  V77  1  0.62843399  0.39813773  0.73917304  1
  V  V78  1  -0.01271979  0.12846029  0.63070977  1
  V  V79  1  0.61732375  0.51917519  0.61120296  1
  V  V80  1  0.87687044  0.88662490  0.49807423  1
  V  V81  1  0.62776013  0.13701488  -0.00017396  1
  V  V82  1  0.75052670  0.88071569  0.62493775  1
  V  V83  1  0.37318540  0.11177946  0.25408319  1
  V  V84  1  0.62687215  -0.00087848  0.12174499  1
  Zn  Zn85  1  -0.00965761  0.86879332  0.88217740  1
  Zn  Zn86  1  0.49982977  0.75268727  0.24531355  1
  Zn  Zn87  1  0.25163279  0.00041715  0.74986862  1
  Zn  Zn88  1  0.50291341  0.38160618  0.37466850  1
  Zn  Zn89  1  0.00810437  0.36888747  0.88242810  1
  Zn  Zn90  1  0.50193787  0.49815282  0.00214228  1
  Zn  Zn91  1  -0.00252494  -0.00744248  0.00621587  1
  Zn  Zn92  1  -0.00740946  0.24731610  0.25582211  1
  Zn  Zn93  1  0.00301538  0.49736614  0.00463935  1
  Zn  Zn94  1  0.00254998  0.87949641  0.37547932  1
  Zn  Zn95  1  0.12272424  0.62297663  0.00660114  1
  Zn  Zn96  1  0.49561071  0.75453371  0.74678337  1
  Zn  Zn97  1  0.83101409  0.44995751  0.41073198  1
  Zn  Zn98  1  0.12979893  0.87796037  0.25400091  1
  Zn  Zn99  1  0.12126172  0.50123531  0.12474009  1
  Zn  Zn100  1  0.60847273  0.63320725  0.49601453  1
  Zn  Zn101  1  0.87260911  0.36585917  -0.00246644  1
  Zn  Zn102  1  0.88319873  0.01012984  0.37003068  1
  Zn  Zn103  1  0.49893277  0.36718145  0.87013228  1
  Zn  Zn104  1  0.24839372  0.74763911  0.50141072  1
  Zn  Zn105  1  -0.00274945  0.62410312  0.12191782  1
  Zn  Zn106  1  0.79076835  0.29448941  0.53823944  1
  Zn  Zn107  1  0.18836627  0.18590134  0.19179319  1
  Zn  Zn108  1  0.19277253  0.18545333  0.68620461  1
  Zn  Zn109  1  0.18419972  0.68824855  0.18846238  1
  Zn  Zn110  1  0.18776165  0.68648012  0.68784128  1
  Zn  Zn111  1  0.68718470  0.18902732  0.18835558  1
  Zn  Zn112  1  0.69528523  0.18621901  0.68867636  1
  Zn  Zn113  1  0.69359938  0.68755778  0.18520840  1
  Zn  Zn114  1  0.68335553  0.68774650  0.68597223  1
  Zn  Zn115  1  0.31649697  0.31143400  0.31577780  1
  Zn  Zn116  1  0.31071969  0.31096937  0.81542050  1
  Zn  Zn117  1  0.31086049  0.81347112  0.31233573  1
  Zn  Zn118  1  0.31337726  0.81410713  0.81115030  1
  Zn  Zn119  1  0.81182469  0.30903024  0.30222123  1
  Zn  Zn120  1  0.80304312  0.31481745  0.81262446  1
  Zn  Zn121  1  0.81435771  0.81930276  0.31205051  1
  Zn  Zn122  1  0.80920544  0.81040532  0.81319422  1
  Zn  Zn123  1  0.19021109  0.43436658  0.43938086  1
  Zn  Zn124  1  0.18778155  0.43963831  0.93821725  1
  Zn  Zn125  1  0.18611540  0.93588111  0.44138629  1
  Zn  Zn126  1  0.18268522  0.93681994  0.94338034  1
  Zn  Zn127  1  0.67129335  0.43533040  0.45338756  1
  Zn  Zn128  1  0.69028970  0.43218002  0.94347156  1
  Zn  Zn129  1  0.68752574  0.94449635  0.43456271  1
  Zn  Zn130  1  0.68785762  0.94024728  0.93829770  1
  Zn  Zn131  1  0.31402203  0.06093819  0.06185880  1
  Zn  Zn132  1  0.31427275  0.06272416  0.56384328  1
  Zn  Zn133  1  0.31009384  0.56361539  0.06247128  1
  Zn  Zn134  1  0.30573832  0.55616152  0.55617229  1
  Zn  Zn135  1  0.81209923  0.06537489  0.06011326  1
  Zn  Zn136  1  0.82968117  0.10478635  0.54556221  1
  Zn  Zn137  1  0.81195942  0.56215659  0.06416536  1
  Zn  Zn138  1  0.79910355  0.56480131  0.56542485  1
  Zn  Zn139  1  0.43605312  0.44152382  0.18699383  1
  Zn  Zn140  1  0.44775205  0.43718689  0.68897205  1
  Zn  Zn141  1  0.43503080  0.93474950  0.18250830  1
  Zn  Zn142  1  0.43649565  0.94234241  0.68867768  1
  Zn  Zn143  1  0.93759390  0.43217686  0.18596584  1
  Zn  Zn144  1  0.93334130  0.43091576  0.71690600  1
  Zn  Zn145  1  0.94271902  0.93575622  0.18611686  1
  Zn  Zn146  1  0.93871669  0.94178234  0.68842128  1
  Zn  Zn147  1  0.06961600  0.06506728  0.31527908  1
  Zn  Zn148  1  0.06112483  0.06345807  0.81373717  1
  Zn  Zn149  1  0.06145695  0.56184411  0.30598203  1
  Zn  Zn150  1  0.06089389  0.56121987  0.81146887  1
  Zn  Zn151  1  0.56487078  0.06531044  0.30881238  1
  Zn  Zn152  1  0.56372502  0.06609278  0.81141779  1
  Zn  Zn153  1  0.56324618  0.56890389  0.31304714  1
  Zn  Zn154  1  0.55814333  0.56280597  0.81215382  1
  Zn  Zn155  1  0.43797920  0.19031438  0.43608051  1
  Zn  Zn156  1  0.43679923  0.18568113  0.93732562  1
  Zn  Zn157  1  0.43070963  0.69729837  0.40921470  1
  Zn  Zn158  1  0.43809987  0.68814940  0.94252594  1
  Zn  Zn159  1  0.93812618  0.19921714  0.44084756  1
  Zn  Zn160  1  0.93794376  0.18518632  0.94110467  1
  Zn  Zn161  1  0.93596345  0.68724003  0.43364561  1
  Zn  Zn162  1  0.93943014  0.68261022  0.93763546  1
  Zn  Zn163  1  0.05678128  0.31195210  0.06368832  1
  Zn  Zn164  1  0.06897458  0.30174524  0.56796254  1
  Zn  Zn165  1  0.06535931  0.81354223  0.06259961  1
  Zn  Zn166  1  0.06224796  0.81512365  0.56067077  1
  Zn  Zn167  1  0.56247927  0.31544508  0.06301418  1
  Zn  Zn168  1  0.60507472  0.29778713  0.58060856  1
  Zn  Zn169  1  0.56530385  0.81097597  0.06006000  1
  Zn  Zn170  1  0.56815155  0.82122448  0.55694911  1
  O  O171  1  0.12069325  0.12026135  0.12154208  1
  O  O172  1  0.12225160  0.11151058  0.63231941  1
  O  O173  1  0.12129667  0.62078326  0.12597527  1
  O  O174  1  0.11842329  0.61555014  0.62022098  1
  O  O175  1  0.62043128  0.11947826  0.11748280  1
  O  O176  1  0.61633320  0.11794023  0.61462017  1
  O  O177  1  0.62228045  0.61602777  0.12006255  1
  O  O178  1  0.62010372  0.62831856  0.61390326  1
  O  O179  1  0.37802933  0.38353198  0.38444360  1
  O  O180  1  0.37488293  0.38251325  0.88084885  1
  O  O181  1  0.38320541  0.86690119  0.38810643  1
  O  O182  1  0.38355339  0.88442526  0.87239213  1
  O  O183  1  0.89070134  0.36623870  0.36477689  1
  O  O184  1  0.87162763  0.38503063  0.87256955  1
  O  O185  1  0.87637024  0.88237054  0.38874386  1
  O  O186  1  0.87182132  0.88834460  0.87186695  1
  O  O187  1  0.24628647  0.01434863  0.38178420  1
  O  O188  1  0.25817823  0.00520755  0.87909871  1
  O  O189  1  0.25619811  0.50480861  0.37028457  1
  O  O190  1  0.25908360  0.50827405  0.86941268  1
  O  O191  1  0.75126579  0.00766676  0.36209476  1
  O  O192  1  0.75817307  0.00563199  0.86963939  1
  O  O193  1  0.73984486  0.51800249  0.38265152  1
  O  O194  1  0.75392950  0.51327029  0.88081938  1
  O  O195  1  0.25091681  0.49245017  0.13420201  1
  O  O196  1  0.24300038  0.49161711  0.63115601  1
  O  O197  1  0.24560984  0.99100991  0.12012077  1
  O  O198  1  0.24307111  0.98990083  0.62458458  1
  O  O199  1  0.73602752  0.49691206  0.12500730  1
  O  O200  1  0.72140053  0.51167387  0.62464383  1
  O  O201  1  0.74609927  0.99434791  0.12792342  1
  O  O202  1  0.74282743  0.99741859  0.63407957  1
  O  O203  1  0.01166079  0.37036257  0.25781162  1
  O  O204  1  0.01322694  0.35833218  0.75204849  1
  O  O205  1  0.00432820  0.86507341  0.25391479  1
  O  O206  1  0.00774424  0.86907479  0.75336334  1
  O  O207  1  0.49283777  0.36269955  0.24988153  1
  O  O208  1  0.52047605  0.37853318  0.75682816  1
  O  O209  1  0.50578057  0.87693735  0.25519974  1
  O  O210  1  0.50534884  0.87763067  0.76140347  1
  O  O211  1  0.49294871  0.13193203  0.24357057  1
  O  O212  1  0.49188634  0.11947551  0.73917528  1
  O  O213  1  0.50540195  0.63249977  0.23504931  1
  O  O214  1  0.48557075  0.63203157  0.75606302  1
  O  O215  1  1.00638691  0.12652968  0.23943691  1
  O  O216  1  1.00498426  0.13900824  0.74764026  1
  O  O217  1  0.98560379  0.63488098  0.25469720  1
  O  O218  1  0.99117331  0.62983933  0.74171735  1
  O  O219  1  0.36837157  0.25538864  0.00566096  1
  O  O220  1  0.36613269  0.26011617  0.49530650  1
  O  O221  1  0.36221640  0.74630677  0.00788483  1
  O  O222  1  0.37558818  0.75329640  0.50744886  1
  O  O223  1  0.87929722  0.24726635  0.01752972  1
  O  O224  1  0.86718366  0.21471950  0.52316784  1
  O  O225  1  0.86175951  0.74898959  -0.00954415  1
  O  O226  1  0.87003144  0.76170041  0.50419124  1
  O  O227  1  0.13980129  0.25410658  0.49053175  1
  O  O228  1  0.13269726  0.23720307  1.00668318  1
  O  O229  1  0.12326984  0.74228773  0.48977269  1
  O  O230  1  0.13701751  0.74657504  0.99028736  1
  O  O231  1  0.61305389  0.23828697  0.47786486  1
  O  O232  1  0.62125505  0.23948337  0.99763885  1
  O  O233  1  0.63355098  0.75620179  0.48681327  1
  O  O234  1  0.62950715  0.73774072  0.99436448  1
  O  O235  1  0.49583476  0.24498739  0.13091442  1
  O  O236  1  0.50840826  0.23925546  0.61889089  1
  O  O237  1  0.49097819  0.74492165  0.12189250  1
  O  O238  1  0.49678586  0.75551676  0.62449831  1
  O  O239  1  0.99229477  0.24046210  0.12984169  1
  O  O240  1  1.00758971  0.23862158  0.64040228  1
  O  O241  1  1.00750014  0.74881410  0.14211380  1
  O  O242  1  0.99370313  0.74541816  0.62863185  1
  O  O243  1  0.01231646  0.25440396  0.37625752  1
  O  O244  1  -0.00340749  0.24863319  0.86210049  1
  O  O245  1  0.00641111  0.75379895  0.36795409  1
  O  O246  1  0.00911570  0.74907111  0.86717496  1
  O  O247  1  0.50711420  0.25054229  0.36383533  1
  O  O248  1  0.51490751  0.24774908  0.88086373  1
  O  O249  1  0.51037291  0.76538384  0.36824475  1
  O  O250  1  0.50461934  0.75954763  0.87712767  1
  O  O251  1  0.26042955  0.13300533  0.48880420  1
  O  O252  1  0.24596545  0.13153034  0.99516854  1
  O  O253  1  0.23605718  0.62625944  0.49218243  1
  O  O254  1  0.24985076  0.63095930  0.98620493  1
  O  O255  1  0.73241418  0.11089846  0.48584767  1
  O  O256  1  0.73767350  0.11755301  0.98908030  1
  O  O257  1  0.75318689  0.64454742  0.49063040  1
  O  O258  1  0.74380933  0.63233837  0.99397515  1
  O  O259  1  0.25773528  0.36650128  0.00191576  1
  O  O260  1  0.25868543  0.36773664  0.50931132  1
  O  O261  1  0.24508084  0.86565607  0.01170406  1
  O  O262  1  0.25941320  0.87120549  0.50518406  1
  O  O263  1  0.75670571  0.38000073  0.01756333  1
  O  O264  1  0.76575768  0.38672657  0.48310400  1
  O  O265  1  0.74205708  0.86550237  0.00749707  1
  O  O266  1  0.75534178  0.87244250  0.50288235  1
  O  O267  1  0.13725442  0.48638245  0.25354971  1
  O  O268  1  0.12985742  0.49366141  0.73915206  1
  O  O269  1  0.12638592  1.00009003  0.23823249  1
  O  O270  1  0.12664435  0.99102304  0.74603593  1
  O  O271  1  0.62287007  0.50250712  0.23928363  1
  O  O272  1  0.63302324  0.49880856  0.75687998  1
  O  O273  1  0.63239689  0.99529641  0.24105535  1
  O  O274  1  0.63295885  0.99336896  0.74869513  1
  O  O275  1  0.38084771  0.01254751  0.24683003  1
  O  O276  1  0.37331476  0.00723330  0.76330521  1
  O  O277  1  0.36120144  0.49402787  0.25849556  1
  O  O278  1  0.36967412  0.50707300  0.75700111  1
  O  O279  1  0.86549493  -0.00388977  0.25066461  1
  O  O280  1  0.86202107  -0.00589053  0.75923308  1
  O  O281  1  0.87729508  0.50903541  0.25661797  1
  O  O282  1  0.87179929  0.51378248  0.76046784  1
  O  O283  1  0.12297558  0.36653283  0.37112515  1
  O  O284  1  0.12933791  0.37938259  0.85820656  1
  O  O285  1  0.12538984  0.86497582  0.37434775  1
  O  O286  1  0.13137715  0.86415904  0.86316293  1
  O  O287  1  0.62049362  0.36190764  0.37626663  1
  O  O288  1  0.62500957  0.36090734  0.87663938  1
  O  O289  1  0.61963206  0.87336521  0.36678906  1
  O  O290  1  0.61877194  0.87223643  0.86991717  1
  O  O291  1  0.37950997  0.12983990  0.13116441  1
  O  O292  1  0.38416811  0.12037687  0.63605196  1
  O  O293  1  0.38381716  0.63265397  0.11953617  1
  O  O294  1  0.37096007  0.62757131  0.62775362  1
  O  O295  1  0.88246939  0.13135327  0.12184045  1
  O  O296  1  0.89057195  0.10674105  0.64261498  1
  O  O297  1  0.87330611  0.62235431  0.14291458  1
  O  O298  1  0.87698826  0.62973238  0.63077944  1
  O  O299  1  0.25488688  0.25326184  0.11631515  1
  O  O300  1  0.24815471  0.25768323  0.61574186  1
  O  O301  1  0.25581932  0.75373918  0.11885463  1
  O  O302  1  0.24157604  0.76451365  0.62149608  1
  O  O303  1  0.75772253  0.25392040  0.12531540  1
  O  O304  1  0.70949624  0.25411702  0.60511844  1
  O  O305  1  0.74565153  0.76008316  0.11281413  1
  O  O306  1  0.75448858  0.75920544  0.61581955  1
  O  O307  1  0.24632708  0.24577324  0.38359854  1
  O  O308  1  0.25338489  0.24070341  0.88907807  1
  O  O309  1  0.24263881  0.74024075  0.37648106  1
  O  O310  1  0.24652322  0.74569723  0.88056382  1
  O  O311  1  0.73595397  0.24274018  0.36396123  1
  O  O312  1  0.73738322  0.23955957  0.87362039  1
  O  O313  1  0.74380836  0.75258547  0.37940356  1
  O  O314  1  0.74150817  0.74307482  0.88144781  1
  O  O315  1  0.00883246  0.11993050  0.00947910  1
  O  O316  1  0.00091907  0.11609427  0.51219775  1
  O  O317  1  0.00392273  0.62063788  0.00259563  1
  O  O318  1  0.01016178  0.62899441  0.50535074  1
  O  O319  1  0.50607237  0.11875457  0.00674568  1
  O  O320  1  0.50389688  0.11911504  0.50381163  1
  O  O321  1  0.50855010  0.62394371  0.01085298  1
  O  O322  1  0.48607162  0.64437073  0.50285489  1
  O  O323  1  0.48977181  0.36988231  0.50020452  1
  O  O324  1  0.48632821  0.37614388  0.99737157  1
  O  O325  1  0.49405222  0.88369681  0.49223342  1
  O  O326  1  0.50698458  0.88420891  0.98735379  1
  O  O327  1  0.99997816  0.37328922  0.49878852  1
  O  O328  1  0.99320034  0.37703782  0.99644732  1
  O  O329  1  0.99194936  0.88789814  0.50154565  1
  O  O330  1  1.01477569  0.88137225  0.99122250  1
  O  O331  1  0.48584120  0.50288998  0.36639497  1
  O  O332  1  0.48591281  0.50099946  0.87995172  1
  O  O333  1  0.50524467  0.99108567  0.38022163  1
  O  O334  1  0.49477090  0.99605148  0.88070591  1
  O  O335  1  1.00909526  0.48486090  0.37655200  1
  O  O336  1  0.98980091  0.49339228  0.87015233  1
  O  O337  1  1.00239877  1.00223283  0.38447210  1
  O  O338  1  0.98096366  1.00248221  0.87152589  1
  O  O339  1  0.00889892  0.00756041  0.12513436  1
  O  O340  1  0.00960067  0.00589326  0.62227104  1
  O  O341  1  0.00214043  0.50259732  0.12664616  1
  O  O342  1  0.00319969  0.49723068  0.62314879  1
  O  O343  1  0.50426094  0.00345779  0.11547567  1
  O  O344  1  0.50580260  0.00321184  0.61538757  1
  O  O345  1  0.50888641  0.50667752  0.12375503  1
  O  O346  1  0.51863996  0.51352848  0.64293196  1
  O  O347  1  0.24644871  0.37871283  0.24666255  1
  O  O348  1  0.24520559  0.37718672  0.74382503  1
  O  O349  1  0.24834423  0.86987560  0.23547303  1
  O  O350  1  0.24369124  0.87799081  0.74234449  1
  O  O351  1  0.74837306  0.37381809  0.23189244  1
  O  O352  1  0.72379765  0.36626124  0.74977413  1
  O  O353  1  0.74576713  0.88284400  0.24018031  1
  O  O354  1  0.74351308  0.88107314  0.74455568  1
  O  O355  1  0.26001462  0.12929362  0.26462754  1
  O  O356  1  0.25647418  0.12176433  0.75982957  1
  O  O357  1  0.24182257  0.61500980  0.26236183  1
  O  O358  1  0.25753875  0.62219955  0.75839659  1
  O  O359  1  0.74303675  0.11347353  0.25553299  1
  O  O360  1  0.74343931  0.11515616  0.76182983  1
  O  O361  1  0.76366326  0.63224224  0.25830482  1
  O  O362  1  0.75755503  0.63642213  0.75962736  1
  O  O363  1  0.36426851  0.12817221  0.36739917  1
  O  O364  1  0.36616590  0.11830403  0.87128967  1
  O  O365  1  0.36054749  0.61660670  0.37793789  1
  O  O366  1  0.36896125  0.62069604  0.86967699  1
  O  O367  1  0.85913384  0.12861239  0.37626227  1
  O  O368  1  0.86266578  0.11592461  0.88057993  1
  O  O369  1  0.86451587  0.62998478  0.36433008  1
  O  O370  1  0.86626078  0.62177881  0.86577785  1
  O  O371  1  0.13235045  0.37167962  0.13525976  1
  O  O372  1  0.13499036  0.37838360  0.63368473  1
  O  O373  1  0.13506720  0.88398050  0.12870195  1
  O  O374  1  0.12974531  0.88112833  0.63479796  1
  O  O375  1  0.62843626  0.39084587  0.11961882  1
  O  O376  1  0.61746177  0.39830519  0.63361821  1
  O  O377  1  0.62854230  0.88205967  0.12849434  1
  O  O378  1  0.63042147  0.88235359  0.63164757  1
  O  O379  1  0.12958521  0.25991214  0.26166878  1
  O  O380  1  0.13089751  0.25963499  0.75091882  1
  O  O381  1  0.11566813  0.74791143  0.26357195  1
  O  O382  1  0.12063389  0.75652572  0.75481171  1
  O  O383  1  0.61360590  0.24368440  0.26036106  1
  O  O384  1  0.61995253  0.24318516  0.76346400  1
  O  O385  1  0.62773186  0.75944602  0.25596892  1
  O  O386  1  0.62106061  0.76037671  0.75663114  1
  O  O387  1  0.38137421  0.24266369  0.24431428  1
  O  O388  1  0.37394986  0.23696029  0.75658750  1
  O  O389  1  0.37639135  0.75126899  0.23703129  1
  O  O390  1  0.37484199  0.74089270  0.74911383  1
  O  O391  1  0.87736765  0.24561652  0.23165453  1
  O  O392  1  0.88384961  0.25536322  0.74999762  1
  O  O393  1  0.88841311  0.75212071  0.25429989  1
  O  O394  1  0.87883780  0.74340835  0.74376644  1
  O  O395  1  0.37059315  0.49027713  0.49006906  1
  O  O396  1  0.37206327  0.49100448  0.99262141  1
  O  O397  1  0.38695507  0.99437946  0.50034926  1
  O  O398  1  0.38933708  1.00754829  0.98926247  1
  O  O399  1  0.88364461  0.50928030  0.50152050  1
  O  O400  1  0.87514156  0.50487640  0.98607961  1
  O  O401  1  0.88377307  1.00042977  0.49870425  1
  O  O402  1  0.87418044  0.99910113  0.98682169  1
  O  O403  1  0.12795601  0.01324435  0.01222946  1
  O  O404  1  0.11652101  -0.00646873  0.51266969  1
  O  O405  1  0.12527179  0.50327297  0.00333964  1
  O  O406  1  0.13004207  0.50462653  0.51346815  1
  O  O407  1  0.61418561  0.00945098  0.00106166  1
  O  O408  1  0.61283127  0.00536708  0.50253539  1
  O  O409  1  0.62340825  0.51262456  0.00129123  1
  O  O410  1  0.60847203  0.51325266  0.50515937  1
  O  O411  1  0.36907714  0.37044786  0.11691130  1
  O  O412  1  0.36746724  0.38400283  0.62197073  1
  O  O413  1  0.36770253  0.86506983  0.12253004  1
  O  O414  1  0.36759240  0.88159802  0.61345579  1
  O  O415  1  0.86739469  0.36259778  0.12489581  1
  O  O416  1  0.88570145  0.38985088  0.61716052  1
  O  O417  1  0.86457013  0.87861395  0.12332661  1
  O  O418  1  0.87055003  0.87508070  0.61532923  1
  O  O419  1  0.14195077  0.13515787  0.37157539  1
  O  O420  1  0.13786040  0.11643204  0.88449424  1
  O  O421  1  0.12717634  0.62740397  0.38190070  1
  O  O422  1  0.13387417  0.63685872  0.86799854  1
  O  O423  1  0.63087477  0.13110692  0.37832037  1
  O  O424  1  0.62988000  0.13289449  0.88192518  1
  O  O425  1  0.62991868  0.64021047  0.37610510  1
  O  O426  1  0.62937025  0.62939737  0.88144322  1
