# generated using pymatgen
data_V85Zn86O256
_symmetry_space_group_name_H-M   'P 1'
_cell_length_a   16.95346750
_cell_length_b   16.96671977
_cell_length_c   16.95646306
_cell_angle_alpha   89.96526016
_cell_angle_beta   89.98032977
_cell_angle_gamma   90.07839954
_symmetry_Int_Tables_number   1
_chemical_formula_structural   V85Zn86O256
_chemical_formula_sum   'V85 Zn86 O256'
_cell_volume   4877.43152562
_cell_formula_units_Z   1
loop_
 _symmetry_equiv_pos_site_id
 _symmetry_equiv_pos_as_xyz
  1  'x, y, z'
loop_
 _atom_site_type_symbol
 _atom_site_label
 _atom_site_symmetry_multiplicity
 _atom_site_fract_x
 _atom_site_fract_y
 _atom_site_fract_z
 _atom_site_occupancy
  V  V0  1  0.75002749  0.37225841  0.62088410  1
  V  V1  1  0.24584297  -0.00841295  0.24619389  1
  V  V2  1  0.76165595  0.49948194  0.75289664  1
  V  V3  1  0.62990273  0.25243448  0.88000276  1
  V  V4  1  0.37594998  0.12317302  0.25068468  1
  V  V5  1  0.12235013  0.00581979  0.11306698  1
  V  V6  1  0.36837902  0.74705843  0.11927134  1
  V  V7  1  0.76429231  0.74949480  0.50270733  1
  V  V8  1  0.50535210  0.86825942  0.37681996  1
  V  V9  1  0.37877192  -0.00780991  0.87390964  1
  V  V10  1  0.12871451  0.75760382  0.87958617  1
  V  V11  1  0.24693499  0.63046053  0.38634474  1
  V  V12  1  0.23649167  0.12255202  0.37870717  1
  V  V13  1  -0.00462268  0.74928885  0.74740537  1
  V  V14  1  0.24621132  -0.00085042  0.74933729  1
  V  V15  1  0.50174079  0.49815000  0.00157538  1
  V  V16  1  0.50015904  0.12322108  0.62494009  1
  V  V17  1  0.89239069  0.36761250  0.48608597  1
  V  V18  1  0.63331621  0.62813590  0.00076679  1
  V  V19  1  0.12498765  0.49215014  0.12485884  1
  V  V20  1  0.37466697  0.49850516  0.37759102  1
  V  V21  1  -0.00763779  0.86892302  0.36385617  1
  V  V22  1  0.76286877  0.12776879  0.86588293  1
  V  V23  1  0.74497831  0.24964700  0.49672767  1
  V  V24  1  0.37516543  0.12440603  0.75206235  1
  V  V25  1  0.13441712  0.62781008  -0.00019790  1
  V  V26  1  0.37308855  -0.00322151  0.37411170  1
  V  V27  1  0.24827829  0.12171704  0.87830807  1
  V  V28  1  0.50160375  0.62434809  0.12483947  1
  V  V29  1  0.11886195  0.50770173  0.62889861  1
  V  V30  1  0.50328111  0.49897568  0.50046291  1
  V  V31  1  0.37501705  0.37067318  0.50123776  1
  V  V32  1  0.11707585  0.87779489  0.74997656  1
  V  V33  1  -0.01185166  0.37919867  0.87598791  1
  V  V34  1  0.25089396  0.50170364  0.75621463  1
  V  V35  1  0.24428930  0.24638604  -0.00246471  1
  V  V36  1  0.49965802  -0.00358903  0.50104941  1
  V  V37  1  0.62902132  0.37288382  0.24580542  1
  V  V38  1  0.74841348  0.63196705  0.37247914  1
  V  V39  1  0.62867828  0.74862734  0.87690072  1
  V  V40  1  0.00408713  0.63823752  0.12683693  1
  V  V41  1  0.37062966  0.37387805  0.00424825  1
  V  V42  1  0.87821241  -0.00110902  0.85493695  1
  V  V43  1  0.75194550  0.50044871  0.24741775  1
  V  V44  1  0.37212472  0.74850314  0.62174270  1
  V  V45  1  0.62397984  0.11818903  0.49815677  1
  V  V46  1  0.62924534  0.12076968  0.00710423  1
  V  V47  1  0.50614415  -0.00843990  0.00823759  1
  V  V48  1  0.93146732  0.17958635  0.19769195  1
  V  V49  1  0.62679687  0.50301478  0.62403551  1
  V  V50  1  0.12187365  0.37453609  0.75234382  1
  V  V51  1  0.62265172  0.88518659  0.24534404  1
  V  V52  1  0.50860934  0.74906103  0.75006224  1
  V  V53  1  0.25098992  0.37263886  0.62925980  1
  V  V54  1  0.87435881  0.37712044  0.01698585  1
  V  V55  1  0.24508105  0.49456616  0.25100815  1
  V  V56  1  -0.00569078  0.50453176  -0.00450365  1
  V  V57  1  0.49975812  0.25187193  0.75166585  1
  V  V58  1  0.75701116  0.25284332  0.01344280  1
  V  V59  1  0.37454466  0.86705791  -0.00710694  1
  V  V60  1  0.37486796  0.62278448  0.25165382  1
  V  V61  1  0.50025996  0.37271551  0.37496777  1
  V  V62  1  0.74823181  0.87111702  0.11649645  1
  V  V63  1  0.62523023  0.37745057  0.75187278  1
  V  V64  1  0.49946289  0.24784823  0.24992003  1
  V  V65  1  0.87512072  0.23723262  0.62625869  1
  V  V66  1  0.50049828  0.37488908  0.87834011  1
  V  V67  1  0.74628614  0.87633186  0.63527225  1
  V  V68  1  0.00614897  0.01366215  0.48858538  1
  V  V69  1  0.75742406  0.11822576  0.37257068  1
  V  V70  1  0.37080035  0.86985180  0.49801470  1
  V  V71  1  0.76381787  -0.00056419  0.24953456  1
  V  V72  1  0.37808663  0.62542916  0.75288757  1
  V  V73  1  0.24138370  0.24342189  0.50002198  1
  V  V74  1  0.37932281  0.24252389  0.12126697  1
  V  V75  1  0.50792631  0.74744358  0.25238069  1
  V  V76  1  0.24386675  0.87168016  0.61833274  1
  V  V77  1  0.76254570  0.62382338  0.87683785  1
  V  V78  1  0.12200217  0.24581937  0.87627525  1
  V  V79  1  -0.01157860  0.00553556  0.00266899  1
  V  V80  1  0.88075752  0.63701663  0.25055930  1
  V  V81  1  0.55964670  0.91578708  0.81760287  1
  V  V82  1  0.87557459  0.88732739  0.49969197  1
  V  V83  1  0.62626796  0.63504816  0.49562748  1
  V  V84  1  0.62789014  0.49797571  0.12564047  1
  Zn  Zn85  1  0.11097698  0.86398778  0.23878463  1
  Zn  Zn86  1  0.00206393  0.50387541  0.49288133  1
  Zn  Zn87  1  0.50710558  0.11558608  0.12858615  1
  Zn  Zn88  1  0.00756142  0.12151198  0.63472116  1
  Zn  Zn89  1  0.62287157  0.24615745  0.37201526  1
  Zn  Zn90  1  0.25542730  0.63176848  0.88052242  1
  Zn  Zn91  1  -0.01126470  0.24419812  0.75913403  1
  Zn  Zn92  1  0.12603327  0.00588359  0.61483405  1
  Zn  Zn93  1  -0.02156592  0.63780094  0.61541689  1
  Zn  Zn94  1  0.88196505  0.86942300  -0.00832534  1
  Zn  Zn95  1  0.02240236  0.37515276  0.35218271  1
  Zn  Zn96  1  0.87977380  0.50059376  0.37370656  1
  Zn  Zn97  1  0.62771044  -0.00474279  0.64311085  1
  Zn  Zn98  1  0.37588047  0.50166178  0.87904862  1
  Zn  Zn99  1  0.12466212  0.64043557  0.51023855  1
  Zn  Zn100  1  0.87640389  0.62387030  0.74609094  1
  Zn  Zn101  1  0.24496801  0.86736596  0.11770466  1
  Zn  Zn102  1  0.37484641  0.24791181  0.62601174  1
  Zn  Zn103  1  0.50289524  0.62663966  0.62401654  1
  Zn  Zn104  1  0.12359948  0.75442602  0.37678493  1
  Zn  Zn105  1  0.87185427  0.75019902  0.11390269  1
  Zn  Zn106  1  0.23197818  0.34828449  0.15153609  1
  Zn  Zn107  1  0.19245784  0.17447811  0.18536419  1
  Zn  Zn108  1  0.18199123  0.18688461  0.68720079  1
  Zn  Zn109  1  0.18525468  0.68505467  0.19382874  1
  Zn  Zn110  1  0.18961828  0.69078892  0.69449065  1
  Zn  Zn111  1  0.69323967  0.18510351  0.18917612  1
  Zn  Zn112  1  0.68367232  0.18716905  0.68766977  1
  Zn  Zn113  1  0.68805710  0.69107576  0.18821059  1
  Zn  Zn114  1  0.69677249  0.68788407  0.68541651  1
  Zn  Zn115  1  0.19624612  0.30977502  0.32193066  1
  Zn  Zn116  1  0.31433923  0.31285791  0.81521052  1
  Zn  Zn117  1  0.31395593  0.80761863  0.30861479  1
  Zn  Zn118  1  0.31043535  0.81244131  0.80809695  1
  Zn  Zn119  1  0.81040113  0.31053591  0.31055964  1
  Zn  Zn120  1  0.81041998  0.31072345  0.81155774  1
  Zn  Zn121  1  0.81002057  0.81393737  0.31467130  1
  Zn  Zn122  1  0.81164365  0.81259041  0.81774256  1
  Zn  Zn123  1  0.18919702  0.44245770  0.44519907  1
  Zn  Zn124  1  0.18471743  0.43615920  0.93942507  1
  Zn  Zn125  1  0.18108466  0.93163427  0.43314674  1
  Zn  Zn126  1  0.18879494  0.93495615  0.93915543  1
  Zn  Zn127  1  0.68965985  0.44003867  0.43181326  1
  Zn  Zn128  1  0.69405172  0.43972319  0.93922037  1
  Zn  Zn129  1  0.68735266  0.93421540  0.43560641  1
  Zn  Zn130  1  0.69810478  0.94663686  0.93572901  1
  Zn  Zn131  1  0.31474753  0.05631836  0.06043135  1
  Zn  Zn132  1  0.31093612  0.05953337  0.56243360  1
  Zn  Zn133  1  0.31077209  0.55895467  0.06642480  1
  Zn  Zn134  1  0.31299444  0.55914471  0.56805088  1
  Zn  Zn135  1  0.80942687  0.06222951  0.06910461  1
  Zn  Zn136  1  0.80815601  0.05698218  0.56215769  1
  Zn  Zn137  1  0.81620186  0.56353960  0.06509698  1
  Zn  Zn138  1  0.81610171  0.55756600  0.56059464  1
  Zn  Zn139  1  0.43490570  0.43370195  0.18674414  1
  Zn  Zn140  1  0.43859715  0.43923765  0.68787290  1
  Zn  Zn141  1  0.43445333  0.93237223  0.18493627  1
  Zn  Zn142  1  0.43134626  0.93861409  0.68154372  1
  Zn  Zn143  1  0.93896724  0.44959178  0.18904182  1
  Zn  Zn144  1  0.94015360  0.42795180  0.67660296  1
  Zn  Zn145  1  0.93316946  0.94176363  0.17950177  1
  Zn  Zn146  1  0.93913770  0.93572253  0.67560234  1
  Zn  Zn147  1  0.05852322  0.05192060  0.30644856  1
  Zn  Zn148  1  0.05708393  0.06521611  0.81294598  1
  Zn  Zn149  1  0.06211960  0.56054339  0.31297671  1
  Zn  Zn150  1  0.06198841  0.56910576  0.81521031  1
  Zn  Zn151  1  0.56206037  0.06036758  0.31660629  1
  Zn  Zn152  1  0.56573830  0.07889209  0.82026573  1
  Zn  Zn153  1  0.56481154  0.56114518  0.31486850  1
  Zn  Zn154  1  0.56621250  0.56270481  0.81419957  1
  Zn  Zn155  1  0.43132892  0.18724970  0.43567496  1
  Zn  Zn156  1  0.44034241  0.18291263  0.93899383  1
  Zn  Zn157  1  0.43769877  0.68587580  0.43852044  1
  Zn  Zn158  1  0.44625573  0.68869129  0.93514849  1
  Zn  Zn159  1  0.95881185  0.18097322  0.38593807  1
  Zn  Zn160  1  0.94168898  0.18919002  0.95072638  1
  Zn  Zn161  1  0.94052511  0.68601291  0.43724748  1
  Zn  Zn162  1  0.94486296  0.69518300  0.93628867  1
  Zn  Zn163  1  0.05775968  0.30907977  0.17690373  1
  Zn  Zn164  1  0.04016308  0.28869632  0.51789287  1
  Zn  Zn165  1  0.06014603  0.82127569  0.05463179  1
  Zn  Zn166  1  0.06201645  0.81277625  0.55717947  1
  Zn  Zn167  1  0.56474883  0.31006943  0.06442147  1
  Zn  Zn168  1  0.56371731  0.31005083  0.56386183  1
  Zn  Zn169  1  0.56266437  0.81158130  0.06279379  1
  Zn  Zn170  1  0.56547770  0.81153346  0.56570075  1
  O  O171  1  0.12900003  0.10470235  0.12428463  1
  O  O172  1  0.12324405  0.11800562  0.62598699  1
  O  O173  1  0.12141115  0.62056749  0.11791092  1
  O  O174  1  0.13515305  0.61265317  0.62972204  1
  O  O175  1  0.62485229  0.12935270  0.11124716  1
  O  O176  1  0.61490916  0.11812869  0.62178431  1
  O  O177  1  0.62116095  0.62176245  0.11834212  1
  O  O178  1  0.62786804  0.61649063  0.61688306  1
  O  O179  1  0.38269995  0.38218264  0.39203778  1
  O  O180  1  0.38370409  0.37563497  0.88584874  1
  O  O181  1  0.38204227  0.87675402  0.37917845  1
  O  O182  1  0.37362278  0.87901534  0.87864759  1
  O  O183  1  0.85543674  0.38146895  0.38769135  1
  O  O184  1  0.88691107  0.37310534  0.87181335  1
  O  O185  1  0.88158033  0.87135744  0.38612987  1
  O  O186  1  0.85891380  0.89738367  0.87727383  1
  O  O187  1  0.25489831  0.00082197  0.36767543  1
  O  O188  1  0.25543767  0.00604878  0.87030348  1
  O  O189  1  0.25801637  0.50861900  0.37181929  1
  O  O190  1  0.25313155  0.50057645  0.86569087  1
  O  O191  1  0.74021563  0.00432204  0.36085743  1
  O  O192  1  0.76341970  0.01932557  0.87656527  1
  O  O193  1  0.74753619  0.51334563  0.36242009  1
  O  O194  1  0.74366167  0.51022723  0.86325332  1
  O  O195  1  0.24155658  0.49959174  0.13598388  1
  O  O196  1  0.24604847  0.49373988  0.63974570  1
  O  O197  1  0.24228378  0.99657704  0.12889158  1
  O  O198  1  0.25077703  0.99051349  0.63281334  1
  O  O199  1  0.74180571  0.50885432  0.13872780  1
  O  O200  1  0.73977607  0.49085312  0.62917664  1
  O  O201  1  0.74864887  0.98919345  0.14162571  1
  O  O202  1  0.74516615  0.98401206  0.62282309  1
  O  O203  1  -0.00468200  0.37259601  0.24388334  1
  O  O204  1  0.00663686  0.36897823  0.75580131  1
  O  O205  1  -0.00879847  0.88036987  0.26077299  1
  O  O206  1  0.01148942  0.86983216  0.74327485  1
  O  O207  1  0.50317216  0.36688096  0.25494145  1
  O  O208  1  0.50546026  0.37189909  0.75675592  1
  O  O209  1  0.50292159  0.86654129  0.25501493  1
  O  O210  1  0.49672567  0.86587524  0.74822929  1
  O  O211  1  0.49472540  0.12843965  0.24928622  1
  O  O212  1  0.49632608  0.13084494  0.74403075  1
  O  O213  1  0.49544102  0.62941347  0.24785400  1
  O  O214  1  0.49446596  0.63049806  0.74832226  1
  O  O215  1  0.99193251  0.14164804  0.27977200  1
  O  O216  1  0.99983350  0.13423939  0.74830663  1
  O  O217  1  0.99210690  0.62063538  0.23984676  1
  O  O218  1  0.99832755  0.63855265  0.74860758  1
  O  O219  1  0.37307096  0.25419562  0.00395049  1
  O  O220  1  0.37069708  0.25769712  0.50469986  1
  O  O221  1  0.38451668  0.75444853  0.00636008  1
  O  O222  1  0.38039960  0.75214715  0.51488378  1
  O  O223  1  0.87108397  0.26656377  -0.00091051  1
  O  O224  1  0.85247459  0.25867899  0.51277881  1
  O  O225  1  0.87828998  0.75642640  -0.00110859  1
  O  O226  1  0.86675112  0.75691581  0.49790478  1
  O  O227  1  0.14274121  0.24737098  0.50981862  1
  O  O228  1  0.14313813  0.25415766  0.98911428  1
  O  O229  1  0.12828690  0.75199756  0.49197342  1
  O  O230  1  0.12205260  0.74594249  0.98692157  1
  O  O231  1  0.62978926  0.23586290  0.50230309  1
  O  O232  1  0.63366978  0.24675166  0.99574205  1
  O  O233  1  0.63011277  0.73748742  0.50249692  1
  O  O234  1  0.61961383  0.73820581  0.99129712  1
  O  O235  1  0.49086369  0.24489588  0.12876154  1
  O  O236  1  0.49981528  0.24016020  0.63237981  1
  O  O237  1  0.49291807  0.74186245  0.13300794  1
  O  O238  1  0.49372531  0.74810048  0.63327394  1
  O  O239  1  0.99103735  0.22919938  0.13244086  1
  O  O240  1  0.97968627  0.24384680  0.61330224  1
  O  O241  1  1.00389625  0.74030283  0.11979720  1
  O  O242  1  1.00867146  0.74995026  0.64196166  1
  O  O243  1  -0.02503583  0.28770251  0.42152411  1
  O  O244  1  0.00916518  0.25937118  0.88044705  1
  O  O245  1  -0.00287043  0.76548412  0.37591687  1
  O  O246  1  0.01871023  0.74771289  0.86179939  1
  O  O247  1  0.50016048  0.25456322  0.36819327  1
  O  O248  1  0.50792414  0.25447832  0.87209768  1
  O  O249  1  0.49152347  0.75682187  0.36479780  1
  O  O250  1  0.51563475  0.75062263  0.86500882  1
  O  O251  1  0.25957976  0.13088120  0.49013948  1
  O  O252  1  0.26136135  0.13025464  0.98512919  1
  O  O253  1  0.25337619  0.61765972  0.48840870  1
  O  O254  1  0.23888132  0.62039452  0.99974487  1
  O  O255  1  0.73909409  0.12740194  0.49549198  1
  O  O256  1  0.74747501  0.13282482  0.99645344  1
  O  O257  1  0.74564110  0.63120408  0.49248883  1
  O  O258  1  0.74019537  0.61649512  0.99314344  1
  O  O259  1  0.26191389  0.36557018  -0.00364107  1
  O  O260  1  0.26019724  0.36876476  0.50940657  1
  O  O261  1  0.26950144  0.87880042  0.00060933  1
  O  O262  1  0.25380862  0.88122538  0.51093006  1
  O  O263  1  0.76642313  0.36995947  -0.00592917  1
  O  O264  1  0.73645268  0.36432163  0.50746291  1
  O  O265  1  0.74724560  0.88276041  0.01577809  1
  O  O266  1  0.75930122  0.86764676  0.49683018  1
  O  O267  1  0.13486006  0.50592014  0.23932275  1
  O  O268  1  0.13354001  0.49809151  0.74985500  1
  O  O269  1  0.13164566  0.99208729  0.23781705  1
  O  O270  1  0.13128222  0.99095538  0.75587047  1
  O  O271  1  0.62900955  0.49361387  0.24431146  1
  O  O272  1  0.63086618  0.49578161  0.74134106  1
  O  O273  1  0.61821070  0.98664488  0.24873388  1
  O  O274  1  0.61145036  0.98935135  0.76165340  1
  O  O275  1  0.37160914  0.00708851  0.25092127  1
  O  O276  1  0.36800175  0.00320032  0.75539876  1
  O  O277  1  0.37426731  0.50991709  0.25371584  1
  O  O278  1  0.37055070  0.50855740  0.75215182  1
  O  O279  1  0.86146764  -0.00614345  0.25560811  1
  O  O280  1  0.88153926  -0.00258639  0.75651017  1
  O  O281  1  0.86424446  0.51396423  0.24989550  1
  O  O282  1  0.86303973  0.49332170  0.74276561  1
  O  O283  1  0.13002777  0.36864291  0.38842823  1
  O  O284  1  0.11829407  0.36968818  0.86820470  1
  O  O285  1  0.10499883  0.87649992  0.36895805  1
  O  O286  1  0.13085724  0.86504116  0.86714959  1
  O  O287  1  0.61748899  0.37430368  0.36297523  1
  O  O288  1  0.62126814  0.37086947  0.87310909  1
  O  O289  1  0.61022401  0.87545251  0.36835157  1
  O  O290  1  0.63266275  0.86720849  0.87752122  1
  O  O291  1  0.38005680  0.12633130  0.12958502  1
  O  O292  1  0.38704437  0.12216272  0.63146956  1
  O  O293  1  0.38216742  0.62667992  0.13197681  1
  O  O294  1  0.37692545  0.63108168  0.63570223  1
  O  O295  1  0.88018107  0.11213207  0.14227286  1
  O  O296  1  0.86699048  0.13672709  0.62037089  1
  O  O297  1  0.88570260  0.62880057  0.13105662  1
  O  O298  1  0.86667077  0.62537542  0.63172028  1
  O  O299  1  0.26556411  0.24079398  0.11171997  1
  O  O300  1  0.25525328  0.25774528  0.62405330  1
  O  O301  1  0.26580299  0.74481137  0.12862047  1
  O  O302  1  0.26042150  0.75985941  0.63318531  1
  O  O303  1  0.74683575  0.25078074  0.11243590  1
  O  O304  1  0.74878546  0.25498121  0.61986183  1
  O  O305  1  0.74938308  0.76655563  0.12878059  1
  O  O306  1  0.74477080  0.76231080  0.61215783  1
  O  O307  1  0.25532685  0.23401574  0.38652220  1
  O  O308  1  0.24735827  0.24131458  0.87867528  1
  O  O309  1  0.26168782  0.73108990  0.37607178  1
  O  O310  1  0.23449462  0.74763645  0.86655758  1
  O  O311  1  0.74225755  0.24157904  0.38303489  1
  O  O312  1  0.74969685  0.24307908  0.88442391  1
  O  O313  1  0.75027638  0.73912346  0.38329973  1
  O  O314  1  0.73702955  0.73879981  0.86649995  1
  O  O315  1  0.00566577  0.10577247  -0.00795502  1
  O  O316  1  -0.00607662  0.11283614  0.48182861  1
  O  O317  1  0.01046865  0.61969163  0.00397762  1
  O  O318  1  0.00562726  0.62054224  0.50440916  1
  O  O319  1  0.51084399  0.11316110  -0.00144716  1
  O  O320  1  0.50345130  0.12075989  0.50749984  1
  O  O321  1  0.51118684  0.61629158  0.00360959  1
  O  O322  1  0.50901669  0.61798240  0.50137435  1
  O  O323  1  0.49688447  0.37844238  0.49755623  1
  O  O324  1  0.49188779  0.37843266  0.99930661  1
  O  O325  1  0.49545434  0.87477557  0.49313136  1
  O  O326  1  0.49211574  0.88104254  1.00103681  1
  O  O327  1  0.98748316  0.39147347  0.53023848  1
  O  O328  1  0.98537985  0.38637309  0.99216533  1
  O  O329  1  0.98552372  0.88041544  0.49527821  1
  O  O330  1  0.99893764  0.89606438  0.99431614  1
  O  O331  1  0.49481332  0.49351897  0.38074100  1
  O  O332  1  0.50051893  0.49303731  0.88342980  1
  O  O333  1  0.49208290  0.98996054  0.38160037  1
  O  O334  1  0.50070784  0.99031368  0.87568114  1
  O  O335  1  0.99830175  0.49110013  0.37649865  1
  O  O336  1  1.00764195  0.49413186  0.88683062  1
  O  O337  1  0.99671027  0.98677788  0.38358650  1
  O  O338  1  0.98172193  1.00402522  0.88119505  1
  O  O339  1  0.01064754  -0.00239555  0.11484492  1
  O  O340  1  -0.00392054  0.00526571  0.60263536  1
  O  O341  1  0.00825543  0.51145959  0.11290597  1
  O  O342  1  0.01593001  0.50860702  0.63859663  1
  O  O343  1  0.49800076  -0.00227201  0.11193961  1
  O  O344  1  0.50335672  0.00544377  0.61926650  1
  O  O345  1  0.50611183  0.50537355  0.12160687  1
  O  O346  1  0.51384000  0.50080257  0.62169077  1
  O  O347  1  0.26347110  0.39258368  0.25649671  1
  O  O348  1  0.24627697  0.38222126  0.75004615  1
  O  O349  1  0.26019386  0.88709538  0.24601662  1
  O  O350  1  0.24169209  0.87975142  0.73909134  1
  O  O351  1  0.73915204  0.38646609  0.25486411  1
  O  O352  1  0.74273160  0.38032550  0.74351817  1
  O  O353  1  0.74007625  0.88319112  0.24914495  1
  O  O354  1  0.75379659  0.86646297  0.73308404  1
  O  O355  1  0.25934433  0.11055636  0.25675363  1
  O  O356  1  0.25694844  0.12081544  0.76038530  1
  O  O357  1  0.26089664  0.61487178  0.25967376  1
  O  O358  1  0.26136355  0.61785536  0.75385068  1
  O  O359  1  0.73976688  0.10715199  0.25730711  1
  O  O360  1  0.74547373  0.13357189  0.76792390  1
  O  O361  1  0.75287587  0.62246111  0.25638948  1
  O  O362  1  0.75044568  0.61537768  0.75875042  1
  O  O363  1  0.37191799  0.11462439  0.36582151  1
  O  O364  1  0.37262325  0.11519785  0.86882405  1
  O  O365  1  0.37151195  0.61750522  0.36923351  1
  O  O366  1  0.37634934  0.62483077  0.86570093  1
  O  O367  1  0.85504283  0.12757272  0.38233729  1
  O  O368  1  0.86717044  0.12207926  0.87789521  1
  O  O369  1  0.86765243  0.62386535  0.36755579  1
  O  O370  1  0.86462041  0.62874711  0.87159747  1
  O  O371  1  0.12644332  0.39013244  0.11394995  1
  O  O372  1  0.13224321  0.38954125  0.64398256  1
  O  O373  1  0.12919052  0.88272021  0.12398005  1
  O  O374  1  0.13084156  0.88203735  0.63071863  1
  O  O375  1  0.61852974  0.38151502  0.13790663  1
  O  O376  1  0.63216095  0.38033333  0.63031381  1
  O  O377  1  0.63441027  0.87025008  0.13357797  1
  O  O378  1  0.63957046  0.87849839  0.61988563  1
  O  O379  1  0.15708534  0.27258420  0.22254300  1
  O  O380  1  0.12818673  0.26138729  0.76209614  1
  O  O381  1  0.13934154  0.75706793  0.26267966  1
  O  O382  1  0.11993984  0.75876175  0.75757813  1
  O  O383  1  0.62022674  0.25714038  0.24856287  1
  O  O384  1  0.61952649  0.25743023  0.75805930  1
  O  O385  1  0.61151115  0.75690013  0.24777977  1
  O  O386  1  0.61444463  0.74283521  0.75353675  1
  O  O387  1  0.37840560  0.23195008  0.23845476  1
  O  O388  1  0.38322840  0.24398011  0.75050703  1
  O  O389  1  0.38357081  0.73722927  0.24270029  1
  O  O390  1  0.38527128  0.74338136  0.74369194  1
  O  O391  1  0.86538193  0.24168291  0.24313052  1
  O  O392  1  0.87221305  0.25849709  0.72935374  1
  O  O393  1  0.86721912  0.73864775  0.24579651  1
  O  O394  1  0.89390620  0.75553874  0.76000777  1
  O  O395  1  0.38388278  0.49305487  0.50063348  1
  O  O396  1  0.37976344  0.48983024  1.00233183  1
  O  O397  1  0.38155286  0.98974793  0.49596416  1
  O  O398  1  0.38771716  0.99246560  0.99139241  1
  O  O399  1  0.87324213  0.48378672  0.49516356  1
  O  O400  1  0.88247837  0.49227572  1.00118294  1
  O  O401  1  0.87707693  0.98991895  0.49517937  1
  O  O402  1  0.88200865  0.99958000  1.00242940  1
  O  O403  1  0.12137071  -0.00330134  0.00853242  1
  O  O404  1  0.10925436  -0.00236045  0.49568240  1
  O  O405  1  0.12006838  0.50902760  0.00521599  1
  O  O406  1  0.12760524  0.50222139  0.52311231  1
  O  O407  1  0.61808819  0.00869063  -0.00763887  1
  O  O408  1  0.61799376  0.00851532  0.49850810  1
  O  O409  1  0.62253161  0.50405970  0.00803033  1
  O  O410  1  0.62264533  0.50687241  0.50634971  1
  O  O411  1  0.37246912  0.36164720  0.11805039  1
  O  O412  1  0.37230271  0.37562695  0.61665402  1
  O  O413  1  0.37456985  0.86179812  0.11555585  1
  O  O414  1  0.36696618  0.86636698  0.61858691  1
  O  O415  1  0.87349936  0.38335933  0.11428341  1
  O  O416  1  0.85879906  0.36881147  0.61488811  1
  O  O417  1  0.85940411  0.87265275  0.12487894  1
  O  O418  1  0.86339554  0.87686616  0.60788206  1
  O  O419  1  0.13837028  0.11750806  0.36642426  1
  O  O420  1  0.13545982  0.13647807  0.87078973  1
  O  O421  1  0.14124150  0.62168285  0.37780717  1
  O  O422  1  0.12998647  0.63519190  0.88348366  1
  O  O423  1  0.62773131  0.12581161  0.38512406  1
  O  O424  1  0.63748900  0.13482155  0.88770328  1
  O  O425  1  0.63369033  0.62116778  0.38446196  1
  O  O426  1  0.63177448  0.63045152  0.88356712  1
