# generated using pymatgen
data_V85Zn86O256
_symmetry_space_group_name_H-M   'P 1'
_cell_length_a   16.94864369
_cell_length_b   16.94111370
_cell_length_c   16.93919779
_cell_angle_alpha   90.09497010
_cell_angle_beta   90.01268950
_cell_angle_gamma   89.90115119
_symmetry_Int_Tables_number   1
_chemical_formula_structural   V85Zn86O256
_chemical_formula_sum   'V85 Zn86 O256'
_cell_volume   4863.71918943
_cell_formula_units_Z   1
loop_
 _symmetry_equiv_pos_site_id
 _symmetry_equiv_pos_as_xyz
  1  'x, y, z'
loop_
 _atom_site_type_symbol
 _atom_site_label
 _atom_site_symmetry_multiplicity
 _atom_site_fract_x
 _atom_site_fract_y
 _atom_site_fract_z
 _atom_site_occupancy
  V  V0  1  0.13497712  0.87448986  0.74706748  1
  V  V1  1  0.85815149  0.12241302  0.25137755  1
  V  V2  1  -0.00046947  0.12013846  0.13043185  1
  V  V3  1  0.25241643  0.74941174  0.48726909  1
  V  V4  1  0.36491448  0.75366393  0.62369948  1
  V  V5  1  0.37603533  0.49169000  0.87608147  1
  V  V6  1  0.36703928  0.37402531  0.50302983  1
  V  V7  1  -0.00091293  0.24846387  0.75321790  1
  V  V8  1  0.87230015  0.49571357  0.38026409  1
  V  V9  1  0.49892228  0.62574653  0.62012883  1
  V  V10  1  0.36945541  0.88369047  0.50357203  1
  V  V11  1  0.37882357  0.13074360  0.75404691  1
  V  V12  1  0.87083725  0.87531084  0.00120580  1
  V  V13  1  0.12665835  0.24928045  0.87841208  1
  V  V14  1  0.63465550  0.24243517  0.37828594  1
  V  V15  1  0.62134810  0.87614001  0.75855836  1
  V  V16  1  0.49826314  0.75216282  0.75356841  1
  V  V17  1  0.62547459  0.73496891  0.87094092  1
  V  V18  1  0.24924729  0.62655737  0.87945439  1
  V  V19  1  0.62822823  -0.00326275  0.14221465  1
  V  V20  1  0.87668046  0.62197296  0.25109373  1
  V  V21  1  0.13211577  0.62376583  0.49761541  1
  V  V22  1  0.49177359  0.75519319  0.25083280  1
  V  V23  1  0.86283889  0.00728743  0.37572918  1
  V  V24  1  0.49687151  0.63392762  0.12319937  1
  V  V25  1  0.12157195  0.49482406  0.11554534  1
  V  V26  1  0.37471135  0.49774397  0.37204231  1
  V  V27  1  0.74574648  0.24892514  -0.00452524  1
  V  V28  1  0.50039486  0.49462599  0.49231264  1
  V  V29  1  0.00109192  0.87677171  0.37072312  1
  V  V30  1  -0.00131125  0.49992384  0.50004452  1
  V  V31  1  0.75106028  0.50508563  0.76970737  1
  V  V32  1  0.37869210  0.36921542  0.00728146  1
  V  V33  1  0.13694727  -0.01520176  0.14029794  1
  V  V34  1  0.74209585  0.75444563  0.50029391  1
  V  V35  1  0.00279767  0.12427958  0.62599931  1
  V  V36  1  -0.00037292  0.62405396  0.62619341  1
  V  V37  1  0.62164927  0.37535153  0.26060697  1
  V  V38  1  0.12000960  0.74395158  0.37016000  1
  V  V39  1  0.00138084  -0.00370642  0.00462581  1
  V  V40  1  0.62110145  0.00521490  0.62753211  1
  V  V41  1  0.74909529  0.37395318  0.12496726  1
  V  V42  1  0.12596339  0.11983228  0.00493058  1
  V  V43  1  0.74723603  0.87761135  0.62789292  1
  V  V44  1  0.62211072  0.49794494  0.12482067  1
  V  V45  1  0.75151264  0.12468485  0.87187755  1
  V  V46  1  0.62283797  0.62904291  0.49018406  1
  V  V47  1  0.00380751  -0.00046643  0.50056537  1
  V  V48  1  0.74811984  0.49808011  0.25280619  1
  V  V49  1  0.49928864  0.49587103  -0.00007681  1
  V  V50  1  0.74900099  0.74244656  -0.00729789  1
  V  V51  1  0.61270803  0.25289655  0.86342492  1
  V  V52  1  0.12508386  0.37096411  0.24973484  1
  V  V53  1  0.49754771  0.14153383  0.62775119  1
  V  V54  1  0.37378943  0.62364669  0.74994235  1
  V  V55  1  0.25673800  0.11998664  0.37455103  1
  V  V56  1  0.00255404  0.87571381  0.87523001  1
  V  V57  1  0.62277847  0.11255300  -0.00150416  1
  V  V58  1  0.87349436  0.24790925  0.12523578  1
  V  V59  1  0.63866052  0.49537266  0.61927125  1
  V  V60  1  0.36967724  0.62917180  0.25016362  1
  V  V61  1  0.13586646  -0.00485067  0.62214184  1
  V  V62  1  0.12698014  0.24763927  0.38243684  1
  V  V63  1  0.37981557  0.86610581  0.01501686  1
  V  V64  1  0.87424924  0.75292845  0.62241156  1
  V  V65  1  0.24700284  0.50172892  0.25395502  1
  V  V66  1  0.49845963  0.00877909  0.49618679  1
  V  V67  1  0.49740517  0.12755800  0.12111434  1
  V  V68  1  0.39691744  -0.01079752  0.88087534  1
  V  V69  1  0.87319596  0.75048086  0.12502466  1
  V  V70  1  0.87664519  0.37661930  -0.01202930  1
  V  V71  1  0.49248044  0.25588212  0.25289367  1
  V  V72  1  0.12682630  0.49570516  0.62538866  1
  V  V73  1  0.81280804  0.30364223  0.57316734  1
  V  V74  1  0.37442136  0.12323658  0.24726366  1
  V  V75  1  0.66682323  0.80995380  0.31511301  1
  V  V76  1  0.25084424  0.49297922  0.74572483  1
  V  V77  1  0.12798139  0.36976977  0.73955589  1
  V  V78  1  0.25141754  0.11318005  0.87710301  1
  V  V79  1  0.87887201  0.12307064  0.75112404  1
  V  V80  1  0.25459253  0.24624571  0.00958099  1
  V  V81  1  0.49980574  0.87469832  0.37662314  1
  V  V82  1  -0.00444029  0.37259673  0.37541103  1
  V  V83  1  -0.00331999  0.61695157  0.11482085  1
  V  V84  1  0.00275518  0.75232576  0.74721181  1
  Zn  Zn85  1  -0.00205496  0.24592853  0.25221574  1
  Zn  Zn86  1  0.24641210  0.25267823  0.51088383  1
  Zn  Zn87  1  0.74688937  0.62912938  0.37194305  1
  Zn  Zn88  1  0.00243197  0.75294372  0.24573870  1
  Zn  Zn89  1  0.74365765  0.87590250  0.13548979  1
  Zn  Zn90  1  0.86876721  0.63030709  0.75533465  1
  Zn  Zn91  1  0.12974735  0.12360985  0.49909748  1
  Zn  Zn92  1  0.25307575  0.36962867  0.12858787  1
  Zn  Zn93  1  0.64876437  0.13559172  0.50263697  1
  Zn  Zn94  1  0.75224947  -0.00040215  0.74949807  1
  Zn  Zn95  1  0.12488188  0.62475915  -0.00149511  1
  Zn  Zn96  1  0.87242173  0.88061676  0.50253423  1
  Zn  Zn97  1  0.87397948  -0.00180493  0.87652410  1
  Zn  Zn98  1  0.88332628  0.52295693  0.88802951  1
  Zn  Zn99  1  0.33822004  -0.04305225  0.31708718  1
  Zn  Zn100  1  0.25823434  -0.00570550  0.74658386  1
  Zn  Zn101  1  0.24969377  0.75433893  0.01778560  1
  Zn  Zn102  1  0.61654749  0.36864487  0.74411039  1
  Zn  Zn103  1  0.62564328  0.61941685  -0.00624188  1
  Zn  Zn104  1  0.36756100  0.26383087  0.64199763  1
  Zn  Zn105  1  0.00599591  0.38367544  0.87814099  1
  Zn  Zn106  1  0.12930559  0.75019356  0.87991291  1
  Zn  Zn107  1  0.18567023  0.18221926  0.19121274  1
  Zn  Zn108  1  0.19129356  0.18472608  0.68741310  1
  Zn  Zn109  1  0.18360929  0.68056347  0.18658241  1
  Zn  Zn110  1  0.18829043  0.68439412  0.68709184  1
  Zn  Zn111  1  0.68105960  0.19021370  0.18500437  1
  Zn  Zn112  1  0.70141935  0.18622999  0.66803923  1
  Zn  Zn113  1  0.68922332  0.68191654  0.17912475  1
  Zn  Zn114  1  0.68494130  0.68255565  0.68481432  1
  Zn  Zn115  1  0.31188199  0.31246403  0.31745893  1
  Zn  Zn116  1  0.30959501  0.31016726  0.82031495  1
  Zn  Zn117  1  0.28840898  0.83071420  0.19191166  1
  Zn  Zn118  1  0.31536982  0.81257672  0.81777855  1
  Zn  Zn119  1  0.81170575  0.31037889  0.31302969  1
  Zn  Zn120  1  0.79967905  0.30899775  0.79003674  1
  Zn  Zn121  1  0.83059180  0.81550029  0.31449132  1
  Zn  Zn122  1  0.81283064  0.80916866  0.81313764  1
  Zn  Zn123  1  0.18660150  0.43747847  0.43442355  1
  Zn  Zn124  1  0.19191563  0.43334442  0.93521940  1
  Zn  Zn125  1  0.20988284  0.90707258  0.38162933  1
  Zn  Zn126  1  0.18984215  0.93261129  0.94471985  1
  Zn  Zn127  1  0.69400604  0.42788809  0.44412166  1
  Zn  Zn128  1  0.68628520  0.43349169  0.93503603  1
  Zn  Zn129  1  0.68521063  0.94716126  0.44685731  1
  Zn  Zn130  1  0.68793606  0.93378681  0.93502456  1
  Zn  Zn131  1  0.31709246  0.05423949  0.06365898  1
  Zn  Zn132  1  0.31385558  0.07059297  0.56237646  1
  Zn  Zn133  1  0.31095998  0.56177597  0.06703660  1
  Zn  Zn134  1  0.31199818  0.56147375  0.56259869  1
  Zn  Zn135  1  0.80787898  0.05978076  0.06499808  1
  Zn  Zn136  1  0.81346107  0.07413221  0.56300916  1
  Zn  Zn137  1  0.80936550  0.56024925  0.06232877  1
  Zn  Zn138  1  0.81388927  0.56997283  0.55963394  1
  Zn  Zn139  1  0.43656353  0.43795462  0.18511387  1
  Zn  Zn140  1  0.44354388  0.43692555  0.68333912  1
  Zn  Zn141  1  0.45453806  0.93877792  0.17886460  1
  Zn  Zn142  1  0.43791512  0.94020157  0.68783267  1
  Zn  Zn143  1  0.93644899  0.43433779  0.18674775  1
  Zn  Zn144  1  0.93342316  0.43623827  0.69496938  1
  Zn  Zn145  1  0.93508847  0.93961922  0.19091372  1
  Zn  Zn146  1  0.93940132  0.93892998  0.68723584  1
  Zn  Zn147  1  0.06175588  0.06258405  0.31327643  1
  Zn  Zn148  1  0.06742664  0.05761076  0.81370852  1
  Zn  Zn149  1  0.05987819  0.56064430  0.30928573  1
  Zn  Zn150  1  0.06107429  0.56095449  0.81515740  1
  Zn  Zn151  1  0.56045711  0.06961202  0.31511504  1
  Zn  Zn152  1  0.56416469  0.06844139  0.80964195  1
  Zn  Zn153  1  0.55844774  0.56525509  0.31080763  1
  Zn  Zn154  1  0.54701584  0.53156104  0.79572165  1
  Zn  Zn155  1  0.44035384  0.19138029  0.43293365  1
  Zn  Zn156  1  0.43741264  0.18415911  0.93735617  1
  Zn  Zn157  1  0.43563950  0.68961412  0.43008777  1
  Zn  Zn158  1  0.43594027  0.68745417  0.93715030  1
  Zn  Zn159  1  0.93650856  0.18436108  0.43822028  1
  Zn  Zn160  1  0.93756400  0.18757615  0.93937538  1
  Zn  Zn161  1  0.93503917  0.68672148  0.43958935  1
  Zn  Zn162  1  0.94015237  0.69135282  0.93524886  1
  Zn  Zn163  1  0.05959437  0.30806067  0.06344645  1
  Zn  Zn164  1  -0.01927984  0.31152487  0.56366239  1
  Zn  Zn165  1  0.06530752  0.80822961  0.06375297  1
  Zn  Zn166  1  0.06504630  0.81558545  0.55812038  1
  Zn  Zn167  1  0.56300945  0.30960587  0.06273988  1
  Zn  Zn168  1  0.55773483  0.31700403  0.55726793  1
  Zn  Zn169  1  0.56107916  0.81610741  0.05760430  1
  Zn  Zn170  1  0.55945373  0.81561605  0.56574807  1
  O  O171  1  0.11564683  0.11746112  0.12243293  1
  O  O172  1  0.11684808  0.11296526  0.62811036  1
  O  O173  1  0.11269391  0.61141818  0.12554139  1
  O  O174  1  0.11879207  0.61783656  0.61743639  1
  O  O175  1  0.62308891  0.11688647  0.11625347  1
  O  O176  1  0.61160772  0.11958867  0.63268737  1
  O  O177  1  0.61523173  0.61407819  0.12220733  1
  O  O178  1  0.61745802  0.61834977  0.60972299  1
  O  O179  1  0.37217794  0.38979988  0.38316369  1
  O  O180  1  0.36947590  0.38676209  0.88543804  1
  O  O181  1  0.39366380  0.88386000  0.38976941  1
  O  O182  1  0.38210321  0.88787040  0.86999858  1
  O  O183  1  0.88290021  0.38298128  0.36943219  1
  O  O184  1  0.86899144  0.36612268  0.88674245  1
  O  O185  1  0.88090221  0.89087804  0.38253033  1
  O  O186  1  0.88250841  0.87522414  0.88275204  1
  O  O187  1  0.25261390  0.01625444  0.37884356  1
  O  O188  1  0.24881524  0.00829798  0.87495530  1
  O  O189  1  0.25426097  0.49806349  0.36188245  1
  O  O190  1  0.25666362  0.50678750  0.86787058  1
  O  O191  1  0.76432274  0.00337928  0.38600604  1
  O  O192  1  0.75031227  0.01220692  0.87267517  1
  O  O193  1  0.75688817  0.49791837  0.37229088  1
  O  O194  1  0.74811419  0.50899615  0.87121487  1
  O  O195  1  0.23988592  0.49484540  0.13638013  1
  O  O196  1  0.24400339  0.50377736  0.63770704  1
  O  O197  1  0.23558783  1.00107467  0.12385458  1
  O  O198  1  0.23896022  1.00365919  0.62481370  1
  O  O199  1  0.74230141  0.49442344  0.13235433  1
  O  O200  1  0.73839441  0.50006466  0.61028281  1
  O  O201  1  0.73459950  0.99556969  0.12402402  1
  O  O202  1  0.73782575  0.99636064  0.62567712  1
  O  O203  1  0.00672891  0.37340022  0.25959515  1
  O  O204  1  0.00713228  0.36286913  0.75386333  1
  O  O205  1  -0.00984311  0.87112717  0.26592019  1
  O  O206  1  0.00744430  0.87049649  0.75660357  1
  O  O207  1  0.50722464  0.36432268  0.24165891  1
  O  O208  1  0.51700291  0.42156970  0.76319712  1
  O  O209  1  0.49932011  0.86754397  0.26043786  1
  O  O210  1  0.50942357  0.86289702  0.73985766  1
  O  O211  1  0.49564762  0.13834990  0.24440860  1
  O  O212  1  0.49030896  0.12116025  0.74021346  1
  O  O213  1  0.49344636  0.63243188  0.24309940  1
  O  O214  1  0.49283385  0.62658853  0.73812983  1
  O  O215  1  0.99138957  0.12305825  0.23950861  1
  O  O216  1  0.99864867  0.12758564  0.74910922  1
  O  O217  1  0.98656629  0.62303952  0.24079233  1
  O  O218  1  1.00419636  0.63469185  0.73777818  1
  O  O219  1  0.36620095  0.25700413  -0.00844423  1
  O  O220  1  0.37787298  0.27069123  0.49266489  1
  O  O221  1  0.37333455  0.76137412  -0.00122773  1
  O  O222  1  0.36879409  0.75464992  0.50404831  1
  O  O223  1  0.86250057  0.25318294  0.00420335  1
  O  O224  1  0.88625548  0.25086400  0.51601485  1
  O  O225  1  0.86890893  0.75705406  0.00651483  1
  O  O226  1  0.85995579  0.75184432  0.50386921  1
  O  O227  1  0.12329731  0.24997173  0.48529224  1
  O  O228  1  0.13035790  0.24134775  0.99546550  1
  O  O229  1  0.13187444  0.74174901  0.49739149  1
  O  O230  1  0.13137606  0.74481243  0.99747629  1
  O  O231  1  0.61213282  0.25248198  0.48100371  1
  O  O232  1  0.63539177  0.24126644  0.99462731  1
  O  O233  1  0.63350111  0.74444530  0.50608988  1
  O  O234  1  0.63111311  0.75004150  0.98834750  1
  O  O235  1  0.51197963  0.23864040  0.13964003  1
  O  O236  1  0.49263483  0.24464070  0.62294565  1
  O  O237  1  0.50903021  0.74018529  0.13297974  1
  O  O238  1  0.49335185  0.73987457  0.62966963  1
  O  O239  1  0.99204481  0.23795667  0.12678678  1
  O  O240  1  1.01242008  0.23687727  0.64195570  1
  O  O241  1  0.98744515  0.74195319  0.12626611  1
  O  O242  1  0.99717054  0.74520385  0.62805087  1
  O  O243  1  0.00484674  0.25653817  0.37319036  1
  O  O244  1  0.01439251  0.24604197  0.87202562  1
  O  O245  1  0.00192772  0.75722855  0.37722110  1
  O  O246  1  0.00483300  0.76136781  0.86529859  1
  O  O247  1  0.50965884  0.24909092  0.35732909  1
  O  O248  1  0.51443218  0.24220366  0.87441852  1
  O  O249  1  0.50223539  0.76140564  0.36650208  1
  O  O250  1  0.50374952  0.74377317  0.85876056  1
  O  O251  1  0.24918941  0.13196380  0.49094327  1
  O  O252  1  0.24825565  0.12777850  0.99574202  1
  O  O253  1  0.23958146  0.63084583  0.50429027  1
  O  O254  1  0.25045858  0.62354462  0.99125751  1
  O  O255  1  0.74646110  0.16364447  0.55587235  1
  O  O256  1  0.74529703  0.13056664  0.99187537  1
  O  O257  1  0.74168487  0.63681806  0.49447669  1
  O  O258  1  0.74557926  0.63858020  1.00694873  1
  O  O259  1  0.25743081  0.36302166  0.00161577  1
  O  O260  1  0.26342465  0.37748741  0.49734911  1
  O  O261  1  0.27134838  0.86952524  -0.01099117  1
  O  O262  1  0.26410242  0.86718520  0.48682232  1
  O  O263  1  0.75513126  0.36546797  0.00385305  1
  O  O264  1  0.75179855  0.35726915  0.51393413  1
  O  O265  1  0.75969887  0.86563822  -0.00057390  1
  O  O266  1  0.74757241  0.87046786  0.50956046  1
  O  O267  1  0.12989523  0.49077545  0.24559087  1
  O  O268  1  0.13296345  0.49063442  0.74692755  1
  O  O269  1  0.12187662  1.00086993  0.23886068  1
  O  O270  1  0.12774212  0.98996893  0.74123086  1
  O  O271  1  0.62650739  0.49293251  0.24670841  1
  O  O272  1  0.64076102  0.51554703  0.72791923  1
  O  O273  1  0.62353344  1.00551264  0.24093674  1
  O  O274  1  0.62534542  0.99246507  0.74465538  1
  O  O275  1  0.39709042  0.01820289  0.24579328  1
  O  O276  1  0.37590788  0.00609126  0.76240627  1
  O  O277  1  0.36761697  0.50195504  0.25520172  1
  O  O278  1  0.36719500  0.50221941  0.75688675  1
  O  O279  1  0.87440444  0.00652453  0.26602820  1
  O  O280  1  0.87639818  0.00993456  0.75520396  1
  O  O281  1  0.86961790  0.50408718  0.25817359  1
  O  O282  1  0.85789825  0.50011559  0.75218307  1
  O  O283  1  0.11959032  0.36907528  0.36513538  1
  O  O284  1  0.12573833  0.36320932  0.86946528  1
  O  O285  1  0.11025430  0.85749121  0.38520476  1
  O  O286  1  0.11822712  0.87391974  0.86750287  1
  O  O287  1  0.62769947  0.37094923  0.36428959  1
  O  O288  1  0.62706328  0.35409708  0.87890317  1
  O  O289  1  0.61850272  0.87854591  0.38037103  1
  O  O290  1  0.62711763  0.86621231  0.86152739  1
  O  O291  1  0.38733632  0.12238855  0.12843179  1
  O  O292  1  0.38290980  0.12513387  0.63851679  1
  O  O293  1  0.38604207  0.61562782  0.13846308  1
  O  O294  1  0.38163380  0.63157318  0.62787448  1
  O  O295  1  0.87971340  0.12604988  0.13077467  1
  O  O296  1  0.89427289  0.11755185  0.63858385  1
  O  O297  1  0.87787091  0.62850689  0.13000191  1
  O  O298  1  0.88448451  0.63379635  0.62678170  1
  O  O299  1  0.24301614  0.24770392  0.11251451  1
  O  O300  1  0.25733070  0.24607314  0.62364293  1
  O  O301  1  0.25037517  0.74774215  0.13155379  1
  O  O302  1  0.26141538  0.74477605  0.61687405  1
  O  O303  1  0.75191508  0.25385071  0.11473394  1
  O  O304  1  0.77047884  0.27828856  0.66499420  1
  O  O305  1  0.75901043  0.75363295  0.11836287  1
  O  O306  1  0.75219396  0.75638457  0.61856944  1
  O  O307  1  0.24197192  0.24246646  0.37737266  1
  O  O308  1  0.24052964  0.23744370  0.88467255  1
  O  O309  1  0.23614802  0.74277570  0.38714867  1
  O  O310  1  0.25122373  0.73365342  0.86966667  1
  O  O311  1  0.73417163  0.25274459  0.37308125  1
  O  O312  1  0.74638176  0.23857631  0.87773890  1
  O  O313  1  0.74216186  0.75682586  0.37823868  1
  O  O314  1  0.73945199  0.75267230  0.88158083  1
  O  O315  1  0.00276114  0.11824786  0.01158624  1
  O  O316  1  0.00495029  0.11877953  0.51011098  1
  O  O317  1  0.00012983  0.62734892  0.01176375  1
  O  O318  1  0.00566788  0.62124261  0.51130375  1
  O  O319  1  0.51090875  0.13369565  0.01008323  1
  O  O320  1  0.49289451  0.12083607  0.51073711  1
  O  O321  1  0.49958828  0.62006051  0.00985024  1
  O  O322  1  0.50448004  0.62293925  0.50159381  1
  O  O323  1  0.48927744  0.39041734  0.49773254  1
  O  O324  1  0.49279874  0.38240604  1.00552357  1
  O  O325  1  0.49569121  0.88345625  0.49662382  1
  O  O326  1  0.48080684  0.87286939  1.00059723  1
  O  O327  1  1.00842945  0.38544819  0.48287039  1
  O  O328  1  0.98057484  0.36284891  0.99703239  1
  O  O329  1  0.99419359  0.88404077  0.49378819  1
  O  O330  1  0.99064328  0.87412196  0.99354681  1
  O  O331  1  0.48991984  0.50545705  0.38174360  1
  O  O332  1  0.48824531  0.51154884  0.89378318  1
  O  O333  1  0.50887953  0.99773914  0.39057462  1
  O  O334  1  0.49476125  1.00340457  0.87664159  1
  O  O335  1  0.99173074  0.49306666  0.37715799  1
  O  O336  1  0.99151728  0.49449233  0.86810352  1
  O  O337  1  0.99632560  0.99505827  0.38360495  1
  O  O338  1  1.00060389  0.98810043  0.88286494  1
  O  O339  1  0.00382410  0.00401585  0.12189480  1
  O  O340  1  0.00742633  0.00387632  0.61859340  1
  O  O341  1  0.00692292  0.50496351  0.12898605  1
  O  O342  1  0.00432601  0.50723022  0.62373444  1
  O  O343  1  0.51766925  0.01531418  0.12287750  1
  O  O344  1  0.50994867  0.00408652  0.61744153  1
  O  O345  1  0.50344072  0.50702102  0.11670434  1
  O  O346  1  0.50436644  0.51437343  0.61080980  1
  O  O347  1  0.24106215  0.37786690  0.24848664  1
  O  O348  1  0.24247901  0.38281593  0.75774163  1
  O  O349  1  0.25966248  0.88664320  0.28036993  1
  O  O350  1  0.23855612  0.87365583  0.75377663  1
  O  O351  1  0.74183768  0.37947686  0.24489331  1
  O  O352  1  0.73445005  0.40020029  0.75833779  1
  O  O353  1  0.73782218  0.86021375  0.25709201  1
  O  O354  1  0.74242255  0.87606846  0.74339078  1
  O  O355  1  0.26585113  0.13225701  0.25514612  1
  O  O356  1  0.25802592  0.11909834  0.76179206  1
  O  O357  1  0.25868467  0.61357114  0.24694865  1
  O  O358  1  0.25574168  0.61541514  0.75526782  1
  O  O359  1  0.75946565  0.12874444  0.24305373  1
  O  O360  1  0.76237775  0.12404380  0.75496351  1
  O  O361  1  0.75979482  0.61785981  0.25048683  1
  O  O362  1  0.75369271  0.60977906  0.73844056  1
  O  O363  1  0.36911002  0.13185033  0.36361947  1
  O  O364  1  0.37002948  0.11217936  0.87329894  1
  O  O365  1  0.37823082  0.61516999  0.36020729  1
  O  O366  1  0.36887349  0.61444388  0.86929000  1
  O  O367  1  0.87908390  0.11555190  0.36688615  1
  O  O368  1  0.86896236  0.12143332  0.87150573  1
  O  O369  1  0.87248406  0.61806700  0.36626506  1
  O  O370  1  0.87363888  0.63412438  0.86910527  1
  O  O371  1  0.12160742  0.37727314  0.13489930  1
  O  O372  1  0.11961487  0.37976000  0.63856114  1
  O  O373  1  0.12058729  0.88556163  0.12679116  1
  O  O374  1  0.11966525  0.88366036  0.63378773  1
  O  O375  1  0.63082824  0.37909786  0.13333799  1
  O  O376  1  0.61627417  0.39316248  0.62259320  1
  O  O377  1  0.62258351  0.89202887  0.12240960  1
  O  O378  1  0.62902488  0.88370762  0.63301359  1
  O  O379  1  0.12144104  0.25700119  0.25687549  1
  O  O380  1  0.12203702  0.25283600  0.75991166  1
  O  O381  1  0.11831978  0.73523401  0.26660101  1
  O  O382  1  0.11577717  0.75653261  0.74636213  1
  O  O383  1  0.61897722  0.25664590  0.25905457  1
  O  O384  1  0.62890682  0.25020660  0.76023561  1
  O  O385  1  0.61833595  0.74233916  0.25254700  1
  O  O386  1  0.61821987  0.75359873  0.75216344  1
  O  O387  1  0.38825492  0.24973288  0.25119383  1
  O  O388  1  0.37314242  0.23660298  0.75976125  1
  O  O389  1  0.38736910  0.74187257  0.24994361  1
  O  O390  1  0.38048675  0.74626290  0.74167974  1
  O  O391  1  0.87585484  0.24181289  0.24324584  1
  O  O392  1  0.89119507  0.23721327  0.76383606  1
  O  O393  1  0.87614759  0.73951406  0.24206804  1
  O  O394  1  0.88877085  0.75431557  0.74139747  1
  O  O395  1  0.37908441  0.49690403  0.49194041  1
  O  O396  1  0.37904074  0.49181699  0.99585797  1
  O  O397  1  0.38485191  0.99288835  0.51141505  1
  O  O398  1  0.37407068  0.98948522  0.98598577  1
  O  O399  1  0.88147619  0.50858103  0.48685509  1
  O  O400  1  0.86462529  0.48128798  0.99862109  1
  O  O401  1  0.88337698  1.00806398  0.49290471  1
  O  O402  1  0.88024091  0.98952646  1.00179348  1
  O  O403  1  0.11830058  0.00268756  0.00818120  1
  O  O404  1  0.11225429  0.00151271  0.50809448  1
  O  O405  1  0.13072385  0.49568211  0.01297395  1
  O  O406  1  0.12092412  0.50568684  0.50442415  1
  O  O407  1  0.62948028  0.01098389  -0.00203597  1
  O  O408  1  0.61926647  0.01563867  0.51067952  1
  O  O409  1  0.61674542  0.49807934  0.00439770  1
  O  O410  1  0.61900503  0.50483239  0.50228775  1
  O  O411  1  0.37119111  0.37694985  0.11199248  1
  O  O412  1  0.37964801  0.37931174  0.60921425  1
  O  O413  1  0.37434281  0.88020352  0.12007757  1
  O  O414  1  0.38133026  0.86476945  0.61602451  1
  O  O415  1  0.86774259  0.36753307  0.11815577  1
  O  O416  1  0.88683907  0.36958681  0.61212987  1
  O  O417  1  0.87133635  0.86737055  0.12109620  1
  O  O418  1  0.86651873  0.87206448  0.62362277  1
  O  O419  1  0.13268212  0.13283969  0.37239249  1
  O  O420  1  0.13233702  0.12692520  0.88380493  1
  O  O421  1  0.11067470  0.62817541  0.39014472  1
  O  O422  1  0.13523050  0.62509417  0.87585810  1
  O  O423  1  0.62837650  0.13759384  0.38038839  1
  O  O424  1  0.63278557  0.13247676  0.87964653  1
  O  O425  1  0.62614870  0.62159302  0.38608341  1
  O  O426  1  0.61792616  0.63416584  0.87196546  1
