# generated using pymatgen
data_V85Zn86O256
_symmetry_space_group_name_H-M   'P 1'
_cell_length_a   16.90876681
_cell_length_b   16.91368087
_cell_length_c   16.91197429
_cell_angle_alpha   90.00672818
_cell_angle_beta   90.03472955
_cell_angle_gamma   89.97744696
_symmetry_Int_Tables_number   1
_chemical_formula_structural   V85Zn86O256
_chemical_formula_sum   'V85 Zn86 O256'
_cell_volume   4836.64553377
_cell_formula_units_Z   1
loop_
 _symmetry_equiv_pos_site_id
 _symmetry_equiv_pos_as_xyz
  1  'x, y, z'
loop_
 _atom_site_type_symbol
 _atom_site_label
 _atom_site_symmetry_multiplicity
 _atom_site_fract_x
 _atom_site_fract_y
 _atom_site_fract_z
 _atom_site_occupancy
  V  V0  1  0.00247954  0.51273410  -0.00311037  1
  V  V1  1  0.13056581  0.38064115  0.75340943  1
  V  V2  1  0.12008934  0.11943326  -0.00077264  1
  V  V3  1  0.00138432  0.37350273  0.35887823  1
  V  V4  1  0.50067341  0.25260435  0.25044721  1
  V  V5  1  0.62784635  0.24600643  0.37499197  1
  V  V6  1  0.13112509  0.50274058  0.62948155  1
  V  V7  1  0.37505979  0.12571402  0.25115629  1
  V  V8  1  -0.01136488  0.62723275  0.62647324  1
  V  V9  1  0.24915114  0.12580073  0.37550268  1
  V  V10  1  0.37864518  0.75405402  0.11869076  1
  V  V11  1  0.12707632  0.62253553  0.49686861  1
  V  V12  1  0.25015107  0.87992897  0.63021845  1
  V  V13  1  0.36562899  0.62131174  0.74878916  1
  V  V14  1  0.23661010  0.37702887  0.12865866  1
  V  V15  1  0.12561788  0.87542526  0.75233941  1
  V  V16  1  0.50191224  0.12384393  0.12403124  1
  V  V17  1  0.24965163  0.11754203  0.86873176  1
  V  V18  1  0.50833515  0.49581800  -0.00071228  1
  V  V19  1  0.37712384  0.37751772  -0.00286768  1
  V  V20  1  0.50842692  0.74784223  0.75197435  1
  V  V21  1  0.24932317  0.24991810  -0.00270136  1
  V  V22  1  0.00021621  0.49890006  0.49774340  1
  V  V23  1  0.25168666  0.74548790  0.49795112  1
  V  V24  1  0.12451523  0.25119566  0.87369996  1
  V  V25  1  -0.00040247  0.74388759  0.24388343  1
  V  V26  1  0.37577983  -0.00036210  0.37597672  1
  V  V27  1  -0.00138363  0.87426252  0.37484602  1
  V  V28  1  0.76033339  0.62846745  0.86819976  1
  V  V29  1  0.24588071  0.75370750  -0.00190328  1
  V  V30  1  0.37716510  0.24805545  0.62848660  1
  V  V31  1  0.75094794  0.12942264  0.87847880  1
  V  V32  1  -0.01309829  0.74835351  0.74447860  1
  V  V33  1  0.62554048  0.63173684  -0.01188050  1
  V  V34  1  0.63338995  0.74326352  0.37592455  1
  V  V35  1  0.87237410  0.14347621  0.24742200  1
  V  V36  1  0.62026169  0.25498146  0.87349621  1
  V  V37  1  0.87649248  0.37488385  0.49923681  1
  V  V38  1  0.24778494  0.25135167  0.50094014  1
  V  V39  1  0.00138346  -0.00102309  0.50360961  1
  V  V40  1  0.63052920  0.87529897  0.25118503  1
  V  V41  1  0.87315581  0.12406437  0.75215185  1
  V  V42  1  0.86986719  0.00678770  0.37291917  1
  V  V43  1  0.12925165  0.74637914  0.37379909  1
  V  V44  1  0.50573536  -0.00145200  0.50947661  1
  V  V45  1  0.50938316  0.62133796  0.12502547  1
  V  V46  1  0.37358060  -0.00972465  0.88230392  1
  V  V47  1  -0.00134625  0.25012006  0.75400357  1
  V  V48  1  0.37648836  0.74747395  0.62566001  1
  V  V49  1  0.61682469  0.38541367  0.75091309  1
  V  V50  1  0.62935827  0.61702225  0.50058035  1
  V  V51  1  0.50550660  0.61635722  0.62625312  1
  V  V52  1  0.50439247  0.87391774  0.37632012  1
  V  V53  1  0.86458162  0.50383572  0.37345514  1
  V  V54  1  0.36801755  0.62262585  0.25275209  1
  V  V55  1  0.75519806  0.87835375  0.11574198  1
  V  V56  1  0.73816661  0.00262955  0.74388205  1
  V  V57  1  0.50031186  0.37916681  0.37433273  1
  V  V58  1  0.87034732  0.62804312  0.24797050  1
  V  V59  1  0.50613008  0.86839868  0.88348435  1
  V  V60  1  0.75198855  0.24631475  0.49778614  1
  V  V61  1  0.37483718  0.49717798  0.87260618  1
  V  V62  1  0.87091845  0.38224067  0.01797155  1
  V  V63  1  0.12018697  0.25352642  0.35972419  1
  V  V64  1  0.11950456  0.51958343  0.12591973  1
  V  V65  1  0.74545114  0.38123193  0.62431174  1
  V  V66  1  0.76570000  0.50108279  0.75340044  1
  V  V67  1  0.37663319  0.87283582  0.49974637  1
  V  V68  1  0.75011812  0.87200923  0.62496917  1
  V  V69  1  -0.01339256  0.37958536  0.87576410  1
  V  V70  1  0.12401859  0.12736895  0.50078260  1
  V  V71  1  -0.00498023  0.87124284  0.88268244  1
  V  V72  1  0.62957511  0.12199538  0.50590144  1
  V  V73  1  0.87039627  -0.00531710  0.88397428  1
  V  V74  1  0.75091205  0.25841947  0.01246962  1
  V  V75  1  0.74439637  0.50340322  0.23235949  1
  V  V76  1  0.87576640  0.75111203  0.11430133  1
  V  V77  1  0.37514913  0.37560744  0.50035257  1
  V  V78  1  0.24469990  0.62021176  0.88172357  1
  V  V79  1  0.75974466  0.74364955  0.50280736  1
  V  V80  1  0.37338467  0.25305376  0.12514087  1
  V  V81  1  0.37626235  0.11609682  0.75069409  1
  V  V82  1  0.12884337  0.87707027  0.24695784  1
  V  V83  1  0.62841991  0.37918106  0.23819495  1
  V  V84  1  -0.00023936  0.12494869  0.62771548  1
  Zn  Zn85  1  0.36795707  0.50584794  0.37835896  1
  Zn  Zn86  1  0.62216116  0.87603762  0.74637075  1
  Zn  Zn87  1  0.25232375  0.37933951  0.63051344  1
  Zn  Zn88  1  0.50524952  0.49643480  0.50395798  1
  Zn  Zn89  1  0.87965929  0.86942775  0.50784243  1
  Zn  Zn90  1  0.25647373  0.88107812  0.11636777  1
  Zn  Zn91  1  0.50659804  0.12043436  0.63180906  1
  Zn  Zn92  1  0.74831040  0.75653716  -0.01181152  1
  Zn  Zn93  1  -0.00417649  -0.00641553  0.00596914  1
  Zn  Zn94  1  0.87497401  0.25106847  0.62530012  1
  Zn  Zn95  1  0.49917530  -0.00610856  0.00535505  1
  Zn  Zn96  1  0.23920471  0.49966760  0.25828851  1
  Zn  Zn97  1  0.50222981  0.74685589  0.25019535  1
  Zn  Zn98  1  0.62647254  0.12597079  0.00353569  1
  Zn  Zn99  1  0.24956712  -0.00044882  0.24814927  1
  Zn  Zn100  1  0.12121058  0.74333736  0.87518997  1
  Zn  Zn101  1  0.62569592  0.00100434  0.12574711  1
  Zn  Zn102  1  0.49908297  0.25111804  0.75557455  1
  Zn  Zn103  1  0.00010956  0.12984663  0.13830279  1
  Zn  Zn104  1  0.74920656  0.00671108  0.25297163  1
  Zn  Zn105  1  0.12521963  -0.00121891  0.12342317  1
  Zn  Zn106  1  0.12920683  0.00232781  0.63305827  1
  Zn  Zn107  1  0.18858393  0.18491049  0.18459482  1
  Zn  Zn108  1  0.18886186  0.18848464  0.68882426  1
  Zn  Zn109  1  0.19088354  0.69163547  0.18439363  1
  Zn  Zn110  1  0.18350942  0.69174169  0.68764360  1
  Zn  Zn111  1  0.69233942  0.18567557  0.19285345  1
  Zn  Zn112  1  0.68787394  0.19352361  0.68615029  1
  Zn  Zn113  1  0.68967492  0.68828735  0.18477319  1
  Zn  Zn114  1  0.69090293  0.68526048  0.68491678  1
  Zn  Zn115  1  0.30954971  0.31591535  0.31271697  1
  Zn  Zn116  1  0.31278422  0.31077997  0.81301690  1
  Zn  Zn117  1  0.31473590  0.80816083  0.31029940  1
  Zn  Zn118  1  0.31540304  0.80924571  0.81290482  1
  Zn  Zn119  1  0.80875101  0.32060502  0.31239435  1
  Zn  Zn120  1  0.80859118  0.31223422  0.81402980  1
  Zn  Zn121  1  0.81290186  0.81426115  0.31338522  1
  Zn  Zn122  1  0.81020726  0.81388754  0.80898063  1
  Zn  Zn123  1  0.18809364  0.43552783  0.43482780  1
  Zn  Zn124  1  0.18518150  0.43996656  0.94029003  1
  Zn  Zn125  1  0.18718223  0.93591701  0.43809417  1
  Zn  Zn126  1  0.18712289  0.93420328  0.93386852  1
  Zn  Zn127  1  0.68736364  0.43493867  0.43315676  1
  Zn  Zn128  1  0.68987267  0.44080147  0.93389050  1
  Zn  Zn129  1  0.68900515  0.93354299  0.44281319  1
  Zn  Zn130  1  0.68034322  0.94255576  0.93785631  1
  Zn  Zn131  1  0.31060640  0.06206390  0.06120418  1
  Zn  Zn132  1  0.31476250  0.06191157  0.56215381  1
  Zn  Zn133  1  0.31347949  0.56411532  0.06427131  1
  Zn  Zn134  1  0.31278712  0.56156125  0.56098327  1
  Zn  Zn135  1  0.81159599  0.06670038  0.06606850  1
  Zn  Zn136  1  0.81348395  0.05994900  0.56345305  1
  Zn  Zn137  1  0.81552260  0.56807514  0.05787878  1
  Zn  Zn138  1  0.80941701  0.55857644  0.56387403  1
  Zn  Zn139  1  0.43633194  0.44004206  0.18364450  1
  Zn  Zn140  1  0.43623482  0.43831158  0.68927263  1
  Zn  Zn141  1  0.43976268  0.93595312  0.19124451  1
  Zn  Zn142  1  0.43670646  0.93463798  0.69183878  1
  Zn  Zn143  1  0.93970255  0.44516690  0.18525268  1
  Zn  Zn144  1  0.94209992  0.43642373  0.68347458  1
  Zn  Zn145  1  0.94043531  0.93989228  0.18634929  1
  Zn  Zn146  1  0.93330547  0.93668380  0.69173928  1
  Zn  Zn147  1  0.05813647  0.06417147  0.31221464  1
  Zn  Zn148  1  0.05974820  0.05747900  0.81716566  1
  Zn  Zn149  1  0.05961620  0.56183679  0.31123210  1
  Zn  Zn150  1  0.05787768  0.56367292  0.81210544  1
  Zn  Zn151  1  0.56373971  0.06205170  0.31495920  1
  Zn  Zn152  1  0.56016563  0.06306383  0.81934168  1
  Zn  Zn153  1  0.56180579  0.56254225  0.31244146  1
  Zn  Zn154  1  0.56021180  0.56109376  0.81467806  1
  Zn  Zn155  1  0.44120819  0.18759788  0.44020010  1
  Zn  Zn156  1  0.43636368  0.18635929  0.93765138  1
  Zn  Zn157  1  0.44401660  0.68626327  0.43610185  1
  Zn  Zn158  1  0.43476090  0.68570109  0.93796377  1
  Zn  Zn159  1  0.93848616  0.18768585  0.43390761  1
  Zn  Zn160  1  0.95159339  0.20644723  0.97299704  1
  Zn  Zn161  1  0.93928753  0.68392113  0.43365721  1
  Zn  Zn162  1  0.93299974  0.68811388  0.93111050  1
  Zn  Zn163  1  0.05900409  0.31148410  0.06497932  1
  Zn  Zn164  1  0.06186010  0.31362680  0.56369907  1
  Zn  Zn165  1  0.06651684  0.80777119  0.06276867  1
  Zn  Zn166  1  0.06398196  0.81132457  0.56521082  1
  Zn  Zn167  1  0.56135298  0.31111593  0.06000184  1
  Zn  Zn168  1  0.56277164  0.31095661  0.56583698  1
  Zn  Zn169  1  0.56722745  0.80913691  0.06429777  1
  Zn  Zn170  1  0.56881842  0.80738814  0.56516051  1
  O  O171  1  0.12538586  0.12330325  0.11165667  1
  O  O172  1  0.11993377  0.12231029  0.62088633  1
  O  O173  1  0.12692625  0.61795962  0.12127318  1
  O  O174  1  0.11969387  0.62090935  0.61543811  1
  O  O175  1  0.61563426  0.12598621  0.12845369  1
  O  O176  1  0.62373862  0.13198023  0.61102233  1
  O  O177  1  0.61428850  0.62812052  0.11716649  1
  O  O178  1  0.61646036  0.62896348  0.61514947  1
  O  O179  1  0.38372639  0.37120408  0.38454705  1
  O  O180  1  0.36803152  0.38088948  0.88719486  1
  O  O181  1  0.38216070  0.87775186  0.38029936  1
  O  O182  1  0.38646946  0.88314747  0.86688507  1
  O  O183  1  0.88227142  0.38317466  0.38059028  1
  O  O184  1  0.88481959  0.37697891  0.87250646  1
  O  O185  1  0.88848241  0.88001606  0.37769915  1
  O  O186  1  0.88010357  0.88282679  0.87027324  1
  O  O187  1  0.25824319  0.00649062  0.37754619  1
  O  O188  1  0.25941040  0.00611408  0.87613057  1
  O  O189  1  0.25488466  0.49482238  0.37030337  1
  O  O190  1  0.26191536  0.50696447  0.88432115  1
  O  O191  1  0.76822857  -0.00834416  0.37965948  1
  O  O192  1  0.75288612  0.00727618  0.86891730  1
  O  O193  1  0.76226748  0.49656603  0.36902604  1
  O  O194  1  0.75030164  0.50672704  0.85916983  1
  O  O195  1  0.23475518  0.49337425  0.12117765  1
  O  O196  1  0.23582405  0.49976785  0.62144947  1
  O  O197  1  0.24832390  0.99627221  0.12938760  1
  O  O198  1  0.24980136  0.98430908  0.61739157  1
  O  O199  1  0.75023488  0.50469299  0.13393634  1
  O  O200  1  0.74994956  0.48955261  0.63594256  1
  O  O201  1  0.75039404  0.98932170  0.12924146  1
  O  O202  1  0.75169780  0.99099636  0.63275338  1
  O  O203  1  -0.00437968  0.37804512  0.25962148  1
  O  O204  1  0.00701043  0.37041688  0.75675082  1
  O  O205  1  0.00885021  0.86628140  0.25758101  1
  O  O206  1  0.00347968  0.86400400  0.75399873  1
  O  O207  1  0.50355038  0.37267107  0.25643377  1
  O  O208  1  0.51292594  0.37271110  0.74670812  1
  O  O209  1  0.51394828  0.87182741  0.25707905  1
  O  O210  1  0.50194653  0.86480150  0.75599497  1
  O  O211  1  0.49523915  0.13147967  0.24396413  1
  O  O212  1  0.49205685  0.12796985  0.75008383  1
  O  O213  1  0.49518854  0.62475771  0.23971455  1
  O  O214  1  0.49244362  0.62910757  0.74473755  1
  O  O215  1  0.98145256  0.12584061  0.25496713  1
  O  O216  1  0.99175788  0.12836764  0.74960891  1
  O  O217  1  0.99237675  0.63813606  0.25228335  1
  O  O218  1  1.00430204  0.63884137  0.74209678  1
  O  O219  1  0.36919774  0.25734979  0.00351950  1
  O  O220  1  0.37063365  0.25743084  0.50657476  1
  O  O221  1  0.36648486  0.74460603  0.01014140  1
  O  O222  1  0.36936022  0.75257294  0.50229900  1
  O  O223  1  0.85803453  0.27053660  -0.01074583  1
  O  O224  1  0.86750947  0.25487860  0.49926007  1
  O  O225  1  0.87087656  0.74496362  0.01092955  1
  O  O226  1  0.86395829  0.74867305  0.49214603  1
  O  O227  1  0.13188013  0.24455127  0.49899582  1
  O  O228  1  0.13247350  0.24262895  0.98989894  1
  O  O229  1  0.13124317  0.74368659  0.49390993  1
  O  O230  1  0.14037007  0.74694877  0.99650688  1
  O  O231  1  0.63131694  0.24516034  0.49460419  1
  O  O232  1  0.63627407  0.25461198  0.99225556  1
  O  O233  1  0.63535367  0.74033778  0.49383775  1
  O  O234  1  0.62963210  0.73611033  0.99998737  1
  O  O235  1  0.49317704  0.24564638  0.13212319  1
  O  O236  1  0.48654996  0.24564648  0.62551040  1
  O  O237  1  0.49442222  0.74117072  0.12497965  1
  O  O238  1  0.49403931  0.74088903  0.63058128  1
  O  O239  1  0.99031508  0.22814649  0.08159987  1
  O  O240  1  0.99773615  0.24366876  0.63500704  1
  O  O241  1  0.99026335  0.75767519  0.13356604  1
  O  O242  1  1.00251099  0.74300911  0.63502642  1
  O  O243  1  0.00925039  0.26092087  0.38077577  1
  O  O244  1  0.00532199  0.25988957  0.87367839  1
  O  O245  1  0.00954418  0.75642261  0.37002201  1
  O  O246  1  -0.00092945  0.75335450  0.86370021  1
  O  O247  1  0.50617374  0.25938885  0.37069235  1
  O  O248  1  0.51561603  0.24554011  0.87777614  1
  O  O249  1  0.51310665  0.75845409  0.37581959  1
  O  O250  1  0.49149494  0.76086557  0.86750014  1
  O  O251  1  0.24604271  0.13153991  0.49520931  1
  O  O252  1  0.24258280  0.12924364  0.98824192  1
  O  O253  1  0.24391864  0.63721601  0.50414883  1
  O  O254  1  0.25640518  0.63473027  0.99099989  1
  O  O255  1  0.74498047  0.13477623  0.50349267  1
  O  O256  1  0.75115928  0.13972423  0.99434034  1
  O  O257  1  0.74279630  0.63161618  0.50697372  1
  O  O258  1  0.74356183  0.62126682  0.98350064  1
  O  O259  1  0.25498647  0.37082739  0.00887862  1
  O  O260  1  0.25794075  0.36657675  0.50432868  1
  O  O261  1  0.25202703  0.85893906  -0.00378322  1
  O  O262  1  0.25433546  0.86345352  0.50506751  1
  O  O263  1  0.76157203  0.37574119  -0.00201058  1
  O  O264  1  0.75385528  0.37171319  0.50749515  1
  O  O265  1  0.74376909  0.87462847  0.01181029  1
  O  O266  1  0.75367703  0.86627242  0.51047944  1
  O  O267  1  0.12223928  0.50601451  0.23223505  1
  O  O268  1  0.11793241  0.49246463  0.74163061  1
  O  O269  1  0.12567413  0.98992082  0.25271321  1
  O  O270  1  0.11807780  0.98256636  0.74965598  1
  O  O271  1  0.63737724  0.49555694  0.25431237  1
  O  O272  1  0.62927931  0.48747066  0.75227756  1
  O  O273  1  0.62926069  0.99125560  0.25159539  1
  O  O274  1  0.63544179  1.00328837  0.75251189  1
  O  O275  1  0.37556211  0.00550291  0.26128174  1
  O  O276  1  0.37831340  0.01057114  0.75861147  1
  O  O277  1  0.37362872  0.51424052  0.24692862  1
  O  O278  1  0.37611271  0.50691176  0.75926537  1
  O  O279  1  0.87516323  -0.00301506  0.26660906  1
  O  O280  1  0.86616315  0.01072731  0.75868427  1
  O  O281  1  0.86535055  0.50765034  0.25166185  1
  O  O282  1  0.86430075  0.49632697  0.74610488  1
  O  O283  1  0.11358936  0.36513332  0.37959082  1
  O  O284  1  0.11812009  0.37182547  0.86992935  1
  O  O285  1  0.11575073  0.86739920  0.37162307  1
  O  O286  1  0.11526814  0.86935366  0.86786597  1
  O  O287  1  0.61664697  0.36659139  0.36903654  1
  O  O288  1  0.63124888  0.36956757  0.86001039  1
  O  O289  1  0.62366529  0.86803536  0.37024196  1
  O  O290  1  0.60981505  0.87650640  0.86951407  1
  O  O291  1  0.37901356  0.13321685  0.13120324  1
  O  O292  1  0.37526079  0.12964923  0.63406448  1
  O  O293  1  0.38371233  0.63282709  0.13271846  1
  O  O294  1  0.38025401  0.62761757  0.63088002  1
  O  O295  1  0.87254788  0.12382063  0.14444707  1
  O  O296  1  0.88060717  0.12605472  0.63480108  1
  O  O297  1  0.86926620  0.63612551  0.13712773  1
  O  O298  1  0.88957356  0.61847921  0.62005856  1
  O  O299  1  0.25291480  0.25975379  0.11901193  1
  O  O300  1  0.26144458  0.25057865  0.61975913  1
  O  O301  1  0.25778681  0.75182844  0.11250900  1
  O  O302  1  0.25585047  0.75705357  0.61691975  1
  O  O303  1  0.74446158  0.25104805  0.11125361  1
  O  O304  1  0.75265969  0.26170433  0.61516869  1
  O  O305  1  0.75734703  0.76150956  0.12256825  1
  O  O306  1  0.75083683  0.75927297  0.61826454  1
  O  O307  1  0.24156954  0.24741281  0.38141589  1
  O  O308  1  0.24511498  0.24163214  0.87905080  1
  O  O309  1  0.23731318  0.75341379  0.38169072  1
  O  O310  1  0.25321607  0.74163579  0.88511656  1
  O  O311  1  0.74088999  0.26028709  0.38857509  1
  O  O312  1  0.74063062  0.24520261  0.88010319  1
  O  O313  1  0.74074946  0.75632490  0.38488701  1
  O  O314  1  0.75227937  0.73511474  0.86989634  1
  O  O315  1  0.01811058  0.11197361  -0.02608261  1
  O  O316  1  0.00373691  0.11864854  0.50630608  1
  O  O317  1  -0.00491407  0.61160797  -0.00772471  1
  O  O318  1  0.00789082  0.62040038  0.50570531  1
  O  O319  1  0.50013170  0.13004134  0.01593371  1
  O  O320  1  0.50843839  0.11539990  0.50255333  1
  O  O321  1  0.50746491  0.61874345  0.00277322  1
  O  O322  1  0.50798019  0.62275023  0.50900233  1
  O  O323  1  0.49452968  0.37445836  0.49407636  1
  O  O324  1  0.48993279  0.38316120  1.00459341  1
  O  O325  1  0.49885950  0.87921250  0.49699214  1
  O  O326  1  0.50298366  0.87039799  0.98742811  1
  O  O327  1  0.99266783  0.38234468  0.49824377  1
  O  O328  1  0.98632156  0.38206966  0.99343830  1
  O  O329  1  1.00079295  0.88085417  0.49493950  1
  O  O330  1  1.00396532  0.87168803  0.98645091  1
  O  O331  1  0.49567935  0.48776984  0.37680448  1
  O  O332  1  0.48470322  0.50406185  0.88445138  1
  O  O333  1  0.49495875  0.99345129  0.38468689  1
  O  O334  1  0.49322436  0.98623196  0.87687160  1
  O  O335  1  0.99306952  0.49264388  0.37899409  1
  O  O336  1  1.00608044  0.49317260  0.88769055  1
  O  O337  1  0.99431985  0.99189295  0.38325013  1
  O  O338  1  0.98695739  0.98653809  0.87261087  1
  O  O339  1  0.00375280  0.00748408  0.12132639  1
  O  O340  1  -0.00013479  0.00446523  0.61847711  1
  O  O341  1  0.01131220  0.50099723  0.11390025  1
  O  O342  1  0.01015080  0.50721800  0.61837186  1
  O  O343  1  0.49898926  0.00960348  0.12614859  1
  O  O344  1  0.49555351  -0.00128523  0.61314599  1
  O  O345  1  0.49457234  0.51014568  0.11221000  1
  O  O346  1  0.49763850  0.51215979  0.62459265  1
  O  O347  1  0.25668403  0.37910374  0.23172500  1
  O  O348  1  0.23520495  0.37025713  0.75001211  1
  O  O349  1  0.23712570  0.87331692  0.25423918  1
  O  O350  1  0.24196021  0.86611389  0.74106762  1
  O  O351  1  0.74234222  0.39150840  0.25105226  1
  O  O352  1  0.74471265  0.38438762  0.74420800  1
  O  O353  1  0.74106894  0.87609685  0.24435179  1
  O  O354  1  0.74595353  0.88325466  0.74233184  1
  O  O355  1  0.25760084  0.12472818  0.25817232  1
  O  O356  1  0.25790892  0.12825577  0.76115892  1
  O  O357  1  0.26460522  0.62449310  0.24410556  1
  O  O358  1  0.26163680  0.63245147  0.75380583  1
  O  O359  1  0.76370365  0.12316451  0.25727747  1
  O  O360  1  0.75466968  0.12147576  0.75335443  1
  O  O361  1  0.75420876  0.61351723  0.24948494  1
  O  O362  1  0.74586991  0.61163983  0.75573127  1
  O  O363  1  0.37130076  0.12078172  0.37250769  1
  O  O364  1  0.36942617  0.11826196  0.86897677  1
  O  O365  1  0.38426654  0.62577808  0.35748484  1
  O  O366  1  0.36727608  0.61780521  0.86714298  1
  O  O367  1  0.87818051  0.11166984  0.37026877  1
  O  O368  1  0.86143974  0.12073821  0.86890222  1
  O  O369  1  0.88021852  0.61635419  0.36062361  1
  O  O370  1  0.85950070  0.62050698  0.87322426  1
  O  O371  1  0.13387363  0.37770677  0.11947974  1
  O  O372  1  0.12434602  0.38433038  0.63426061  1
  O  O373  1  0.12956583  0.87399405  0.13478284  1
  O  O374  1  0.13396251  0.87548492  0.63154729  1
  O  O375  1  0.61762944  0.37243188  0.13944251  1
  O  O376  1  0.63297965  0.36966529  0.63839826  1
  O  O377  1  0.63566547  0.87419696  0.13378435  1
  O  O378  1  0.64100993  0.87338014  0.62657139  1
  O  O379  1  0.12719809  0.24653640  0.26034224  1
  O  O380  1  0.11830851  0.25658172  0.75554501  1
  O  O381  1  0.11952778  0.75247337  0.25596952  1
  O  O382  1  0.11553264  0.76006431  0.75183311  1
  O  O383  1  0.62252012  0.25734337  0.25836279  1
  O  O384  1  0.62496641  0.26052284  0.75700267  1
  O  O385  1  0.62691046  0.75497352  0.25895119  1
  O  O386  1  0.61121584  0.74709683  0.74548319  1
  O  O387  1  0.38039694  0.24682190  0.24598767  1
  O  O388  1  0.37691018  0.24120691  0.74470516  1
  O  O389  1  0.37859680  0.73858769  0.24293078  1
  O  O390  1  0.38390877  0.74059080  0.74366201  1
  O  O391  1  0.87045737  0.24256028  0.25741367  1
  O  O392  1  0.87742014  0.23884426  0.75145499  1
  O  O393  1  0.88048416  0.74510602  0.24619441  1
  O  O394  1  0.88803973  0.75234296  0.74761925  1
  O  O395  1  0.37762253  0.48639271  0.50082097  1
  O  O396  1  0.38211318  0.49404119  0.99603598  1
  O  O397  1  0.38337650  0.99315726  0.49414055  1
  O  O398  1  0.38030765  1.00544779  0.98653896  1
  O  O399  1  0.87859107  0.49660202  0.49068143  1
  O  O400  1  0.88585902  0.49094240  1.00580130  1
  O  O401  1  0.88661260  0.99938724  0.49087326  1
  O  O402  1  0.87339623  1.00663846  0.98731984  1
  O  O403  1  0.12579125  0.00598967  -0.00075753  1
  O  O404  1  0.11391024  0.00571197  0.50019592  1
  O  O405  1  0.11058838  0.49732968  0.00945246  1
  O  O406  1  0.12069095  0.50699990  0.50478567  1
  O  O407  1  0.61760765  0.00781519  0.00602092  1
  O  O408  1  0.61829950  0.00979671  0.49263392  1
  O  O409  1  0.61300984  0.50542858  -0.00748142  1
  O  O410  1  0.62603376  0.51207981  0.49329451  1
  O  O411  1  0.36621415  0.37237431  0.11441075  1
  O  O412  1  0.37364611  0.36751862  0.62013688  1
  O  O413  1  0.37523981  0.85851685  0.13522262  1
  O  O414  1  0.36956054  0.86815986  0.61996085  1
  O  O415  1  0.87642061  0.37586055  0.11580456  1
  O  O416  1  0.86795621  0.37381483  0.61707320  1
  O  O417  1  0.86203483  0.86836406  0.13259173  1
  O  O418  1  0.85928642  0.87939577  0.62441532  1
  O  O419  1  0.12819433  0.13282665  0.38155991  1
  O  O420  1  0.13472782  0.12853424  0.87339050  1
  O  O421  1  0.11828470  0.63181678  0.38747441  1
  O  O422  1  0.14121693  0.62408641  0.86568386  1
  O  O423  1  0.61926196  0.13984469  0.38402772  1
  O  O424  1  0.63638210  0.13284125  0.87680380  1
  O  O425  1  0.61844609  0.63470162  0.38378424  1
  O  O426  1  0.63425547  0.61996546  0.88008449  1
