# generated using pymatgen
data_V85Zn86O256
_symmetry_space_group_name_H-M   'P 1'
_cell_length_a   16.94317760
_cell_length_b   16.93644793
_cell_length_c   16.93871458
_cell_angle_alpha   90.02751982
_cell_angle_beta   90.11766108
_cell_angle_gamma   89.95272191
_symmetry_Int_Tables_number   1
_chemical_formula_structural   V85Zn86O256
_chemical_formula_sum   'V85 Zn86 O256'
_cell_volume   4860.67441054
_cell_formula_units_Z   1
loop_
 _symmetry_equiv_pos_site_id
 _symmetry_equiv_pos_as_xyz
  1  'x, y, z'
loop_
 _atom_site_type_symbol
 _atom_site_label
 _atom_site_symmetry_multiplicity
 _atom_site_fract_x
 _atom_site_fract_y
 _atom_site_fract_z
 _atom_site_occupancy
  V  V0  1  0.87847747  0.25526564  0.13030471  1
  V  V1  1  0.87817565  0.49687771  0.88704743  1
  V  V2  1  0.75053492  0.12397813  0.87607775  1
  V  V3  1  0.25068476  0.24628481  0.00284400  1
  V  V4  1  0.13623055  0.87131679  0.24839765  1
  V  V5  1  0.25218272  0.24802374  0.49723433  1
  V  V6  1  0.12265169  0.37966285  0.74340385  1
  V  V7  1  0.11992848  0.00777733  0.62219790  1
  V  V8  1  0.50518820  0.49750418  0.00271744  1
  V  V9  1  0.62684405  0.11726924  0.50727623  1
  V  V10  1  0.73871941  0.87662378  0.62642955  1
  V  V11  1  0.11997319  -0.00571718  0.12220198  1
  V  V12  1  0.62476075  0.11249202  0.00688809  1
  V  V13  1  0.00116562  0.49857769  0.50667000  1
  V  V14  1  0.12193644  0.24962100  0.37092641  1
  V  V15  1  0.75442572  0.25355849  -0.00023986  1
  V  V16  1  0.24638741  -0.00148292  0.24985865  1
  V  V17  1  0.12423373  0.61671628  -0.00049486  1
  V  V18  1  0.74854179  0.74728672  0.49656000  1
  V  V19  1  0.12546084  0.74999468  0.87670779  1
  V  V20  1  0.11733864  0.12135874  0.00019506  1
  V  V21  1  0.12426936  0.74796949  0.37999479  1
  V  V22  1  0.38349034  0.87968974  0.00828306  1
  V  V23  1  0.87761136  0.12186400  0.74560650  1
  V  V24  1  0.25257692  0.75890236  0.01250498  1
  V  V25  1  0.62494715  0.25111258  0.37471069  1
  V  V26  1  0.87067635  0.50092970  0.37362803  1
  V  V27  1  0.12597508  0.62193465  0.50579053  1
  V  V28  1  0.00094304  0.12850627  0.13365289  1
  V  V29  1  0.87493723  0.62306711  0.75144578  1
  V  V30  1  0.75037282  0.38161964  0.11963242  1
  V  V31  1  0.87458481  0.88198434  0.49797421  1
  V  V32  1  -0.00379017  0.37106447  0.36786553  1
  V  V33  1  0.62396305  0.36968526  0.74398321  1
  V  V34  1  0.50338676  0.24377780  0.24541893  1
  V  V35  1  0.37655790  0.37156535  -0.00067669  1
  V  V36  1  0.25088171  0.62537157  0.87553729  1
  V  V37  1  0.48952057  0.62794529  0.12385888  1
  V  V38  1  0.49865786  0.49673320  0.49274444  1
  V  V39  1  -0.00037652  0.61560223  0.12032917  1
  V  V40  1  0.37430870  0.24779877  0.63014834  1
  V  V41  1  0.76281092  -0.00188499  0.25301369  1
  V  V42  1  0.00015742  0.74965422  0.75107258  1
  V  V43  1  0.37708350  0.88293851  0.49165045  1
  V  V44  1  0.38992684  -0.00672350  0.87094722  1
  V  V45  1  0.12442497  0.25003461  0.87576779  1
  V  V46  1  0.75019109  0.49377344  0.74265728  1
  V  V47  1  0.62611037  0.62207594  0.00734119  1
  V  V48  1  0.50064090  0.62541767  0.62420075  1
  V  V49  1  0.25853105  0.74817769  0.50994244  1
  V  V50  1  0.37673290  0.11271928  0.24832501  1
  V  V51  1  0.25307760  0.38109393  0.13126626  1
  V  V52  1  0.87608324  0.75079958  0.12447636  1
  V  V53  1  -0.00261821  0.88411552  0.37495300  1
  V  V54  1  0.25025692  0.12186746  0.37645972  1
  V  V55  1  0.74812589  0.62571376  0.87228903  1
  V  V56  1  0.37961351  0.63071022  0.74523450  1
  V  V57  1  -0.00100717  0.24831371  0.74721391  1
  V  V58  1  0.00085460  0.74977957  0.25063866  1
  V  V59  1  0.61918010  0.76113982  0.37041533  1
  V  V60  1  0.37389787  0.37369650  0.49138892  1
  V  V61  1  0.88030944  0.88414510  0.00077680  1
  V  V62  1  0.75098610  0.75186579  -0.00185380  1
  V  V63  1  0.00097786  0.62274085  0.62617338  1
  V  V64  1  0.25679047  0.12069258  0.87178279  1
  V  V65  1  0.24878220  0.49981607  0.74027052  1
  V  V66  1  0.87392477  0.75186663  0.62517177  1
  V  V67  1  0.49921457  0.12100454  0.62699963  1
  V  V68  1  0.37641046  0.24344869  0.12721688  1
  V  V69  1  0.62559542  0.38213185  0.24378781  1
  V  V70  1  0.74841287  0.25543214  0.50556573  1
  V  V71  1  0.57858121  0.93965662  0.18450030  1
  V  V72  1  0.75821520  0.12275138  0.37571352  1
  V  V73  1  0.75104040  0.88181758  0.12679276  1
  V  V74  1  0.87468674  0.25047911  0.62626500  1
  V  V75  1  0.61107862  0.75354749  0.86631120  1
  V  V76  1  -0.00201183  0.37781364  0.88761749  1
  V  V77  1  0.50046513  0.75153866  0.24649700  1
  V  V78  1  0.00140666  0.88291414  0.87923224  1
  V  V79  1  0.12758469  0.87651882  0.74768215  1
  V  V80  1  0.87086679  0.37703603  0.50800063  1
  V  V81  1  0.37650123  0.49856049  0.87288461  1
  V  V82  1  0.74194433  -0.00264337  0.74752789  1
  V  V83  1  0.87396062  0.62479044  0.24932845  1
  V  V84  1  0.12963500  0.38257803  0.25325611  1
  Zn  Zn85  1  0.50164106  0.37025283  0.87388999  1
  Zn  Zn86  1  -0.00712508  0.00865296  0.50255177  1
  Zn  Zn87  1  0.25159165  0.00465737  0.74792827  1
  Zn  Zn88  1  0.11828417  0.12918811  0.50406174  1
  Zn  Zn89  1  0.87898232  0.00242257  0.87621829  1
  Zn  Zn90  1  0.74338247  0.50390759  0.24434414  1
  Zn  Zn91  1  0.24890001  0.37381148  0.62425525  1
  Zn  Zn92  1  0.49342473  0.37669384  0.36775093  1
  Zn  Zn93  1  0.60184301  0.87640153  0.74974418  1
  Zn  Zn94  1  0.25277250  0.61015684  0.36913771  1
  Zn  Zn95  1  0.43123863  0.79567451  0.67821985  1
  Zn  Zn96  1  0.62760042  0.49596394  0.62025443  1
  Zn  Zn97  1  0.50284884  -0.00862267  0.48827121  1
  Zn  Zn98  1  0.49260057  0.24561389  0.75410684  1
  Zn  Zn99  1  0.62160058  0.24990129  0.87734138  1
  Zn  Zn100  1  0.74466005  0.62606078  0.36939530  1
  Zn  Zn101  1  0.12617484  0.49928926  0.12721501  1
  Zn  Zn102  1  0.50320736  0.11151425  0.11950019  1
  Zn  Zn103  1  0.36863804  0.60463387  0.25159960  1
  Zn  Zn104  1  0.25423591  0.87638439  0.62751237  1
  Zn  Zn105  1  0.62343460  0.62173329  0.49612132  1
  Zn  Zn106  1  0.88193654  0.12852325  0.25560650  1
  Zn  Zn107  1  0.18692635  0.19034298  0.19049138  1
  Zn  Zn108  1  0.18690976  0.18932629  0.68844808  1
  Zn  Zn109  1  0.18954741  0.68267648  0.18854074  1
  Zn  Zn110  1  0.18711171  0.68497421  0.68863348  1
  Zn  Zn111  1  0.69251703  0.18659537  0.18590881  1
  Zn  Zn112  1  0.68848207  0.18788607  0.68703882  1
  Zn  Zn113  1  0.68584337  0.69214537  0.18765297  1
  Zn  Zn114  1  0.68320615  0.68586527  0.68473760  1
  Zn  Zn115  1  0.31347083  0.44059959  0.31527965  1
  Zn  Zn116  1  0.31052541  0.31194771  0.81324488  1
  Zn  Zn117  1  0.32913437  0.77107450  0.33219888  1
  Zn  Zn118  1  0.31175271  0.81478723  0.82025646  1
  Zn  Zn119  1  0.81023846  0.31272587  0.31123686  1
  Zn  Zn120  1  0.81239906  0.31414580  0.81523273  1
  Zn  Zn121  1  0.81140536  0.81373621  0.31260495  1
  Zn  Zn122  1  0.81162311  0.81322328  0.81245641  1
  Zn  Zn123  1  0.18296594  0.43453451  0.44466283  1
  Zn  Zn124  1  0.19005500  0.43441442  0.93476863  1
  Zn  Zn125  1  0.19012898  0.93406706  0.43835905  1
  Zn  Zn126  1  0.18715752  0.93874913  0.93877276  1
  Zn  Zn127  1  0.68526321  0.43610740  0.43468235  1
  Zn  Zn128  1  0.68778827  0.43608927  0.93146340  1
  Zn  Zn129  1  0.69169044  0.93809966  0.43515364  1
  Zn  Zn130  1  0.68960031  0.93522512  0.93260053  1
  Zn  Zn131  1  0.30923085  0.05380278  0.06201418  1
  Zn  Zn132  1  0.31023737  0.06107813  0.56482619  1
  Zn  Zn133  1  0.31242484  0.56223393  0.05976033  1
  Zn  Zn134  1  0.31556794  0.56044946  0.55795848  1
  Zn  Zn135  1  0.81430502  0.06418604  0.06472187  1
  Zn  Zn136  1  0.81037529  0.06279606  0.56613220  1
  Zn  Zn137  1  0.81122051  0.56267434  0.06243987  1
  Zn  Zn138  1  0.81290978  0.56443475  0.56321726  1
  Zn  Zn139  1  0.44612736  0.43321661  0.17967918  1
  Zn  Zn140  1  0.43942112  0.43686859  0.68105294  1
  Zn  Zn141  1  0.40367354  0.90160947  0.21314757  1
  Zn  Zn142  1  0.43365846  0.95353100  0.68305627  1
  Zn  Zn143  1  0.93550545  0.43618583  0.18661551  1
  Zn  Zn144  1  0.93689122  0.43640733  0.69206535  1
  Zn  Zn145  1  0.94216679  0.93945139  0.18785586  1
  Zn  Zn146  1  0.93676232  0.93754779  0.68758232  1
  Zn  Zn147  1  0.06423269  0.06226556  0.31359275  1
  Zn  Zn148  1  0.06418047  0.06328685  0.81077987  1
  Zn  Zn149  1  0.06049097  0.56147801  0.31650640  1
  Zn  Zn150  1  0.06233266  0.55969005  0.81460197  1
  Zn  Zn151  1  0.56735864  0.06470416  0.31856431  1
  Zn  Zn152  1  0.56578480  0.06509187  0.81217440  1
  Zn  Zn153  1  0.55839299  0.56763841  0.31388738  1
  Zn  Zn154  1  0.56314126  0.56062067  0.81186212  1
  Zn  Zn155  1  0.44975950  0.15656301  0.42367248  1
  Zn  Zn156  1  0.44112206  0.18195706  0.93794694  1
  Zn  Zn157  1  0.44024929  0.68442315  0.43691559  1
  Zn  Zn158  1  0.43348071  0.68932924  0.94004238  1
  Zn  Zn159  1  0.93965670  0.18848473  0.44135342  1
  Zn  Zn160  1  0.93586101  0.19026629  0.93856743  1
  Zn  Zn161  1  0.93655791  0.68921995  0.43765443  1
  Zn  Zn162  1  0.93801871  0.68941104  0.93821230  1
  Zn  Zn163  1  0.06472954  0.31010766  0.06669738  1
  Zn  Zn164  1  0.06056198  0.31042093  0.56186026  1
  Zn  Zn165  1  0.06420507  0.80731517  0.06345586  1
  Zn  Zn166  1  0.06194335  0.81528759  0.56397777  1
  Zn  Zn167  1  0.56724024  0.30661454  0.06035465  1
  Zn  Zn168  1  0.55849438  0.30975191  0.56441622  1
  Zn  Zn169  1  0.56229013  0.80616518  0.05473403  1
  Zn  Zn170  1  0.56136316  0.81196585  0.55542776  1
  O  O171  1  0.11849562  0.12234036  0.11974154  1
  O  O172  1  0.12608517  0.11123598  0.62772820  1
  O  O173  1  0.11700560  0.62218254  0.11742361  1
  O  O174  1  0.11706108  0.62761583  0.61403371  1
  O  O175  1  0.62947290  0.12431421  0.11091897  1
  O  O176  1  0.61808468  0.12949409  0.61729828  1
  O  O177  1  0.62347504  0.62737853  0.11076723  1
  O  O178  1  0.61710455  0.61856752  0.62008656  1
  O  O179  1  0.37601277  0.36553123  0.38836564  1
  O  O180  1  0.37602263  0.38160373  0.88106072  1
  O  O181  1  0.36628804  0.86546053  0.39298447  1
  O  O182  1  0.37180296  0.88858663  0.88318852  1
  O  O183  1  0.87996400  0.38062139  0.38151672  1
  O  O184  1  0.88489930  0.38432476  0.87206558  1
  O  O185  1  0.88502239  0.86704176  0.38507990  1
  O  O186  1  0.88382893  0.87369467  0.88339994  1
  O  O187  1  0.23736880  0.00885278  0.36175753  1
  O  O188  1  0.24649569  0.01305742  0.87338617  1
  O  O189  1  0.25300811  0.49884715  0.38898780  1
  O  O190  1  0.26134232  0.50446384  0.86996211  1
  O  O191  1  0.74872611  0.00962517  0.36631120  1
  O  O192  1  0.75711521  0.00663812  0.86736869  1
  O  O193  1  0.76128759  0.50132015  0.37258437  1
  O  O194  1  0.75646378  0.51037232  0.86725670  1
  O  O195  1  0.24971298  0.48417165  0.11675890  1
  O  O196  1  0.25282776  0.49853074  0.63749282  1
  O  O197  1  0.23383672  1.00580018  0.13943068  1
  O  O198  1  0.23782738  0.99792828  0.63063275  1
  O  O199  1  0.75347571  0.48640248  0.12474062  1
  O  O200  1  0.75104343  0.50439112  0.63893872  1
  O  O201  1  0.75536606  0.98905504  0.13232711  1
  O  O202  1  0.75311555  0.98903693  0.63423267  1
  O  O203  1  0.00438315  0.37882526  0.26323177  1
  O  O204  1  0.00650304  0.36972006  0.75826973  1
  O  O205  1  0.00543314  0.86811223  0.25785930  1
  O  O206  1  0.00816149  0.86932161  0.75743316  1
  O  O207  1  0.50905089  0.35897438  0.24731064  1
  O  O208  1  0.51255327  0.37544568  0.75102465  1
  O  O209  1  0.51835017  0.87830525  0.24035169  1
  O  O210  1  0.49111277  0.87280981  0.73625144  1
  O  O211  1  0.49448504  0.12937991  0.24281751  1
  O  O212  1  0.50912333  0.12610041  0.73186142  1
  O  O213  1  0.49651862  0.63534144  0.24047991  1
  O  O214  1  0.49046105  0.61645031  0.74052812  1
  O  O215  1  1.00168283  0.12450077  0.23868145  1
  O  O216  1  0.98990271  0.13544016  0.75837621  1
  O  O217  1  0.99385775  0.62974287  0.24427403  1
  O  O218  1  0.99609208  0.62852614  0.74595281  1
  O  O219  1  0.37223872  0.24876203  0.01019818  1
  O  O220  1  0.36585598  0.25445780  0.50861172  1
  O  O221  1  0.36078816  0.76157938  -0.00590841  1
  O  O222  1  0.36057267  0.75054188  0.50279454  1
  O  O223  1  0.86225883  0.24401759  0.01081483  1
  O  O224  1  0.86906005  0.25911051  0.50542675  1
  O  O225  1  0.86894603  0.75691623  0.00635433  1
  O  O226  1  0.86784623  0.75768197  0.50496956  1
  O  O227  1  0.13095135  0.25144896  0.49199731  1
  O  O228  1  0.13217953  0.24301558  0.99522983  1
  O  O229  1  0.12614047  0.74244556  0.49662718  1
  O  O230  1  0.13447187  0.74238494  0.99482734  1
  O  O231  1  0.63356558  0.25040610  0.49305402  1
  O  O232  1  0.63924134  0.23909653  0.99779232  1
  O  O233  1  0.63262629  0.74793669  0.48888130  1
  O  O234  1  0.63311102  0.74136504  0.98758400  1
  O  O235  1  0.49430862  0.24408802  0.12900815  1
  O  O236  1  0.49015263  0.24447990  0.63156555  1
  O  O237  1  0.51144304  0.73796119  0.13218804  1
  O  O238  1  0.50311727  0.73135756  0.61569689  1
  O  O239  1  0.99108556  0.24258967  0.12166068  1
  O  O240  1  0.99327978  0.25541861  0.63962793  1
  O  O241  1  0.99524707  0.73987920  0.13186595  1
  O  O242  1  0.99395859  0.74534394  0.63185606  1
  O  O243  1  0.00780024  0.26084334  0.37952734  1
  O  O244  1  0.00205104  0.25783968  0.86659598  1
  O  O245  1  0.00890531  0.75564613  0.37203658  1
  O  O246  1  0.00627613  0.75705878  0.86923811  1
  O  O247  1  0.50971827  0.24522426  0.36295519  1
  O  O248  1  0.50104801  0.24977858  0.87004270  1
  O  O249  1  0.51298450  0.74911180  0.36694010  1
  O  O250  1  0.51310712  0.74240743  0.87622164  1
  O  O251  1  0.24485423  0.12835808  0.49173853  1
  O  O252  1  0.23952832  0.12840192  0.99437534  1
  O  O253  1  0.24225310  0.63336556  0.50175250  1
  O  O254  1  0.24543683  0.63429385  0.99507468  1
  O  O255  1  0.74539638  0.13233090  0.49587022  1
  O  O256  1  0.74715307  0.12928651  0.99331678  1
  O  O257  1  0.75238980  0.63874674  0.49857157  1
  O  O258  1  0.74342496  0.62897962  0.99283567  1
  O  O259  1  0.25657370  0.36490297  0.00499482  1
  O  O260  1  0.25517514  0.36478717  0.50509757  1
  O  O261  1  0.25069921  0.86166286  -0.00541327  1
  O  O262  1  0.25342194  0.86147248  0.50368548  1
  O  O263  1  0.74373724  0.36625380  0.00630568  1
  O  O264  1  0.75980616  0.36793510  0.49427187  1
  O  O265  1  0.75922276  0.87088051  0.00525026  1
  O  O266  1  0.75532809  0.86647828  0.50607234  1
  O  O267  1  0.11939828  0.48721453  0.25067170  1
  O  O268  1  0.13569043  0.49127011  0.75741153  1
  O  O269  1  0.12704410  0.99062278  0.24380647  1
  O  O270  1  0.12500182  0.99267375  0.74155298  1
  O  O271  1  0.62163448  0.48552064  0.25529375  1
  O  O272  1  0.63384154  0.48957726  0.75028736  1
  O  O273  1  0.63399346  1.00129659  0.24853436  1
  O  O274  1  0.63801479  0.99311827  0.75722814  1
  O  O275  1  0.36414758  0.00525853  0.24731954  1
  O  O276  1  0.36810810  0.00247243  0.76700691  1
  O  O277  1  0.38990626  0.49282108  0.25325842  1
  O  O278  1  0.36859237  0.50321085  0.75676876  1
  O  O279  1  0.86660939  0.00443387  0.24839122  1
  O  O280  1  0.86890556  0.00772385  0.75146495  1
  O  O281  1  0.87449568  0.50648382  0.25852045  1
  O  O282  1  0.86744540  0.50502748  0.75716621  1
  O  O283  1  0.11613280  0.36966239  0.37153749  1
  O  O284  1  0.12049826  0.36810605  0.86681068  1
  O  O285  1  0.11697569  0.86694087  0.36980461  1
  O  O286  1  0.11812472  0.87055282  0.87019000  1
  O  O287  1  0.62428023  0.36237999  0.36513044  1
  O  O288  1  0.62221184  0.37201351  0.86234214  1
  O  O289  1  0.62830713  0.86056313  0.37959050  1
  O  O290  1  0.62896044  0.85754135  0.87324177  1
  O  O291  1  0.37646443  0.12500056  0.12928918  1
  O  O292  1  0.38817743  0.13303620  0.61725301  1
  O  O293  1  0.38669309  0.62399378  0.12256732  1
  O  O294  1  0.38285932  0.61850003  0.63500271  1
  O  O295  1  0.88562679  0.13171423  0.12608551  1
  O  O296  1  0.87024990  0.13172853  0.63868431  1
  O  O297  1  0.88108185  0.62995784  0.12829390  1
  O  O298  1  0.88069698  0.63223111  0.63150593  1
  O  O299  1  0.25775915  0.25625161  0.12219298  1
  O  O300  1  0.25409861  0.24614959  0.61470333  1
  O  O301  1  0.24306672  0.75075656  0.11036424  1
  O  O302  1  0.24180641  0.75133333  0.61253883  1
  O  O303  1  0.75770729  0.25786555  0.11811113  1
  O  O304  1  0.75624447  0.24730973  0.61227859  1
  O  O305  1  0.75452915  0.76245708  0.12019596  1
  O  O306  1  0.75451588  0.75515836  0.61763394  1
  O  O307  1  0.23864645  0.24209770  0.38898054  1
  O  O308  1  0.24752419  0.23945266  0.88263906  1
  O  O309  1  0.23176484  0.75034705  0.39200554  1
  O  O310  1  0.24142734  0.74228536  0.88053656  1
  O  O311  1  0.74488230  0.24648395  0.38445537  1
  O  O312  1  0.75231739  0.24157728  0.88293806  1
  O  O313  1  0.74252352  0.74964040  0.38100734  1
  O  O314  1  0.75072761  0.73748940  0.87882934  1
  O  O315  1  0.01250932  0.13067843  0.00616466  1
  O  O316  1  0.00532995  0.12041949  0.49699434  1
  O  O317  1  0.01108045  0.63273144  0.00858070  1
  O  O318  1  0.00371949  0.61785265  0.50529327  1
  O  O319  1  0.51961407  0.12514679  0.00167795  1
  O  O320  1  0.51710040  0.14471112  0.51622240  1
  O  O321  1  0.50596240  0.62053926  0.00521137  1
  O  O322  1  0.49767148  0.61393562  0.50509999  1
  O  O323  1  0.49263677  0.37863528  0.49716295  1
  O  O324  1  0.49615977  0.38128695  0.99983389  1
  O  O325  1  0.48437962  0.87634205  0.50078221  1
  O  O326  1  0.48270255  0.86760731  1.00198387  1
  O  O327  1  0.99274074  0.38219521  0.49328025  1
  O  O328  1  1.00944568  0.37148850  0.98664754  1
  O  O329  1  0.99093462  0.87542924  0.49259546  1
  O  O330  1  0.99251853  0.86570642  0.99108560  1
  O  O331  1  0.50325800  0.49674169  0.38785312  1
  O  O332  1  0.48906665  0.50029229  0.88301866  1
  O  O333  1  0.48765195  1.04765244  0.39199941  1
  O  O334  1  0.48796017  1.00609522  0.87326282  1
  O  O335  1  0.98780653  0.49464880  0.38557643  1
  O  O336  1  0.99021585  0.49052756  0.87084265  1
  O  O337  1  1.00365632  0.98702060  0.37650620  1
  O  O338  1  0.99946283  0.98687576  0.87187166  1
  O  O339  1  0.01171687  0.01005827  0.12719876  1
  O  O340  1  0.01533808  -0.00763881  0.62413783  1
  O  O341  1  0.00046843  0.51201501  0.12665918  1
  O  O342  1  -0.00912410  0.50494059  0.61431679  1
  O  O343  1  0.51178361  -0.00624088  0.13434809  1
  O  O344  1  0.49485839  0.01861817  0.60908423  1
  O  O345  1  0.50245808  0.50779031  0.10895689  1
  O  O346  1  0.50324612  0.50680565  0.61357949  1
  O  O347  1  0.24278866  0.37540029  0.24239867  1
  O  O348  1  0.24107567  0.38252905  0.75040294  1
  O  O349  1  0.23831174  0.87980444  0.25581201  1
  O  O350  1  0.23624780  0.87458469  0.75282677  1
  O  O351  1  0.74174768  0.37706218  0.24125703  1
  O  O352  1  0.74016442  0.38344044  0.75505157  1
  O  O353  1  0.75419430  0.88347247  0.24054443  1
  O  O354  1  0.75356525  0.88182653  0.74081251  1
  O  O355  1  0.25511279  0.11777012  0.25351400  1
  O  O356  1  0.24392816  0.12828602  0.76940709  1
  O  O357  1  0.25460207  0.62535693  0.25396433  1
  O  O358  1  0.25422588  0.61659480  0.75582476  1
  O  O359  1  0.75220131  0.11701915  0.25816532  1
  O  O360  1  0.75495609  0.11809926  0.75663149  1
  O  O361  1  0.75912217  0.62296873  0.24681206  1
  O  O362  1  0.75384888  0.61926531  0.75689189  1
  O  O363  1  0.35573076  0.13626444  0.35974566  1
  O  O364  1  0.36170625  0.11224777  0.88684364  1
  O  O365  1  0.36412096  0.65966625  0.35858619  1
  O  O366  1  0.37095244  0.61695488  0.86937709  1
  O  O367  1  0.86214615  0.13460906  0.37422475  1
  O  O368  1  0.86663403  0.12517289  0.86701242  1
  O  O369  1  0.87384271  0.61761241  0.36860774  1
  O  O370  1  0.86928695  0.62039220  0.86998984  1
  O  O371  1  0.13362462  0.37434931  0.13507052  1
  O  O372  1  0.12535054  0.37036846  0.63955418  1
  O  O373  1  0.11599200  0.88200585  0.13542270  1
  O  O374  1  0.12697527  0.88113808  0.63471833  1
  O  O375  1  0.63553219  0.36683013  0.13357058  1
  O  O376  1  0.62367770  0.37559996  0.63874507  1
  O  O377  1  0.63376148  0.87762514  0.11801151  1
  O  O378  1  0.63615958  0.86771474  0.62659418  1
  O  O379  1  0.13010250  0.26226110  0.26412429  1
  O  O380  1  0.11678230  0.25522367  0.75641719  1
  O  O381  1  0.12049667  0.75463466  0.25823995  1
  O  O382  1  0.11997364  0.75579425  0.75581212  1
  O  O383  1  0.62095787  0.25117457  0.25511703  1
  O  O384  1  0.62879642  0.26203557  0.75265304  1
  O  O385  1  0.61848942  0.75050622  0.26103763  1
  O  O386  1  0.62914341  0.74996234  0.76379672  1
  O  O387  1  0.38484296  0.23490656  0.23498489  1
  O  O388  1  0.36976158  0.25323067  0.73509781  1
  O  O389  1  0.40026178  0.78504352  0.24337678  1
  O  O390  1  0.36602888  0.73497728  0.75421789  1
  O  O391  1  0.86881725  0.24715734  0.23574474  1
  O  O392  1  0.87968223  0.24513721  0.74640621  1
  O  O393  1  0.87995816  0.74436491  0.24436355  1
  O  O394  1  0.88013674  0.74339740  0.74586503  1
  O  O395  1  0.38465410  0.48575842  0.50575955  1
  O  O396  1  0.38175138  0.49386719  0.99183122  1
  O  O397  1  0.36573144  0.98485264  0.49697702  1
  O  O398  1  0.36695143  0.98825996  0.98712750  1
  O  O399  1  0.87779587  0.49432351  0.49441174  1
  O  O400  1  0.87279092  0.50506634  0.98614167  1
  O  O401  1  0.87290626  0.98606606  0.50525284  1
  O  O402  1  0.87431510  0.98749782  0.99923579  1
  O  O403  1  0.12871791  0.00804472  0.01004000  1
  O  O404  1  0.12567212  -0.00315547  0.51452640  1
  O  O405  1  0.13278437  0.51345812  -0.00110357  1
  O  O406  1  0.11124448  0.50760607  0.50034069  1
  O  O407  1  0.63526033  0.01381352  -0.00418483  1
  O  O408  1  0.62644638  0.01404448  0.49458285  1
  O  O409  1  0.61641745  0.51040601  -0.01236130  1
  O  O410  1  0.61734992  0.49888632  0.50103660  1
  O  O411  1  0.37043063  0.36324577  0.11924096  1
  O  O412  1  0.37248070  0.36497534  0.61606317  1
  O  O413  1  0.36590135  0.88801648  0.10628211  1
  O  O414  1  0.37005437  0.87430642  0.61482009  1
  O  O415  1  0.86675675  0.36733216  0.12660998  1
  O  O416  1  0.87853979  0.37114089  0.61383795  1
  O  O417  1  0.87228171  0.87098296  0.11897605  1
  O  O418  1  0.86936312  0.86735157  0.61863445  1
  O  O419  1  0.13345906  0.13410355  0.37171090  1
  O  O420  1  0.13018499  0.12990202  0.88302350  1
  O  O421  1  0.12091180  0.63128517  0.38886411  1
  O  O422  1  0.12851597  0.62995384  0.88158969  1
  O  O423  1  0.63919129  0.13823518  0.38202278  1
  O  O424  1  0.63824642  0.12679362  0.88116691  1
  O  O425  1  0.62789857  0.63636913  0.37674240  1
  O  O426  1  0.63277417  0.63162790  0.87906136  1
