# generated using pymatgen
data_V85Zn86O256
_symmetry_space_group_name_H-M   'P 1'
_cell_length_a   16.93794636
_cell_length_b   16.94490145
_cell_length_c   16.92771677
_cell_angle_alpha   90.02622578
_cell_angle_beta   90.00650047
_cell_angle_gamma   89.98533859
_symmetry_Int_Tables_number   1
_chemical_formula_structural   V85Zn86O256
_chemical_formula_sum   'V85 Zn86 O256'
_cell_volume   4858.45430117
_cell_formula_units_Z   1
loop_
 _symmetry_equiv_pos_site_id
 _symmetry_equiv_pos_as_xyz
  1  'x, y, z'
loop_
 _atom_site_type_symbol
 _atom_site_label
 _atom_site_symmetry_multiplicity
 _atom_site_fract_x
 _atom_site_fract_y
 _atom_site_fract_z
 _atom_site_occupancy
  V  V0  1  0.61740923  0.12582903  0.49694861  1
  V  V1  1  -0.00406009  0.49977933  0.49450321  1
  V  V2  1  0.25029180  0.50006873  0.24287554  1
  V  V3  1  0.86798086  0.25536776  0.62401495  1
  V  V4  1  0.13510038  0.25527348  0.88445463  1
  V  V5  1  0.37854668  0.87477469  -0.01273086  1
  V  V6  1  0.62696024  0.37277952  0.74333813  1
  V  V7  1  -0.00520881  0.38109027  0.37091933  1
  V  V8  1  0.87087419  0.62408672  0.26063444  1
  V  V9  1  0.49646768  0.87653621  0.39984031  1
  V  V10  1  -0.00017773  0.74655291  0.24686375  1
  V  V11  1  0.61855962  0.00363243  0.12552760  1
  V  V12  1  0.63361845  0.49268704  0.12467074  1
  V  V13  1  0.37740248  0.37812165  0.49497228  1
  V  V14  1  0.74858478  0.87126460  0.12595774  1
  V  V15  1  0.88171492  0.00231481  0.37796013  1
  V  V16  1  0.25085432  0.62530397  0.37241086  1
  V  V17  1  0.74943353  0.49699481  0.74634695  1
  V  V18  1  -0.00146257  0.25025745  0.24228885  1
  V  V19  1  0.12012290  0.00063633  0.11494871  1
  V  V20  1  0.62442113  0.50041907  0.61624495  1
  V  V21  1  0.74421482  0.25315556  0.49817763  1
  V  V22  1  0.12602004  0.75031540  0.37317297  1
  V  V23  1  0.87053880  0.50252130  0.88015979  1
  V  V24  1  -0.00158493  0.12550342  0.11435249  1
  V  V25  1  0.12018099  -0.00052276  0.63119810  1
  V  V26  1  0.50547617  0.62439069  0.12565331  1
  V  V27  1  0.74468183  0.74652108  0.50180268  1
  V  V28  1  0.49922147  0.62968022  0.61574016  1
  V  V29  1  0.12357848  0.49759321  0.62276868  1
  V  V30  1  -0.00239172  0.12270002  0.62067408  1
  V  V31  1  0.85344329  0.37212100  0.00186402  1
  V  V32  1  0.49986542  0.49992619  -0.00201488  1
  V  V33  1  0.74762464  0.12741302  0.37591327  1
  V  V34  1  0.25190577  0.37333302  0.11274744  1
  V  V35  1  0.61814873  0.87078096  0.25416807  1
  V  V36  1  0.88466242  0.87986782  0.50188643  1
  V  V37  1  0.50439872  0.23974841  0.24908131  1
  V  V38  1  0.87746403  0.87861387  0.00264772  1
  V  V39  1  0.37567923  0.24122383  0.11816197  1
  V  V40  1  0.87617945  0.74173611  0.12321310  1
  V  V41  1  0.25620962  0.11067408  0.87464392  1
  V  V42  1  -0.00144621  0.25045500  0.74973491  1
  V  V43  1  0.62970169  0.24717061  0.88245349  1
  V  V44  1  0.87476653  0.12546324  0.75067474  1
  V  V45  1  0.11967138  0.11815355  0.49783158  1
  V  V46  1  0.38243516  0.62957963  0.75423817  1
  V  V47  1  0.12615055  0.87531925  0.24979256  1
  V  V48  1  0.24095972  0.73985961  -0.00557250  1
  V  V49  1  0.37658201  0.25289598  0.63038175  1
  V  V50  1  0.29636292  0.93577081  0.68909085  1
  V  V51  1  0.37655072  0.62484396  0.24878893  1
  V  V52  1  0.00463601  0.87871751  0.37695795  1
  V  V53  1  0.63382484  0.63105674  -0.00991799  1
  V  V54  1  0.88184075  0.75156558  0.62476795  1
  V  V55  1  0.12201018  0.37651238  0.75073834  1
  V  V56  1  0.24809172  0.37669353  0.62238645  1
  V  V57  1  0.12411736  0.87432296  0.75193692  1
  V  V58  1  0.75483668  0.49159648  0.25434813  1
  V  V59  1  -0.00522555  0.37420131  0.88355851  1
  V  V60  1  0.00690088  0.74713001  0.75788469  1
  V  V61  1  0.50943247  0.37323547  0.36878285  1
  V  V62  1  0.74394816  0.00126084  0.75336739  1
  V  V63  1  0.75081091  -0.00315838  0.25297501  1
  V  V64  1  0.49859766  0.37438393  0.87115994  1
  V  V65  1  0.25229719  0.75482696  0.50678901  1
  V  V66  1  0.51847039  0.87058552  0.86754438  1
  V  V67  1  0.75334743  0.87834852  0.62942820  1
  V  V68  1  0.00409400  0.87308459  0.88299015  1
  V  V69  1  0.12225045  0.24908571  0.37350663  1
  V  V70  1  0.86096170  0.25077295  0.12000277  1
  V  V71  1  0.87016884  0.38009431  0.49820371  1
  V  V72  1  0.25234884  0.00137086  0.24617375  1
  V  V73  1  0.86964691  0.62686809  0.75662925  1
  V  V74  1  0.00054353  0.62441770  0.62500263  1
  V  V75  1  0.37776364  0.75113976  0.12273196  1
  V  V76  1  0.49678751  0.00629443  -0.00364711  1
  V  V77  1  0.25187921  0.87502703  0.12170544  1
  V  V78  1  0.12722563  0.37854844  0.24573840  1
  V  V79  1  0.25231527  0.12418934  0.37098229  1
  V  V80  1  0.62386093  0.00327644  0.61993287  1
  V  V81  1  0.05594263  0.55665767  0.07090860  1
  V  V82  1  0.88216536  0.00205071  0.87819912  1
  V  V83  1  0.12420556  0.62200004  0.49656606  1
  V  V84  1  0.24722892  0.25304332  0.49777100  1
  Zn  Zn85  1  0.61970206  0.74396938  0.38397283  1
  Zn  Zn86  1  0.38822911  0.00082876  0.39034866  1
  Zn  Zn87  1  0.37264447  0.50236375  0.87547926  1
  Zn  Zn88  1  0.50082362  0.74994985  0.25617785  1
  Zn  Zn89  1  0.87594379  0.12361567  0.24752507  1
  Zn  Zn90  1  0.25267714  0.50206922  0.75358260  1
  Zn  Zn91  1  0.37097151  0.11570075  0.75136963  1
  Zn  Zn92  1  0.37069071  0.37220431  -0.00460953  1
  Zn  Zn93  1  0.75508393  0.13036940  0.88369496  1
  Zn  Zn94  1  0.37942261  0.12074725  0.24658587  1
  Zn  Zn95  1  0.22901287  0.62432152  0.86994442  1
  Zn  Zn96  1  0.50135297  0.24215600  0.74984772  1
  Zn  Zn97  1  0.37896593  0.49943581  0.37171960  1
  Zn  Zn98  1  0.12775542  0.12843283  -0.00130574  1
  Zn  Zn99  1  0.63278724  0.74998821  0.83936153  1
  Zn  Zn100  1  0.63015840  0.36825408  0.24513224  1
  Zn  Zn101  1  0.74132760  0.61820262  0.38315108  1
  Zn  Zn102  1  0.62754501  0.12939928  0.00793862  1
  Zn  Zn103  1  0.49723431  0.12391241  0.62498190  1
  Zn  Zn104  1  0.50771979  0.50235685  0.49161947  1
  Zn  Zn105  1  0.75287009  0.74839776  -0.01470327  1
  Zn  Zn106  1  0.37249772  0.75735403  0.62429266  1
  Zn  Zn107  1  0.18823597  0.19008857  0.18241637  1
  Zn  Zn108  1  0.18939616  0.18853098  0.69099494  1
  Zn  Zn109  1  0.18611518  0.68499485  0.17958695  1
  Zn  Zn110  1  0.18870519  0.68399995  0.68978486  1
  Zn  Zn111  1  0.68655139  0.18257583  0.19125443  1
  Zn  Zn112  1  0.68793362  0.18692245  0.68938156  1
  Zn  Zn113  1  0.68818018  0.68500374  0.18937948  1
  Zn  Zn114  1  0.69260911  0.67916923  0.68206268  1
  Zn  Zn115  1  0.31742188  0.31007829  0.30663001  1
  Zn  Zn116  1  0.31037900  0.31952204  0.81150926  1
  Zn  Zn117  1  0.31710289  0.81421586  0.31526587  1
  Zn  Zn118  1  0.31678909  0.80042572  0.81742665  1
  Zn  Zn119  1  0.81397916  0.31060159  0.31293415  1
  Zn  Zn120  1  0.80756363  0.31469697  0.81106680  1
  Zn  Zn121  1  0.81234848  0.81258117  0.31575653  1
  Zn  Zn122  1  0.81249003  0.81260764  0.81406482  1
  Zn  Zn123  1  0.18772644  0.43948813  0.43020653  1
  Zn  Zn124  1  0.16699672  0.48263118  0.93764300  1
  Zn  Zn125  1  0.22654793  0.95663472  0.46122595  1
  Zn  Zn126  1  0.18953587  0.93348261  0.93704360  1
  Zn  Zn127  1  0.68904497  0.43464438  0.43194978  1
  Zn  Zn128  1  0.68326794  0.44189154  0.93087908  1
  Zn  Zn129  1  0.68813636  0.93379530  0.44056384  1
  Zn  Zn130  1  0.69167082  0.94317572  0.94166923  1
  Zn  Zn131  1  0.31045351  0.06425099  0.05367525  1
  Zn  Zn132  1  0.31560485  0.07229914  0.55897119  1
  Zn  Zn133  1  0.31444452  0.56088873  0.06345818  1
  Zn  Zn134  1  0.31374818  0.56344122  0.56289203  1
  Zn  Zn135  1  0.81011393  0.06177899  0.06202703  1
  Zn  Zn136  1  0.81171125  0.06387396  0.55989625  1
  Zn  Zn137  1  0.81500876  0.56015873  0.06470996  1
  Zn  Zn138  1  0.81336602  0.56205737  0.56640065  1
  Zn  Zn139  1  0.43787704  0.43502757  0.18514315  1
  Zn  Zn140  1  0.43850507  0.44258250  0.68685238  1
  Zn  Zn141  1  0.43658296  0.93821619  0.18539344  1
  Zn  Zn142  1  0.45643850  0.93589975  0.68420166  1
  Zn  Zn143  1  0.93130487  0.43673944  0.18212426  1
  Zn  Zn144  1  0.93616319  0.43779705  0.68700304  1
  Zn  Zn145  1  0.93849829  0.93766596  0.18821083  1
  Zn  Zn146  1  0.94012851  0.93982450  0.69222157  1
  Zn  Zn147  1  0.06356859  0.06300997  0.30520828  1
  Zn  Zn148  1  0.06470631  0.06517722  0.81443004  1
  Zn  Zn149  1  0.06103504  0.56144605  0.30047398  1
  Zn  Zn150  1  0.05551914  0.56016467  0.81670384  1
  Zn  Zn151  1  0.56412164  0.05751010  0.31685412  1
  Zn  Zn152  1  0.55685158  0.06263732  0.81288942  1
  Zn  Zn153  1  0.56923996  0.56339361  0.31368498  1
  Zn  Zn154  1  0.56019619  0.56355909  0.80814537  1
  Zn  Zn155  1  0.43504916  0.19293281  0.43347510  1
  Zn  Zn156  1  0.43787340  0.18758655  0.93418652  1
  Zn  Zn157  1  0.43619715  0.69206188  0.43903203  1
  Zn  Zn158  1  0.44549425  0.69227359  0.93619338  1
  Zn  Zn159  1  0.93566222  0.19143706  0.43585857  1
  Zn  Zn160  1  0.93673340  0.19347885  0.93970258  1
  Zn  Zn161  1  0.93648901  0.69090602  0.43647915  1
  Zn  Zn162  1  0.94496153  0.68420814  0.94181908  1
  Zn  Zn163  1  0.06142586  0.33067862  0.06023608  1
  Zn  Zn164  1  0.05792351  0.31006264  0.56038798  1
  Zn  Zn165  1  0.06254429  0.80973617  0.06486504  1
  Zn  Zn166  1  0.06890316  0.81273475  0.56241817  1
  Zn  Zn167  1  0.55708469  0.31255697  0.06302003  1
  Zn  Zn168  1  0.56062813  0.31334354  0.56157411  1
  Zn  Zn169  1  0.56226876  0.81420602  0.06098996  1
  Zn  Zn170  1  0.58344808  0.79638977  0.62916429  1
  O  O171  1  0.11862177  0.11939406  0.12125763  1
  O  O172  1  0.11750545  0.12226810  0.62055227  1
  O  O173  1  0.12645015  0.61574493  0.11527613  1
  O  O174  1  0.11882429  0.61694521  0.61867813  1
  O  O175  1  0.62728982  0.10735024  0.12808712  1
  O  O176  1  0.62676926  0.12060690  0.61521709  1
  O  O177  1  0.61951172  0.61566176  0.11966413  1
  O  O178  1  0.60933532  0.61445693  0.62541069  1
  O  O179  1  0.38199765  0.37397803  0.38041321  1
  O  O180  1  0.38474816  0.37704857  0.87685088  1
  O  O181  1  0.39254372  0.87762943  0.37189142  1
  O  O182  1  0.38361712  0.86796668  0.88486245  1
  O  O183  1  0.88454829  0.37035641  0.38426093  1
  O  O184  1  0.87415289  0.37673743  0.88392904  1
  O  O185  1  0.88294461  0.88210712  0.38239271  1
  O  O186  1  0.88444346  0.88082628  0.88272160  1
  O  O187  1  0.23619269  0.01580281  0.36019557  1
  O  O188  1  0.24497844  0.01177535  0.87326853  1
  O  O189  1  0.25337124  0.50869295  0.36310260  1
  O  O190  1  0.25668453  0.50189168  0.87289816  1
  O  O191  1  0.76122043  0.00355508  0.37240349  1
  O  O192  1  0.76438190  -0.00419461  0.86674650  1
  O  O193  1  0.74853552  0.50117487  0.35979450  1
  O  O194  1  0.75947338  0.49747789  0.86132126  1
  O  O195  1  0.25680425  0.49113915  0.13630510  1
  O  O196  1  0.23870051  0.49438872  0.62387129  1
  O  O197  1  0.24461138  0.99528899  0.12781741  1
  O  O198  1  0.24007809  1.00117617  0.63112964  1
  O  O199  1  0.74338665  0.50409660  0.13737661  1
  O  O200  1  0.74061062  0.50684702  0.63667945  1
  O  O201  1  0.74605819  0.98703556  0.13337603  1
  O  O202  1  0.74966349  0.99666637  0.63270081  1
  O  O203  1  0.00535220  0.37005264  0.25241169  1
  O  O204  1  0.00239054  0.36789266  0.75493261  1
  O  O205  1  0.00437806  0.86590916  0.25581997  1
  O  O206  1  0.00510517  0.86641377  0.75991085  1
  O  O207  1  0.50095179  0.36617567  0.25485389  1
  O  O208  1  0.50714431  0.37710173  0.75918194  1
  O  O209  1  0.51260710  0.87366128  0.24537694  1
  O  O210  1  0.50276912  0.87876587  0.76835164  1
  O  O211  1  0.50008201  0.13551716  0.25623612  1
  O  O212  1  0.48903515  0.12436134  0.74618855  1
  O  O213  1  0.49707984  0.62501780  0.23810362  1
  O  O214  1  0.48957538  0.62068070  0.73561533  1
  O  O215  1  0.99851394  0.13554949  0.23949583  1
  O  O216  1  0.99518081  0.13207046  0.74231420  1
  O  O217  1  0.99023061  0.64001417  0.25768904  1
  O  O218  1  0.99421766  0.63108256  0.74692491  1
  O  O219  1  0.38488643  0.25337905  0.01419900  1
  O  O220  1  0.36822620  0.26043343  0.50623991  1
  O  O221  1  0.37244801  0.75643466  0.00647883  1
  O  O222  1  0.35616131  0.75026972  0.50079528  1
  O  O223  1  0.86890799  0.26096298  0.00536487  1
  O  O224  1  0.86798869  0.25800139  0.50620521  1
  O  O225  1  0.87433283  0.75838511  0.00774559  1
  O  O226  1  0.87344248  0.76050919  0.50679583  1
  O  O227  1  0.12764199  0.24372541  0.49272820  1
  O  O228  1  0.11836938  0.25607525  0.98553510  1
  O  O229  1  0.12683272  0.73695485  0.49353573  1
  O  O230  1  0.14301310  0.75355817  1.00740000  1
  O  O231  1  0.63869109  0.24554503  0.50595932  1
  O  O232  1  0.61750580  0.24932331  0.98653980  1
  O  O233  1  0.64564877  0.75756067  0.51447916  1
  O  O234  1  0.62936250  0.73388316  1.01041747  1
  O  O235  1  0.48761629  0.25373220  0.13635011  1
  O  O236  1  0.48961003  0.24881011  0.62601423  1
  O  O237  1  0.49198550  0.74273088  0.12447852  1
  O  O238  1  0.49066379  0.73434990  0.61301627  1
  O  O239  1  0.99447774  0.24658860  0.12830208  1
  O  O240  1  0.99077748  0.24129258  0.62893599  1
  O  O241  1  0.98905375  0.75686496  0.13540324  1
  O  O242  1  0.99884385  0.74407685  0.63255768  1
  O  O243  1  0.00229730  0.25961533  0.36512326  1
  O  O244  1  0.00522684  0.25614917  0.86678535  1
  O  O245  1  0.00615895  0.75773419  0.36828754  1
  O  O246  1  -0.00214782  0.75801257  0.86846942  1
  O  O247  1  0.49389806  0.25744839  0.35742175  1
  O  O248  1  0.50804619  0.25838607  0.87095201  1
  O  O249  1  0.50144044  0.76222533  0.37570063  1
  O  O250  1  0.51452087  0.76568981  0.88032921  1
  O  O251  1  0.23819641  0.13583407  0.48999510  1
  O  O252  1  0.24472333  0.12620328  0.98273911  1
  O  O253  1  0.24343380  0.62851634  0.49052046  1
  O  O254  1  0.25861882  0.63838750  1.00141488  1
  O  O255  1  0.74637472  0.13462907  0.49338066  1
  O  O256  1  0.73950584  0.11219054  0.99390311  1
  O  O257  1  0.76152667  0.64242430  0.50228117  1
  O  O258  1  0.73652974  0.62370102  1.00250421  1
  O  O259  1  0.24910006  0.38557745  0.01300253  1
  O  O260  1  0.25387399  0.37079076  0.50059742  1
  O  O261  1  0.26000414  0.86674766  0.00268860  1
  O  O262  1  0.22653600  0.85070786  0.49980908  1
  O  O263  1  0.75476310  0.37596448  -0.00452521  1
  O  O264  1  0.75938127  0.36648609  0.49303839  1
  O  O265  1  0.75888810  0.87339946  0.01028407  1
  O  O266  1  0.76500079  0.87065585  0.51012042  1
  O  O267  1  0.13645141  0.48877725  0.25395197  1
  O  O268  1  0.11852606  0.48699444  0.74157500  1
  O  O269  1  0.13426029  0.99588256  0.23807448  1
  O  O270  1  0.11945974  0.99386458  0.73981362  1
  O  O271  1  0.63738884  0.49699361  0.24091686  1
  O  O272  1  0.63194124  0.49456469  0.74419752  1
  O  O273  1  0.63087770  0.99056451  0.24524490  1
  O  O274  1  0.63962901  1.00885045  0.74303746  1
  O  O275  1  0.36167525  0.00132274  0.24863081  1
  O  O276  1  0.36354390  -0.00703533  0.73970279  1
  O  O277  1  0.36910792  0.50769919  0.24898076  1
  O  O278  1  0.37326443  0.51301812  0.75033826  1
  O  O279  1  0.86841553  -0.00057091  0.25875904  1
  O  O280  1  0.87041203  0.00772814  0.75741522  1
  O  O281  1  0.86228805  0.50837045  0.24487776  1
  O  O282  1  0.86772961  0.50643471  0.75257225  1
  O  O283  1  0.11903557  0.36811564  0.36425864  1
  O  O284  1  0.11331600  0.37021976  0.86748802  1
  O  O285  1  0.11861893  0.86874927  0.36605539  1
  O  O286  1  0.11680420  0.88218898  0.86287218  1
  O  O287  1  0.61308263  0.37277046  0.37028881  1
  O  O288  1  0.61944872  0.36672487  0.86575350  1
  O  O289  1  0.61646415  0.87068331  0.37148548  1
  O  O290  1  0.62020794  0.87755904  0.87748004  1
  O  O291  1  0.36901360  0.13755823  0.12459406  1
  O  O292  1  0.37417496  0.13762014  0.62660876  1
  O  O293  1  0.38431879  0.63166678  0.12877051  1
  O  O294  1  0.38482415  0.62291657  0.63170480  1
  O  O295  1  0.88198860  0.13135727  0.12466570  1
  O  O296  1  0.88185238  0.13192770  0.62704923  1
  O  O297  1  0.86605981  0.63897765  0.13511999  1
  O  O298  1  0.88371311  0.62991539  0.63448087  1
  O  O299  1  0.26569916  0.25859725  0.13038909  1
  O  O300  1  0.25371346  0.25750985  0.61756768  1
  O  O301  1  0.26085193  0.75476613  0.11842503  1
  O  O302  1  0.24896810  0.74149379  0.61053703  1
  O  O303  1  0.76232962  0.24592495  0.13417611  1
  O  O304  1  0.76211653  0.24474178  0.61718177  1
  O  O305  1  0.75746066  0.76114034  0.12667122  1
  O  O306  1  0.76402239  0.75926641  0.61892840  1
  O  O307  1  0.24446669  0.24057544  0.37414925  1
  O  O308  1  0.23561968  0.25709032  0.87416186  1
  O  O309  1  0.24471942  0.74233655  0.37823102  1
  O  O310  1  0.24842375  0.74330372  0.88921326  1
  O  O311  1  0.75664411  0.23864450  0.38356700  1
  O  O312  1  0.73343099  0.25044347  0.87174905  1
  O  O313  1  0.74908342  0.75664884  0.39449261  1
  O  O314  1  0.74211562  0.75268575  0.87317487  1
  O  O315  1  0.00379000  0.12988604  0.01070433  1
  O  O316  1  0.00865905  0.13319180  0.50709841  1
  O  O317  1  -0.00865676  0.61232745  0.01397839  1
  O  O318  1  0.00266173  0.61807120  0.50181941  1
  O  O319  1  0.50353774  0.10939955  -0.00595888  1
  O  O320  1  0.51445700  0.13460758  0.49597798  1
  O  O321  1  0.50860062  0.62077635  0.00922477  1
  O  O322  1  0.48956451  0.61767601  0.51110601  1
  O  O323  1  0.49268905  0.37387181  0.48818952  1
  O  O324  1  0.50207747  0.38441971  0.98820036  1
  O  O325  1  0.50125885  0.87193061  0.49560370  1
  O  O326  1  0.49529751  0.88086971  0.99290673  1
  O  O327  1  0.99355471  0.37910835  0.48969895  1
  O  O328  1  0.98251448  0.36691217  0.98571984  1
  O  O329  1  0.99283933  0.87138960  0.49419266  1
  O  O330  1  0.99577209  0.86969400  0.99013485  1
  O  O331  1  0.49831605  0.48956115  0.37322840  1
  O  O332  1  0.50193254  0.49335864  0.88204692  1
  O  O333  1  0.50246626  0.98415141  0.37744872  1
  O  O334  1  0.50596088  0.98860822  0.88909429  1
  O  O335  1  1.00417357  0.48736709  0.37436360  1
  O  O336  1  0.97854921  0.48409704  0.86407288  1
  O  O337  1  0.98968417  0.99648118  0.36710952  1
  O  O338  1  0.98936459  0.99148236  0.86914237  1
  O  O339  1  0.00831342  0.01152258  0.13235472  1
  O  O340  1  0.00466754  0.01436210  0.62724994  1
  O  O341  1  0.00345346  0.51513806  0.14835725  1
  O  O342  1  0.00485649  0.50468315  0.61728968  1
  O  O343  1  0.50810350  -0.00725460  0.11259684  1
  O  O344  1  0.51816196  0.00443197  0.62132383  1
  O  O345  1  0.50706657  0.50716210  0.11839801  1
  O  O346  1  0.50814312  0.50610995  0.61859837  1
  O  O347  1  0.24449886  0.38215780  0.24753829  1
  O  O348  1  0.23810734  0.37854484  0.74061289  1
  O  O349  1  0.24640239  0.88159080  0.24389440  1
  O  O350  1  0.24380159  0.87184714  0.75420354  1
  O  O351  1  0.75078270  0.38641917  0.25273208  1
  O  O352  1  0.74057109  0.38407309  0.74823865  1
  O  O353  1  0.74174653  0.87743003  0.24696943  1
  O  O354  1  0.76528574  0.88665827  0.73611777  1
  O  O355  1  0.24950389  0.11909817  0.25429827  1
  O  O356  1  0.25180244  0.13258126  0.76754428  1
  O  O357  1  0.25445928  0.61855772  0.25137283  1
  O  O358  1  0.26151910  0.62321798  0.75329384  1
  O  O359  1  0.75364198  0.11708467  0.25995368  1
  O  O360  1  0.75880740  0.11845589  0.75587046  1
  O  O361  1  0.75650819  0.61663500  0.25369565  1
  O  O362  1  0.76478888  0.61823371  0.74709085  1
  O  O363  1  0.36511004  0.12120224  0.37236858  1
  O  O364  1  0.36076554  0.12799755  0.87342368  1
  O  O365  1  0.36913524  0.62599718  0.36526936  1
  O  O366  1  0.38620915  0.62656549  0.86105317  1
  O  O367  1  0.86889053  0.11759770  0.37508149  1
  O  O368  1  0.87794162  0.11806475  0.87195663  1
  O  O369  1  0.86853242  0.63151197  0.36368393  1
  O  O370  1  0.88251159  0.61529578  0.86785944  1
  O  O371  1  0.13687104  0.35955467  0.14028526  1
  O  O372  1  0.12529960  0.37749779  0.62957366  1
  O  O373  1  0.13006612  0.88185902  0.13029878  1
  O  O374  1  0.11651709  0.88572296  0.63875457  1
  O  O375  1  0.61976813  0.38931694  0.12293233  1
  O  O376  1  0.61723267  0.38207175  0.63715502  1
  O  O377  1  0.63276088  0.87958545  0.13190873  1
  O  O378  1  0.64305543  0.89118373  0.61735374  1
  O  O379  1  0.11481709  0.25377369  0.25422764  1
  O  O380  1  0.11908471  0.26166478  0.75495897  1
  O  O381  1  0.11819467  0.75344184  0.25030660  1
  O  O382  1  0.11473140  0.75644208  0.74610799  1
  O  O383  1  0.60941060  0.25146053  0.24040012  1
  O  O384  1  0.62338148  0.25832533  0.75518624  1
  O  O385  1  0.62391558  0.75858055  0.25164680  1
  O  O386  1  0.62608644  0.75492765  0.72655535  1
  O  O387  1  0.38544930  0.24490158  0.23922118  1
  O  O388  1  0.37390230  0.25770657  0.73610425  1
  O  O389  1  0.37654805  0.74374179  0.23926522  1
  O  O390  1  0.37241332  0.73472215  0.74234881  1
  O  O391  1  0.88600064  0.25111725  0.24135961  1
  O  O392  1  0.87679683  0.24672648  0.74217487  1
  O  O393  1  0.87992823  0.74580818  0.24565294  1
  O  O394  1  0.88640700  0.74344104  0.74613791  1
  O  O395  1  0.37268899  0.48594174  0.49632356  1
  O  O396  1  0.39097128  0.49994356  1.00030352  1
  O  O397  1  0.33267195  0.99130674  0.48798933  1
  O  O398  1  0.38861400  0.99017325  1.00636335  1
  O  O399  1  0.87894505  0.48842847  0.50507112  1
  O  O400  1  0.86655250  0.48660737  0.99239445  1
  O  O401  1  0.87379436  0.99220817  0.49124849  1
  O  O402  1  0.87536471  0.98654004  0.99427194  1
  O  O403  1  0.12745501  -0.00139664  0.01193207  1
  O  O404  1  0.13228529  0.01270929  0.51227192  1
  O  O405  1  0.09820061  0.47202188  0.02495059  1
  O  O406  1  0.11742509  0.50287545  0.50171823  1
  O  O407  1  0.61343244  -0.00392642  0.00996356  1
  O  O408  1  0.63976794  0.01427140  0.50891801  1
  O  O409  1  0.61889371  0.51016686  0.00391444  1
  O  O410  1  0.62889290  0.49041797  0.51300295  1
  O  O411  1  0.36748548  0.36619666  0.12198866  1
  O  O412  1  0.36987749  0.37189461  0.61613213  1
  O  O413  1  0.37149275  0.86613817  0.11719642  1
  O  O414  1  0.36316878  0.87863883  0.63511840  1
  O  O415  1  0.87561343  0.36770453  0.10907926  1
  O  O416  1  0.88227416  0.36462494  0.61384096  1
  O  O417  1  0.86975229  0.86980067  0.11964271  1
  O  O418  1  0.87728973  0.87382827  0.61853118  1
  O  O419  1  0.12592958  0.12949452  0.38106390  1
  O  O420  1  0.13025274  0.14042483  0.87499178  1
  O  O421  1  0.13055699  0.62943111  0.37566705  1
  O  O422  1  0.12427563  0.58809627  0.89678620  1
  O  O423  1  0.63931176  0.11881748  0.38178859  1
  O  O424  1  0.62287609  0.14168121  0.87135156  1
  O  O425  1  0.62801741  0.63106718  0.37906510  1
  O  O426  1  0.61743274  0.62786141  0.88796651  1
