# generated using pymatgen
data_V85Zn86O256
_symmetry_space_group_name_H-M   'P 1'
_cell_length_a   16.94353902
_cell_length_b   16.92926151
_cell_length_c   16.94332421
_cell_angle_alpha   90.06660018
_cell_angle_beta   90.06690654
_cell_angle_gamma   89.97619011
_symmetry_Int_Tables_number   1
_chemical_formula_structural   V85Zn86O256
_chemical_formula_sum   'V85 Zn86 O256'
_cell_volume   4860.04326214
_cell_formula_units_Z   1
loop_
 _symmetry_equiv_pos_site_id
 _symmetry_equiv_pos_as_xyz
  1  'x, y, z'
loop_
 _atom_site_type_symbol
 _atom_site_label
 _atom_site_symmetry_multiplicity
 _atom_site_fract_x
 _atom_site_fract_y
 _atom_site_fract_z
 _atom_site_occupancy
  V  V0  1  0.87512999  0.49897990  0.87754228  1
  V  V1  1  0.24586276  0.74672524  0.50198671  1
  V  V2  1  -0.00362434  0.12105149  0.12184236  1
  V  V3  1  0.87262515  0.48908833  0.37692312  1
  V  V4  1  0.50099294  0.62636303  0.62262927  1
  V  V5  1  0.12702825  0.24957637  0.87571844  1
  V  V6  1  0.62184820  0.12037175  0.00784558  1
  V  V7  1  0.11999006  0.11497485  0.00011125  1
  V  V8  1  0.87275770  0.74790556  0.61804285  1
  V  V9  1  0.12071390  0.36549392  0.24830753  1
  V  V10  1  0.76007254  0.63005283  0.37511681  1
  V  V11  1  0.37582613  0.37279838  0.00020747  1
  V  V12  1  0.37545823  0.75119277  0.62473285  1
  V  V13  1  0.50319742  0.75788859  0.25182369  1
  V  V14  1  0.75097476  0.62777761  0.87529406  1
  V  V15  1  0.87559425  0.62694871  0.74967821  1
  V  V16  1  0.25309264  0.12582157  0.87924079  1
  V  V17  1  0.74988408  0.12525283  0.87357572  1
  V  V18  1  0.38588654  -0.00618082  0.87397649  1
  V  V19  1  0.75949365  0.37306834  0.12668218  1
  V  V20  1  0.12198529  0.87780630  0.74864576  1
  V  V21  1  0.12112252  0.62376902  0.00259699  1
  V  V22  1  0.00223210  0.12313628  0.61017097  1
  V  V23  1  0.12220293  0.75188227  0.87480493  1
  V  V24  1  0.62475078  0.75733124  0.87731500  1
  V  V25  1  0.01689320  0.87030376  0.36408616  1
  V  V26  1  0.74872987  0.24877452  0.49566945  1
  V  V27  1  0.87541972  0.25161894  0.61954288  1
  V  V28  1  0.62265646  0.36719055  0.24639262  1
  V  V29  1  0.68627855  0.93195810  0.18542941  1
  V  V30  1  0.12380184  -0.01295319  0.13186708  1
  V  V31  1  0.75004650  0.11612819  0.37058765  1
  V  V32  1  0.24605500  0.24226660  0.49887775  1
  V  V33  1  0.49791346  0.36947680  0.37027019  1
  V  V34  1  0.25093664  0.61991652  0.87709928  1
  V  V35  1  0.36983227  0.49643835  0.37877608  1
  V  V36  1  -0.00328529  0.49161817  0.50273208  1
  V  V37  1  0.75597608  0.25048945  0.00439573  1
  V  V38  1  0.37430940  0.25972379  0.61902332  1
  V  V39  1  0.88764930  0.88064367  0.49800058  1
  V  V40  1  0.62311554  0.37666229  0.75115287  1
  V  V41  1  0.38135354  0.87662565  0.00515973  1
  V  V42  1  0.37539840  0.62383533  0.75257386  1
  V  V43  1  0.12844342  0.49408583  0.12514746  1
  V  V44  1  0.25215970  0.75681912  0.00288505  1
  V  V45  1  0.49859471  0.25620909  0.75191102  1
  V  V46  1  0.49817931  0.62361618  0.12640442  1
  V  V47  1  0.49797347  0.49421263  0.49849403  1
  V  V48  1  0.62206128  0.00029866  0.61586305  1
  V  V49  1  0.75074174  0.49944481  0.74977038  1
  V  V50  1  0.37610317  0.12764864  0.75078261  1
  V  V51  1  0.19403629  0.68323178  0.32974088  1
  V  V52  1  0.75186087  -0.00139285  0.74901462  1
  V  V53  1  0.24951860  0.48692933  0.25235773  1
  V  V54  1  0.49898587  0.12360071  0.61720848  1
  V  V55  1  0.75441039  0.37612696  0.61759204  1
  V  V56  1  -0.01079294  0.24994988  0.24417106  1
  V  V57  1  -0.00240563  0.50119553  0.00789208  1
  V  V58  1  0.75207066  0.75534459  0.01144915  1
  V  V59  1  0.37656787  0.62560061  0.25631241  1
  V  V60  1  0.88127280  0.88012203  0.00605205  1
  V  V61  1  0.62535475  0.87614302  0.75188765  1
  V  V62  1  0.37849941  0.88422112  0.50130029  1
  V  V63  1  0.62902659  0.75219857  0.37495892  1
  V  V64  1  0.62547053  0.50040928  0.62358920  1
  V  V65  1  0.75040938  0.87155404  0.61559442  1
  V  V66  1  0.62277183  0.62513847  0.00180326  1
  V  V67  1  0.62274124  0.25577652  0.87633953  1
  V  V68  1  0.49126843  0.12606596  0.13677770  1
  V  V69  1  0.24152694  0.38043859  0.62034437  1
  V  V70  1  0.49945306  0.75656848  0.75445105  1
  V  V71  1  0.87289910  0.11155287  0.24536127  1
  V  V72  1  0.12091564  0.23567261  0.37616424  1
  V  V73  1  0.00006517  0.37421437  0.87746612  1
  V  V74  1  0.00449185  0.62001198  0.62652235  1
  V  V75  1  0.75136710  0.50559035  0.24972301  1
  V  V76  1  0.50428502  0.88318511  0.37917575  1
  V  V77  1  0.88548502  0.73930339  0.13251014  1
  V  V78  1  -0.00134365  0.24872920  0.74944979  1
  V  V79  1  0.13147722  0.61366656  0.50632692  1
  V  V80  1  0.24952972  0.00118562  0.75066495  1
  V  V81  1  0.12232011  0.00473084  0.61113863  1
  V  V82  1  0.63009496  0.62991792  0.49894278  1
  V  V83  1  0.24867473  0.87648520  0.62459106  1
  V  V84  1  0.25803898  -0.01165927  0.24436713  1
  Zn  Zn85  1  0.38416410  0.49007134  0.87196065  1
  Zn  Zn86  1  0.87898458  0.36973660  0.00581636  1
  Zn  Zn87  1  0.87610361  0.12257200  0.74829105  1
  Zn  Zn88  1  -0.00276149  0.36980910  0.37815589  1
  Zn  Zn89  1  0.36533081  0.26077964  0.13698181  1
  Zn  Zn90  1  0.37234894  0.75576497  0.13041608  1
  Zn  Zn91  1  0.50939000  -0.00639113  -0.00060808  1
  Zn  Zn92  1  0.12429597  0.38353374  0.74893039  1
  Zn  Zn93  1  0.24807083  0.11607105  0.37619325  1
  Zn  Zn94  1  0.24654968  0.25816147  0.01111061  1
  Zn  Zn95  1  0.37001625  0.13633801  0.25815341  1
  Zn  Zn96  1  0.62116888  0.24577930  0.37134785  1
  Zn  Zn97  1  -0.00190796  0.75108416  0.75066014  1
  Zn  Zn98  1  0.24340222  0.50220989  0.74384846  1
  Zn  Zn99  1  0.88121829  -0.00259368  0.37582152  1
  Zn  Zn100  1  0.00294220  0.88848040  0.87932810  1
  Zn  Zn101  1  0.50150776  0.49232253  -0.00754218  1
  Zn  Zn102  1  0.62421297  0.49839627  0.12585436  1
  Zn  Zn103  1  0.00492054  0.73713300  0.25705732  1
  Zn  Zn104  1  0.62157842  0.12138193  0.49334249  1
  Zn  Zn105  1  0.37891208  0.00303057  0.37402027  1
  Zn  Zn106  1  0.87960747  0.00108254  0.88029737  1
  Zn  Zn107  1  0.19047439  0.17836091  0.18916854  1
  Zn  Zn108  1  0.18611338  0.18857216  0.68764591  1
  Zn  Zn109  1  0.18890900  0.68265208  0.16989910  1
  Zn  Zn110  1  0.18649028  0.68660918  0.68810131  1
  Zn  Zn111  1  0.68939337  0.18585848  0.18635342  1
  Zn  Zn112  1  0.68628598  0.18708989  0.68623850  1
  Zn  Zn113  1  0.68710817  0.69269045  0.19019990  1
  Zn  Zn114  1  0.68912401  0.68933384  0.68726959  1
  Zn  Zn115  1  0.31148712  0.30862438  0.31477108  1
  Zn  Zn116  1  0.31186887  0.31656688  0.81350939  1
  Zn  Zn117  1  0.31988394  0.82249225  0.30968704  1
  Zn  Zn118  1  0.31021501  0.81291209  0.81674953  1
  Zn  Zn119  1  0.81021957  0.30946992  0.30836083  1
  Zn  Zn120  1  0.81281619  0.31266240  0.81099256  1
  Zn  Zn121  1  0.81215870  0.81367361  0.31118051  1
  Zn  Zn122  1  0.81490922  0.81467019  0.81458226  1
  Zn  Zn123  1  0.18685949  0.43019831  0.43674786  1
  Zn  Zn124  1  0.19179981  0.43560641  0.93716919  1
  Zn  Zn125  1  0.19118020  0.93444214  0.43257845  1
  Zn  Zn126  1  0.19136081  0.93852328  0.93851613  1
  Zn  Zn127  1  0.68439157  0.43766666  0.43514269  1
  Zn  Zn128  1  0.68632922  0.43768428  0.93935172  1
  Zn  Zn129  1  0.69193135  0.93468631  0.43503372  1
  Zn  Zn130  1  0.69486877  0.93705718  0.94131283  1
  Zn  Zn131  1  0.31052940  0.06164960  0.06407852  1
  Zn  Zn132  1  0.31065894  0.06629546  0.56397392  1
  Zn  Zn133  1  0.31440725  0.55681890  0.06377009  1
  Zn  Zn134  1  0.31553613  0.56187595  0.56190669  1
  Zn  Zn135  1  0.80779577  0.06021306  0.06699680  1
  Zn  Zn136  1  0.81295888  0.06332217  0.56128707  1
  Zn  Zn137  1  0.80776685  0.56218683  0.06133092  1
  Zn  Zn138  1  0.81430133  0.56241326  0.55845986  1
  Zn  Zn139  1  0.43702354  0.43590890  0.18477890  1
  Zn  Zn140  1  0.43488888  0.43844035  0.68771458  1
  Zn  Zn141  1  0.44904348  0.94475203  0.18431027  1
  Zn  Zn142  1  0.43859732  0.93893600  0.68791132  1
  Zn  Zn143  1  0.93742697  0.56113615  0.19123242  1
  Zn  Zn144  1  0.93800129  0.43622753  0.68850859  1
  Zn  Zn145  1  0.94097617  0.93022610  0.18678106  1
  Zn  Zn146  1  0.93968665  0.93933922  0.68659217  1
  Zn  Zn147  1  0.05976831  0.05398968  0.30910506  1
  Zn  Zn148  1  0.06113049  0.06387936  0.80791715  1
  Zn  Zn149  1  0.06120950  0.55311015  0.31694436  1
  Zn  Zn150  1  0.06298872  0.56010922  0.81427408  1
  Zn  Zn151  1  0.56867754  0.05860630  0.30757517  1
  Zn  Zn152  1  0.56513025  0.06814891  0.80908562  1
  Zn  Zn153  1  0.56487099  0.56068399  0.31296715  1
  Zn  Zn154  1  0.56352460  0.56701484  0.81229946  1
  Zn  Zn155  1  0.43198847  0.18835293  0.43684245  1
  Zn  Zn156  1  0.43811035  0.19448308  0.94023992  1
  Zn  Zn157  1  0.43769785  0.68844571  0.43689222  1
  Zn  Zn158  1  0.43924084  0.68752382  0.93666014  1
  Zn  Zn159  1  0.93207235  0.18828401  0.43328319  1
  Zn  Zn160  1  0.93733883  0.18300657  0.93731525  1
  Zn  Zn161  1  0.94171693  0.68758179  0.43911949  1
  Zn  Zn162  1  0.93789042  0.68978282  0.93961572  1
  Zn  Zn163  1  0.06365628  0.30860974  0.06441284  1
  Zn  Zn164  1  0.06451451  0.30857804  0.56049802  1
  Zn  Zn165  1  0.05796310  0.80938651  0.06347591  1
  Zn  Zn166  1  0.06358035  0.80688572  0.56147692  1
  Zn  Zn167  1  0.55848110  0.31067491  0.06320482  1
  Zn  Zn168  1  0.56442061  0.31190891  0.56082025  1
  Zn  Zn169  1  0.55827263  0.81231731  0.06373218  1
  Zn  Zn170  1  0.56327997  0.81276076  0.56161130  1
  O  O171  1  0.11539588  0.11521065  0.11636475  1
  O  O172  1  0.11598038  0.11690621  0.62877325  1
  O  O173  1  0.12328665  0.61486606  0.10948500  1
  O  O174  1  0.11613852  0.62606908  0.61900655  1
  O  O175  1  0.61973140  0.13005464  0.11058846  1
  O  O176  1  0.61759566  0.11649721  0.62413565  1
  O  O177  1  0.61794120  0.62719279  0.11726138  1
  O  O178  1  0.62232587  0.62075126  0.61840169  1
  O  O179  1  0.38310769  0.38889610  0.37064295  1
  O  O180  1  0.37411985  0.37496351  0.88727865  1
  O  O181  1  0.38598833  0.87749251  0.38583395  1
  O  O182  1  0.37260597  0.88554520  0.88062411  1
  O  O183  1  0.87241027  0.38578251  0.37211052  1
  O  O184  1  0.88122777  0.38136767  0.87712265  1
  O  O185  1  0.87299214  0.87401728  0.39131647  1
  O  O186  1  0.87898568  0.87362949  0.88852995  1
  O  O187  1  0.25304676  -0.00459225  0.36089759  1
  O  O188  1  0.25806619  0.00823588  0.86849954  1
  O  O189  1  0.25816357  0.49529389  0.36827940  1
  O  O190  1  0.25417958  0.51373303  0.87436377  1
  O  O191  1  0.75505761  0.01254349  0.38087214  1
  O  O192  1  0.75298504  0.00766625  0.86630225  1
  O  O193  1  0.75514383  0.50594845  0.37094401  1
  O  O194  1  0.75439795  0.50679059  0.87105917  1
  O  O195  1  0.23652203  0.50812276  0.13721076  1
  O  O196  1  0.25660902  0.48337169  0.62167068  1
  O  O197  1  0.23855802  1.00310705  0.13437076  1
  O  O198  1  0.24483315  0.99556757  0.63220214  1
  O  O199  1  0.74643287  0.49498657  0.13340510  1
  O  O200  1  0.74750659  0.49290696  0.62762345  1
  O  O201  1  0.73759929  1.00053898  0.12916034  1
  O  O202  1  0.74283991  0.99401745  0.63067329  1
  O  O203  1  0.00876940  0.36062133  0.25217240  1
  O  O204  1  0.00109511  0.36382938  0.75524118  1
  O  O205  1  0.00286363  0.86213651  0.25978521  1
  O  O206  1  0.01280624  0.87210234  0.74884800  1
  O  O207  1  0.51034922  0.38533548  0.25912050  1
  O  O208  1  0.50609628  0.36435378  0.74293234  1
  O  O209  1  0.49078541  0.86359562  0.25964772  1
  O  O210  1  0.50681858  0.86336241  0.74474379  1
  O  O211  1  0.49887540  0.12084171  0.23908685  1
  O  O212  1  0.49754178  0.13773738  0.73985501  1
  O  O213  1  0.49344963  0.63069439  0.24652055  1
  O  O214  1  0.49369992  0.63656074  0.74232570  1
  O  O215  1  0.99267166  0.12869989  0.24227482  1
  O  O216  1  0.99811123  0.13919761  0.74174981  1
  O  O217  1  1.00350894  0.62381897  0.25505165  1
  O  O218  1  0.99286470  0.62560237  0.74347114  1
  O  O219  1  0.37075976  0.26038817  0.00172663  1
  O  O220  1  0.36405519  0.24907157  0.51058936  1
  O  O221  1  0.36993908  0.76164112  -0.00309880  1
  O  O222  1  0.36506482  0.75224951  0.50580798  1
  O  O223  1  0.85983590  0.25049437  -0.00716106  1
  O  O224  1  0.86402149  0.24903798  0.51085913  1
  O  O225  1  0.86918741  0.75318837  0.00857439  1
  O  O226  1  0.87767232  0.75819114  0.51291626  1
  O  O227  1  0.13090949  0.25270381  0.48731520  1
  O  O228  1  0.12494037  0.23955197  0.98838095  1
  O  O229  1  0.13919288  0.73883333  0.50411564  1
  O  O230  1  0.13083078  0.74363051  0.99533404  1
  O  O231  1  0.63837034  0.24645185  0.50025531  1
  O  O232  1  0.63233257  0.24240736  0.99106134  1
  O  O233  1  0.62005579  0.73679891  0.49466636  1
  O  O234  1  0.63175518  0.74418257  0.99474641  1
  O  O235  1  0.49847882  0.22840420  0.11657214  1
  O  O236  1  0.49244233  0.24684861  0.62897234  1
  O  O237  1  0.49625232  0.74132621  0.13536812  1
  O  O238  1  0.49574405  0.74483703  0.63171260  1
  O  O239  1  1.00607245  0.23650931  0.13455607  1
  O  O240  1  0.99305274  0.24731844  0.62971971  1
  O  O241  1  0.98970805  0.74507142  0.12983762  1
  O  O242  1  0.99327532  0.73669997  0.62636432  1
  O  O243  1  0.00463748  0.25036079  0.36803404  1
  O  O244  1  0.00422684  0.25245369  0.86785711  1
  O  O245  1  -0.00671522  0.76409517  0.37451869  1
  O  O246  1  0.01433616  0.74973762  0.87338052  1
  O  O247  1  0.50139441  0.26694096  0.38742965  1
  O  O248  1  0.51086116  0.24406684  0.86313051  1
  O  O249  1  0.50746150  0.75575509  0.36985179  1
  O  O250  1  0.51167857  0.74504658  0.86514829  1
  O  O251  1  0.24827075  0.13706689  0.49974599  1
  O  O252  1  0.24411314  0.12361424  0.98775880  1
  O  O253  1  0.24239727  0.63062419  0.50648578  1
  O  O254  1  0.24529384  0.63073677  0.99290238  1
  O  O255  1  0.74918455  0.13228854  0.49189922  1
  O  O256  1  0.74150547  0.13134905  0.99432890  1
  O  O257  1  0.73903129  0.61955602  0.49109611  1
  O  O258  1  0.74149558  0.63259550  0.99464089  1
  O  O259  1  0.26422736  0.37438545  -0.00232363  1
  O  O260  1  0.24606765  0.36313427  0.51311028  1
  O  O261  1  0.26365771  0.86639495  -0.00767803  1
  O  O262  1  0.25725829  0.86522786  0.50525023  1
  O  O263  1  0.74820936  0.36728494  0.00817366  1
  O  O264  1  0.74357354  0.36929242  0.51100820  1
  O  O265  1  0.76266009  0.86200096  -0.00487813  1
  O  O266  1  0.76001370  0.87643394  0.51245323  1
  O  O267  1  0.13023794  0.49004499  0.24439053  1
  O  O268  1  0.12970541  0.49759181  0.75269945  1
  O  O269  1  0.13333804  0.99759048  0.23695996  1
  O  O270  1  0.13231369  0.99252319  0.74349454  1
  O  O271  1  0.63667486  0.49178088  0.25146314  1
  O  O272  1  0.63107813  0.49926959  0.74275715  1
  O  O273  1  0.62087239  0.98151202  0.24618332  1
  O  O274  1  0.63414907  0.99528625  0.74408146  1
  O  O275  1  0.36580858  -0.00140121  0.24735595  1
  O  O276  1  0.37005687  0.00596878  0.75577273  1
  O  O277  1  0.36519955  0.50614884  0.25409512  1
  O  O278  1  0.37144647  0.51350618  0.75033168  1
  O  O279  1  0.88034907  0.00852360  0.24965167  1
  O  O280  1  0.86058264  0.00033191  0.74608227  1
  O  O281  1  0.86004125  0.50404559  0.25953702  1
  O  O282  1  0.86948004  0.50554864  0.75679052  1
  O  O283  1  0.12148355  0.36661819  0.36218509  1
  O  O284  1  0.11894702  0.36494745  0.87569948  1
  O  O285  1  0.11477634  0.86719400  0.38047773  1
  O  O286  1  0.12563557  0.86893690  0.86840219  1
  O  O287  1  0.61702651  0.37379506  0.36634683  1
  O  O288  1  0.63134233  0.36379079  0.86799279  1
  O  O289  1  0.61933089  0.86020769  0.38791861  1
  O  O290  1  0.63241857  0.86404520  0.87096832  1
  O  O291  1  0.38553102  0.12387876  0.12530264  1
  O  O292  1  0.38130671  0.13278252  0.63218450  1
  O  O293  1  0.38042139  0.62591966  0.13767691  1
  O  O294  1  0.37914570  0.63177399  0.63367995  1
  O  O295  1  0.88706551  0.11856319  0.12818801  1
  O  O296  1  0.88126980  0.13320753  0.62681278  1
  O  O297  1  0.87664225  0.63371235  0.12030269  1
  O  O298  1  0.87863512  0.63186771  0.62840199  1
  O  O299  1  0.25111918  0.24109792  0.12214966  1
  O  O300  1  0.25586948  0.25452764  0.61990843  1
  O  O301  1  0.25585239  0.74768250  0.10835916  1
  O  O302  1  0.25509273  0.75626793  0.61967257  1
  O  O303  1  0.74448186  0.25836328  0.11450352  1
  O  O304  1  0.75635268  0.25574486  0.62004151  1
  O  O305  1  0.76011633  0.74111565  0.11478745  1
  O  O306  1  0.75878189  0.76007112  0.62997137  1
  O  O307  1  0.23902571  0.24913512  0.38402561  1
  O  O308  1  0.24109262  0.24171041  0.87414671  1
  O  O309  1  0.25614665  0.74841709  0.38128141  1
  O  O310  1  0.23988721  0.74232428  0.88241831  1
  O  O311  1  0.75114159  0.24162359  0.38320286  1
  O  O312  1  0.74263321  0.24412004  0.87811481  1
  O  O313  1  0.74189059  0.74201766  0.37124644  1
  O  O314  1  0.74471462  0.74383492  0.88110527  1
  O  O315  1  0.00815683  0.12773196  0.00800330  1
  O  O316  1  -0.00428619  0.13160071  0.51116353  1
  O  O317  1  0.01061513  0.61429860  -0.00977229  1
  O  O318  1  0.00950579  0.61687705  0.50698066  1
  O  O319  1  0.51580681  0.12493485  -0.00561712  1
  O  O320  1  0.50174794  0.13115851  0.51366442  1
  O  O321  1  0.50784111  0.63200065  0.01099056  1
  O  O322  1  0.50689455  0.61742870  0.50436445  1
  O  O323  1  0.50764722  0.38941516  0.49460868  1
  O  O324  1  0.48802796  0.37541650  1.00056939  1
  O  O325  1  0.48948960  0.86739085  0.49296979  1
  O  O326  1  0.48756039  0.87482188  0.99519164  1
  O  O327  1  1.00439199  0.38804441  0.50253764  1
  O  O328  1  0.99898600  0.38072423  0.99616539  1
  O  O329  1  0.99031065  0.86953110  0.49637910  1
  O  O330  1  0.98540419  0.86837478  0.99634674  1
  O  O331  1  0.49504753  0.49391507  0.38186252  1
  O  O332  1  0.49475302  0.51704044  0.88048143  1
  O  O333  1  0.50321396  0.98605687  0.37396532  1
  O  O334  1  0.48866888  1.00739021  0.87249191  1
  O  O335  1  0.98940228  0.49417574  0.38473062  1
  O  O336  1  0.99538687  0.49324059  0.88605513  1
  O  O337  1  0.99866275  0.97820356  0.37115011  1
  O  O338  1  0.99227879  1.00181556  0.86743605  1
  O  O339  1  0.01367962  0.00575311  0.13108145  1
  O  O340  1  0.00964043  0.01122111  0.62960976  1
  O  O341  1  0.00824802  0.50089059  0.11339164  1
  O  O342  1  -0.00968571  0.51215525  0.61868293  1
  O  O343  1  0.50201127  0.01824993  0.11415784  1
  O  O344  1  0.50983853  0.01063260  0.63311961  1
  O  O345  1  0.50330488  0.51487458  0.12455017  1
  O  O346  1  0.50337189  0.50599553  0.61817915  1
  O  O347  1  0.24174987  0.38337991  0.25326406  1
  O  O348  1  0.24896200  0.37411592  0.73493986  1
  O  O349  1  0.25183131  0.88709976  0.24650365  1
  O  O350  1  0.24056284  0.87818982  0.74503654  1
  O  O351  1  0.74306984  0.38101333  0.24370166  1
  O  O352  1  0.74373630  0.38041183  0.74048971  1
  O  O353  1  0.75013232  0.87887746  0.24494069  1
  O  O354  1  0.74550126  0.88112561  0.74168850  1
  O  O355  1  0.25095055  0.10737091  0.25552032  1
  O  O356  1  0.25523428  0.12247405  0.75944287  1
  O  O357  1  0.25172860  0.62349251  0.26068167  1
  O  O358  1  0.25927001  0.62789848  0.75700460  1
  O  O359  1  0.76142079  0.13236913  0.25733162  1
  O  O360  1  0.74883216  0.11758091  0.75658313  1
  O  O361  1  0.74125713  0.61721823  0.26256379  1
  O  O362  1  0.75536460  0.61930748  0.75483089  1
  O  O363  1  0.37085003  0.11808001  0.37599574  1
  O  O364  1  0.36880928  0.12107664  0.87098779  1
  O  O365  1  0.38246820  0.61399141  0.36367839  1
  O  O366  1  0.36545407  0.63265103  0.86588290  1
  O  O367  1  0.86991379  0.11892916  0.36540947  1
  O  O368  1  0.86049525  0.12542602  0.87171539  1
  O  O369  1  0.86282142  0.61933732  0.38443805  1
  O  O370  1  0.87009785  0.62109280  0.87031640  1
  O  O371  1  0.12110732  0.38246166  0.13567051  1
  O  O372  1  0.13860042  0.36766893  0.62811066  1
  O  O373  1  0.12230265  0.88881630  0.11463244  1
  O  O374  1  0.12870799  0.87931005  0.63107518  1
  O  O375  1  0.62852432  0.37780228  0.13166486  1
  O  O376  1  0.63225985  0.38150520  0.63066698  1
  O  O377  1  0.63388405  0.86805391  0.12296677  1
  O  O378  1  0.63256646  0.87990484  0.62928881  1
  O  O379  1  0.11816569  0.25150012  0.25652474  1
  O  O380  1  0.11683134  0.25015085  0.76161979  1
  O  O381  1  0.13886022  0.73492101  0.26208115  1
  O  O382  1  0.12581764  0.75842688  0.75820200  1
  O  O383  1  0.62960550  0.26303388  0.25197507  1
  O  O384  1  0.61868451  0.25527991  0.75480451  1
  O  O385  1  0.61377807  0.74457241  0.26215189  1
  O  O386  1  0.61923977  0.75453709  0.75701807  1
  O  O387  1  0.37831653  0.25035820  0.25020042  1
  O  O388  1  0.38244343  0.24632947  0.74460453  1
  O  O389  1  0.38166759  0.74163470  0.25184024  1
  O  O390  1  0.38155708  0.74573516  0.74740472  1
  O  O391  1  0.88595391  0.24026699  0.25322404  1
  O  O392  1  0.88090636  0.24870952  0.73904591  1
  O  O393  1  0.87273298  0.75033999  0.23317326  1
  O  O394  1  0.87658651  0.74530328  0.74046760  1
  O  O395  1  0.38529393  0.50655951  0.49027284  1
  O  O396  1  0.37749740  0.49065537  0.99747980  1
  O  O397  1  0.36962256  0.98675618  0.50359301  1
  O  O398  1  0.37495330  0.98946146  0.99167706  1
  O  O399  1  0.88423473  0.50212888  0.49070043  1
  O  O400  1  0.88207854  0.49877829  0.99568202  1
  O  O401  1  0.87624314  0.98354166  0.50382100  1
  O  O402  1  0.86698915  0.98308311  1.00258606  1
  O  O403  1  0.13180094  0.00985453  0.00744964  1
  O  O404  1  0.13312939  -0.00581602  0.51293928  1
  O  O405  1  0.12118848  0.50351075  0.00592327  1
  O  O406  1  0.11823065  0.50818853  0.49533764  1
  O  O407  1  0.62681836  0.01693526  -0.01185516  1
  O  O408  1  0.62898465  -0.00082932  0.51295181  1
  O  O409  1  0.62464872  0.51495890  0.00095049  1
  O  O410  1  0.61834203  0.50949030  0.50455400  1
  O  O411  1  0.37745903  0.37604057  0.11067670  1
  O  O412  1  0.36696917  0.36389209  0.62849356  1
  O  O413  1  0.38116975  0.87595061  0.10905876  1
  O  O414  1  0.37066796  0.86958296  0.62064580  1
  O  O415  1  0.85858287  0.37698382  0.12410958  1
  O  O416  1  0.86456790  0.36633318  0.62966117  1
  O  O417  1  0.88078546  0.86029799  0.11276255  1
  O  O418  1  0.87231434  0.86881861  0.61711105  1
  O  O419  1  0.12244584  0.13277503  0.37016830  1
  O  O420  1  0.13208726  0.12890780  0.87997223  1
  O  O421  1  0.13148452  0.62305324  0.38506179  1
  O  O422  1  0.13245584  0.63177905  0.88281800  1
  O  O423  1  0.63257915  0.12696688  0.37441201  1
  O  O424  1  0.63504783  0.13535935  0.87776555  1
  O  O425  1  0.63030831  0.63239215  0.38265646  1
  O  O426  1  0.63195690  0.63763701  0.88128602  1
