# generated using pymatgen
data_V85Zn86O256
_symmetry_space_group_name_H-M   'P 1'
_cell_length_a   16.91559339
_cell_length_b   16.91450244
_cell_length_c   16.91474529
_cell_angle_alpha   90.01624136
_cell_angle_beta   90.01456255
_cell_angle_gamma   89.91997450
_symmetry_Int_Tables_number   1
_chemical_formula_structural   V85Zn86O256
_chemical_formula_sum   'V85 Zn86 O256'
_cell_volume   4839.62232690
_cell_formula_units_Z   1
loop_
 _symmetry_equiv_pos_site_id
 _symmetry_equiv_pos_as_xyz
  1  'x, y, z'
loop_
 _atom_site_type_symbol
 _atom_site_label
 _atom_site_symmetry_multiplicity
 _atom_site_fract_x
 _atom_site_fract_y
 _atom_site_fract_z
 _atom_site_occupancy
  V  V0  1  0.25432064  0.37513171  0.13357527  1
  V  V1  1  0.49993946  0.62636123  0.62418504  1
  V  V2  1  0.12477865  0.12550139  0.50140781  1
  V  V3  1  -0.00659295  0.48684122  0.49532420  1
  V  V4  1  0.63104165  0.49607976  0.62345264  1
  V  V5  1  0.37671547  0.49854848  0.87906295  1
  V  V6  1  0.49869166  0.25264358  0.74356438  1
  V  V7  1  0.75320106  0.51733949  0.75172435  1
  V  V8  1  0.74505524  0.00672140  0.75033749  1
  V  V9  1  0.87382296  0.48716755  0.36989366  1
  V  V10  1  0.12270458  0.62635044  -0.00631187  1
  V  V11  1  0.12485449  0.12425871  -0.00118806  1
  V  V12  1  -0.00474890  0.12532630  0.63092411  1
  V  V13  1  0.25015765  0.49684362  0.75019366  1
  V  V14  1  0.63570892  0.37177042  0.75140309  1
  V  V15  1  0.12414698  0.37802784  0.25478758  1
  V  V16  1  0.75389743  0.26632706  0.49854260  1
  V  V17  1  0.87593969  0.37263918  -0.01107104  1
  V  V18  1  0.75229177  0.74730035  -0.01042964  1
  V  V19  1  0.12451942  0.87742857  0.25286964  1
  V  V20  1  -0.00020009  0.12487113  0.12668239  1
  V  V21  1  0.37900161  0.23342459  0.12984022  1
  V  V22  1  0.26172468  0.12456695  0.37263969  1
  V  V23  1  -0.00042197  -0.00021509  0.50383906  1
  V  V24  1  0.58062277  0.93251025  0.19270948  1
  V  V25  1  0.74044206  0.24274031  -0.01609710  1
  V  V26  1  0.49510224  0.88008196  0.37664186  1
  V  V27  1  0.63225777  0.50179762  0.13341588  1
  V  V28  1  -0.00149358  0.87510557  0.37856788  1
  V  V29  1  0.50094237  0.74813805  0.24925111  1
  V  V30  1  0.50301155  0.00105874  0.50346583  1
  V  V31  1  0.00088337  0.49344880  -0.00693604  1
  V  V32  1  -0.00537141  0.62244594  0.62554979  1
  V  V33  1  0.87190827  0.51419570  0.87245475  1
  V  V34  1  -0.00050373  -0.00011861  -0.00037729  1
  V  V35  1  0.50572564  0.36607387  0.87629256  1
  V  V36  1  0.00272256  0.74582613  0.75342240  1
  V  V37  1  0.13905923  -0.00087702  0.62940540  1
  V  V38  1  0.87403664  0.74771152  0.63071947  1
  V  V39  1  0.50271156  0.87689742  0.87466484  1
  V  V40  1  0.86816271  0.00405172  0.37755135  1
  V  V41  1  0.62913637  0.62200013  -0.00725110  1
  V  V42  1  0.00436592  0.87372773  0.87110007  1
  V  V43  1  0.12490418  0.49478260  0.62446673  1
  V  V44  1  0.63849406  0.12022475  0.50143574  1
  V  V45  1  0.50317077  0.12887972  0.62208536  1
  V  V46  1  0.25226949  0.11874124  0.86979258  1
  V  V47  1  0.86572383  0.12635786  0.25430973  1
  V  V48  1  -0.00266961  0.74814033  0.25267305  1
  V  V49  1  0.36816264  0.87959385  0.50779011  1
  V  V50  1  0.37817596  0.37186362  0.00364570  1
  V  V51  1  0.25770653  0.25270184  0.50572046  1
  V  V52  1  0.25322496  0.62425105  0.36139497  1
  V  V53  1  0.11978667  0.25596701  0.87319209  1
  V  V54  1  0.87447709  0.87658548  -0.00198430  1
  V  V55  1  0.87098613  0.00792876  0.87196460  1
  V  V56  1  0.24527871  0.87335813  0.12636332  1
  V  V57  1  0.87367079  0.25144341  0.12248268  1
  V  V58  1  0.12083009  0.25160207  0.37813351  1
  V  V59  1  0.75031537  0.74759293  0.49992171  1
  V  V60  1  0.62460667  0.75362890  0.37183744  1
  V  V61  1  0.87037683  0.26473758  0.62385177  1
  V  V62  1  0.37210806  0.74206889  0.12884386  1
  V  V63  1  0.75101861  0.88261749  0.12922580  1
  V  V64  1  0.74576320  0.88080384  0.62345937  1
  V  V65  1  0.62871359  0.24903371  0.37441760  1
  V  V66  1  0.37129645  0.49922010  0.36146686  1
  V  V67  1  0.37369416  0.87419407  -0.00257635  1
  V  V68  1  0.37555329  0.12275120  0.74401282  1
  V  V69  1  0.49896309  0.62157859  0.12673217  1
  V  V70  1  0.75195574  0.37637164  0.12788475  1
  V  V71  1  0.49576474  0.49960975  0.49818869  1
  V  V72  1  0.62338123  0.87815867  0.74663753  1
  V  V73  1  -0.00092954  0.25312047  0.25415144  1
  V  V74  1  0.49807948  0.24055497  0.24814013  1
  V  V75  1  0.87330671  0.74817139  0.12603772  1
  V  V76  1  0.24400681  0.74910015  -0.00641167  1
  V  V77  1  0.13597492  0.87343264  0.74627128  1
  V  V78  1  0.75279418  0.62278333  0.36542477  1
  V  V79  1  0.12740914  0.49953759  0.12726349  1
  V  V80  1  0.61376588  0.11239490  -0.00111294  1
  V  V81  1  0.25236265  0.24766900  0.00126957  1
  V  V82  1  0.25736754  0.00340759  0.25680178  1
  V  V83  1  0.12799515  0.62421573  0.49889397  1
  V  V84  1  0.37598227  0.62429495  0.74990129  1
  Zn  Zn85  1  0.24751105  0.62641080  0.87442744  1
  Zn  Zn86  1  0.62802441  0.74530724  0.87030258  1
  Zn  Zn87  1  0.49990894  -0.00281266  0.01492352  1
  Zn  Zn88  1  0.74558931  0.00087937  0.25244419  1
  Zn  Zn89  1  -0.00150649  0.62193940  0.12493680  1
  Zn  Zn90  1  0.12610302  0.74885077  0.37707930  1
  Zn  Zn91  1  0.11848079  0.37851319  0.75618970  1
  Zn  Zn92  1  0.36713461  0.75399920  0.62780058  1
  Zn  Zn93  1  0.50074434  0.74984120  0.75095649  1
  Zn  Zn94  1  0.50420058  0.49644658  0.00186575  1
  Zn  Zn95  1  0.37747354  0.37568756  0.50485367  1
  Zn  Zn96  1  0.62487795  0.62342246  0.49754093  1
  Zn  Zn97  1  0.87607706  0.87412270  0.50152213  1
  Zn  Zn98  1  0.62742503  0.37588848  0.25114461  1
  Zn  Zn99  1  0.12457947  0.00179931  0.12680468  1
  Zn  Zn100  1  0.25753293  0.36846102  0.63190246  1
  Zn  Zn101  1  -0.00714851  0.25807579  0.75427278  1
  Zn  Zn102  1  0.87320207  0.61838029  0.24819125  1
  Zn  Zn103  1  0.37494790  -0.00096818  0.87042122  1
  Zn  Zn104  1  0.24857029  0.75158305  0.50466829  1
  Zn  Zn105  1  0.50069889  0.37567915  0.37229104  1
  Zn  Zn106  1  0.86523761  0.13105856  0.75070373  1
  Zn  Zn107  1  0.18820384  0.18782578  0.18861745  1
  Zn  Zn108  1  0.18682488  0.18450178  0.68884549  1
  Zn  Zn109  1  0.18194170  0.68802174  0.18459605  1
  Zn  Zn110  1  0.18724155  0.68607560  0.68560236  1
  Zn  Zn111  1  0.68542586  0.18846703  0.18120388  1
  Zn  Zn112  1  0.68443005  0.19193850  0.68370232  1
  Zn  Zn113  1  0.68584734  0.69219436  0.18445929  1
  Zn  Zn114  1  0.68319500  0.68944478  0.68561568  1
  Zn  Zn115  1  0.31391744  0.31193254  0.31522131  1
  Zn  Zn116  1  0.31469088  0.30823197  0.81294247  1
  Zn  Zn117  1  0.31355253  0.80973158  0.31725926  1
  Zn  Zn118  1  0.31446158  0.80933140  0.81318153  1
  Zn  Zn119  1  0.80884386  0.31068024  0.31305734  1
  Zn  Zn120  1  0.81419156  0.31926424  0.80980536  1
  Zn  Zn121  1  0.81207257  0.81596437  0.31177039  1
  Zn  Zn122  1  0.81579467  0.81681722  0.80918270  1
  Zn  Zn123  1  0.18894232  0.43895035  0.43582547  1
  Zn  Zn124  1  0.19264834  0.43652831  0.94213397  1
  Zn  Zn125  1  0.18552124  0.94048004  0.43835436  1
  Zn  Zn126  1  0.18548815  0.93729069  0.93373076  1
  Zn  Zn127  1  0.68795882  0.43918806  0.43489330  1
  Zn  Zn128  1  0.69039183  0.43728843  0.93757768  1
  Zn  Zn129  1  0.68498041  0.93521076  0.43667766  1
  Zn  Zn130  1  0.68669900  0.93860590  0.93664331  1
  Zn  Zn131  1  0.30864388  0.05768085  0.06279487  1
  Zn  Zn132  1  0.31882937  0.06595306  0.55888877  1
  Zn  Zn133  1  0.31051310  0.56071202  0.06416112  1
  Zn  Zn134  1  0.31246333  0.56094466  0.56211129  1
  Zn  Zn135  1  0.80951463  0.06653671  0.06188267  1
  Zn  Zn136  1  0.81438171  0.06349673  0.56579328  1
  Zn  Zn137  1  0.81299186  0.56249144  0.06090698  1
  Zn  Zn138  1  0.81240172  0.56012426  0.56013064  1
  Zn  Zn139  1  0.44473729  0.43138645  0.18917973  1
  Zn  Zn140  1  0.43850753  0.43550078  0.68525894  1
  Zn  Zn141  1  0.41793728  0.93154933  0.19119895  1
  Zn  Zn142  1  0.44088362  0.94345691  0.68482955  1
  Zn  Zn143  1  0.93980650  0.43570146  0.18478305  1
  Zn  Zn144  1  0.93750124  0.43738798  0.69218082  1
  Zn  Zn145  1  0.93557766  0.93854885  0.18912495  1
  Zn  Zn146  1  0.93589975  0.93650336  0.68783701  1
  Zn  Zn147  1  0.06163502  0.06422870  0.31572950  1
  Zn  Zn148  1  0.06315149  0.06233269  0.81034004  1
  Zn  Zn149  1  0.06053053  0.56141757  0.31454231  1
  Zn  Zn150  1  0.05990927  0.56089118  0.81265148  1
  Zn  Zn151  1  0.55820794  0.06916858  0.32319464  1
  Zn  Zn152  1  0.56568715  0.06510480  0.81928624  1
  Zn  Zn153  1  0.56091909  0.56602202  0.31177727  1
  Zn  Zn154  1  0.56158221  0.55664764  0.81202869  1
  Zn  Zn155  1  0.44148629  0.18742547  0.43495321  1
  Zn  Zn156  1  0.44143994  0.18469136  0.93719604  1
  Zn  Zn157  1  0.43292916  0.68827141  0.43820497  1
  Zn  Zn158  1  0.43964288  0.68867890  0.93808395  1
  Zn  Zn159  1  0.93610708  0.18887114  0.44036062  1
  Zn  Zn160  1  0.93615383  0.18697947  0.93770143  1
  Zn  Zn161  1  0.93617406  0.68302665  0.43955826  1
  Zn  Zn162  1  0.94115008  0.68798784  0.93827347  1
  Zn  Zn163  1  0.06253215  0.31270663  0.06277066  1
  Zn  Zn164  1  0.06244479  0.31180612  0.56764601  1
  Zn  Zn165  1  0.06051993  0.81204256  0.06352048  1
  Zn  Zn166  1  0.06603080  0.81117577  0.56589516  1
  Zn  Zn167  1  0.56584277  0.30861114  0.06535501  1
  Zn  Zn168  1  0.56439813  0.31499346  0.56256935  1
  Zn  Zn169  1  0.56112107  0.80555768  0.05529717  1
  Zn  Zn170  1  0.56183110  0.81070244  0.56184021  1
  O  O171  1  0.11791694  0.12538042  0.11809739  1
  O  O172  1  0.11669252  0.11923386  0.62175703  1
  O  O173  1  0.12344230  0.61447993  0.11672503  1
  O  O174  1  0.11565922  0.61291691  0.61861425  1
  O  O175  1  0.63413133  0.13214556  0.09876895  1
  O  O176  1  0.61393680  0.13004283  0.61368790  1
  O  O177  1  0.61983305  0.62025738  0.11746145  1
  O  O178  1  0.61732767  0.61558463  0.62307954  1
  O  O179  1  0.37419137  0.38914951  0.37945260  1
  O  O180  1  0.38082805  0.37944723  0.88246646  1
  O  O181  1  0.38985785  0.87003823  0.38314747  1
  O  O182  1  0.38003193  0.87624290  0.88166660  1
  O  O183  1  0.87038694  0.38806312  0.37330169  1
  O  O184  1  0.87220338  0.38581041  0.88561872  1
  O  O185  1  0.88360494  0.88224439  0.37732982  1
  O  O186  1  0.88634358  0.88379588  0.87759303  1
  O  O187  1  0.23998044  0.01384200  0.36950984  1
  O  O188  1  0.25230249  0.01432412  0.87979093  1
  O  O189  1  0.26137301  0.50942280  0.37512461  1
  O  O190  1  0.26147870  0.49980225  0.87090141  1
  O  O191  1  0.76418791  -0.00712869  0.37446162  1
  O  O192  1  0.76027246  -0.00934563  0.86366247  1
  O  O193  1  0.76390065  0.50844949  0.38055337  1
  O  O194  1  0.75627927  0.49980608  0.86186834  1
  O  O195  1  0.23732178  0.49023139  0.12111062  1
  O  O196  1  0.24038556  0.50162663  0.63379108  1
  O  O197  1  0.24604831  0.99103308  0.13556904  1
  O  O198  1  0.23782258  1.00919248  0.61981143  1
  O  O199  1  0.74394933  0.49137896  0.12023808  1
  O  O200  1  0.74378092  0.50633740  0.63604097  1
  O  O201  1  0.75609578  0.98727006  0.12620371  1
  O  O202  1  0.75503291  0.98643036  0.63085898  1
  O  O203  1  0.00839244  0.36056147  0.24405919  1
  O  O204  1  0.00559165  0.37086816  0.74865869  1
  O  O205  1  0.00447530  0.86721621  0.25583845  1
  O  O206  1  0.00449001  0.86679262  0.75485029  1
  O  O207  1  0.50857559  0.36326546  0.25399748  1
  O  O208  1  0.50656924  0.37021171  0.75623808  1
  O  O209  1  0.50577001  0.87347499  0.25485512  1
  O  O210  1  0.50638600  0.87489998  0.75448623  1
  O  O211  1  0.50076380  0.14048598  0.25411995  1
  O  O212  1  0.50070654  0.13269366  0.74276902  1
  O  O213  1  0.50186551  0.63361125  0.23615962  1
  O  O214  1  0.49307283  0.62279098  0.74330870  1
  O  O215  1  0.99575003  0.13524168  0.24557345  1
  O  O216  1  0.99997486  0.13127011  0.73886780  1
  O  O217  1  1.00176476  0.63864648  0.24798013  1
  O  O218  1  1.00672270  0.63373747  0.73961708  1
  O  O219  1  0.37292729  0.25300809  0.00926716  1
  O  O220  1  0.36019653  0.25148927  0.49203720  1
  O  O221  1  0.36782392  0.75749604  0.00674242  1
  O  O222  1  0.37748314  0.76622837  0.50217589  1
  O  O223  1  0.87084460  0.25708845  0.00243086  1
  O  O224  1  0.86237351  0.24746676  0.50768200  1
  O  O225  1  0.87136626  0.75489432  0.00697649  1
  O  O226  1  0.86836707  0.75063349  0.51019212  1
  O  O227  1  0.12989935  0.24678020  0.49364654  1
  O  O228  1  0.12977516  0.24358919  0.99246765  1
  O  O229  1  0.12431231  0.73914990  0.49726716  1
  O  O230  1  0.13177322  0.73994185  1.00810874  1
  O  O231  1  0.63722488  0.24719146  0.49674134  1
  O  O232  1  0.63771690  0.25089950  0.99624738  1
  O  O233  1  0.63268517  0.74604688  0.49249621  1
  O  O234  1  0.63596603  0.74142827  0.99696056  1
  O  O235  1  0.49370743  0.25277231  0.13816607  1
  O  O236  1  0.50295627  0.24416224  0.63139870  1
  O  O237  1  0.49286208  0.74437203  0.12992458  1
  O  O238  1  0.49780293  0.73593423  0.62630810  1
  O  O239  1  0.99399397  0.24466831  0.13187265  1
  O  O240  1  0.98619721  0.24337718  0.62178782  1
  O  O241  1  0.98756700  0.75121813  0.13220017  1
  O  O242  1  0.99322676  0.74274300  0.63045174  1
  O  O243  1  0.01124214  0.24698286  0.37000236  1
  O  O244  1  0.01634213  0.24296222  0.87552372  1
  O  O245  1  -0.00108957  0.75550606  0.36835887  1
  O  O246  1  -0.00563694  0.75800756  0.86343726  1
  O  O247  1  0.50786425  0.25323952  0.36710666  1
  O  O248  1  0.49726400  0.26158173  0.86806944  1
  O  O249  1  0.50470898  0.75282692  0.36710936  1
  O  O250  1  0.50151142  0.76221913  0.87346785  1
  O  O251  1  0.24543374  0.13507723  0.49332966  1
  O  O252  1  0.24399768  0.12925665  0.99488803  1
  O  O253  1  0.23685093  0.61883187  0.49287213  1
  O  O254  1  0.24220889  0.63181460  1.00073143  1
  O  O255  1  0.74061444  0.13006096  0.50612230  1
  O  O256  1  0.75202150  0.13957082  0.99590363  1
  O  O257  1  0.75056373  0.63574829  0.49086990  1
  O  O258  1  0.74176530  0.63530297  1.00544160  1
  O  O259  1  0.25622646  0.36690126  0.01249919  1
  O  O260  1  0.24721369  0.35967892  0.49745685  1
  O  O261  1  0.25218982  0.86825254  0.00361147  1
  O  O262  1  0.26565534  0.87675141  0.49119695  1
  O  O263  1  0.75756784  0.36720834  0.00592171  1
  O  O264  1  0.74802025  0.36470546  0.50281686  1
  O  O265  1  0.75602124  0.86809468  0.00675134  1
  O  O266  1  0.74973008  0.86395577  0.50624752  1
  O  O267  1  0.11528170  0.48946523  0.24147606  1
  O  O268  1  0.13293445  0.50031067  0.74382998  1
  O  O269  1  0.12553064  0.98807933  0.25070933  1
  O  O270  1  0.12026111  0.98616151  0.74240850  1
  O  O271  1  0.62306098  0.50127519  0.23756762  1
  O  O272  1  0.63548933  0.49688319  0.74403474  1
  O  O273  1  0.62650792  1.00295868  0.25447324  1
  O  O274  1  0.63071977  0.98777912  0.75547439  1
  O  O275  1  0.35732803  -0.00324182  0.25791420  1
  O  O276  1  0.38200136  0.01692652  0.75114634  1
  O  O277  1  0.38007651  0.49792239  0.26257394  1
  O  O278  1  0.37015327  0.50687949  0.75786329  1
  O  O279  1  0.87638010  0.00994061  0.25904513  1
  O  O280  1  0.86538855  0.00073319  0.75592382  1
  O  O281  1  0.88623525  0.50086244  0.26465939  1
  O  O282  1  0.86114291  0.49915591  0.75548490  1
  O  O283  1  0.13090703  0.36933048  0.36239337  1
  O  O284  1  0.13283382  0.35860061  0.88020910  1
  O  O285  1  0.11686824  0.87270279  0.36970903  1
  O  O286  1  0.11241376  0.88006242  0.86335589  1
  O  O287  1  0.62717171  0.36349168  0.37290762  1
  O  O288  1  0.61539796  0.38488100  0.86540578  1
  O  O289  1  0.61396173  0.86115332  0.38000979  1
  O  O290  1  0.61831046  0.87130184  0.86829402  1
  O  O291  1  0.36879005  0.13443407  0.12400337  1
  O  O292  1  0.38946758  0.12475802  0.62978588  1
  O  O293  1  0.38108519  0.63462324  0.12007920  1
  O  O294  1  0.38325667  0.62002211  0.63462007  1
  O  O295  1  0.88150728  0.13072060  0.13246672  1
  O  O296  1  0.88182123  0.13244887  0.62900715  1
  O  O297  1  0.87662882  0.63329391  0.12850636  1
  O  O298  1  0.88699056  0.63072916  0.61894620  1
  O  O299  1  0.25773166  0.25538176  0.12205160  1
  O  O300  1  0.24312156  0.24840922  0.60902671  1
  O  O301  1  0.25553308  0.75274881  0.11911393  1
  O  O302  1  0.25439476  0.74170071  0.61786120  1
  O  O303  1  0.75811500  0.25754231  0.11450131  1
  O  O304  1  0.76173890  0.24823421  0.61426686  1
  O  O305  1  0.75988250  0.75794339  0.11908105  1
  O  O306  1  0.75620424  0.75338933  0.61874478  1
  O  O307  1  0.23950403  0.24352653  0.38014232  1
  O  O308  1  0.24408715  0.24048866  0.88245106  1
  O  O309  1  0.24966762  0.73587805  0.38097205  1
  O  O310  1  0.25290438  0.74687484  0.88980834  1
  O  O311  1  0.74655325  0.25066454  0.38940980  1
  O  O312  1  0.75554106  0.25522129  0.88613714  1
  O  O313  1  0.74402631  0.74773054  0.38077135  1
  O  O314  1  0.75372454  0.75601999  0.88632656  1
  O  O315  1  0.00435745  0.11991565  0.00609699  1
  O  O316  1  0.00483114  0.12097447  0.51087517  1
  O  O317  1  0.00711076  0.61751560  0.00387249  1
  O  O318  1  0.01020019  0.61711407  0.50558274  1
  O  O319  1  0.50647567  0.11662892  0.00248448  1
  O  O320  1  0.50631071  0.12027961  0.50399326  1
  O  O321  1  0.50783891  0.62581497  0.01190092  1
  O  O322  1  0.49983522  0.61665755  0.50585180  1
  O  O323  1  0.50159629  0.38817240  0.49515851  1
  O  O324  1  0.49704492  0.37376851  0.99377603  1
  O  O325  1  0.49573221  0.88199763  0.49557117  1
  O  O326  1  0.49069920  0.87374090  0.99397873  1
  O  O327  1  1.00398980  0.38876457  0.50150715  1
  O  O328  1  0.99054955  0.38195738  1.00384029  1
  O  O329  1  1.00013996  0.88021249  0.49551865  1
  O  O330  1  0.99562829  0.87858678  0.99145695  1
  O  O331  1  0.48913902  0.50392756  0.38019295  1
  O  O332  1  0.48889334  0.48963280  0.87641952  1
  O  O333  1  0.50398227  0.99142268  0.38752096  1
  O  O334  1  0.49702819  0.98655734  0.87854683  1
  O  O335  1  0.98928735  0.50320191  0.38721083  1
  O  O336  1  0.99293765  0.50184959  0.88608184  1
  O  O337  1  0.99293882  0.99460083  0.38272746  1
  O  O338  1  0.99390616  0.99388270  0.87880777  1
  O  O339  1  -0.00010470  0.00598341  0.11869298  1
  O  O340  1  0.00226222  0.00758739  0.62115739  1
  O  O341  1  0.01038373  0.49872030  0.11395145  1
  O  O342  1  0.00238272  0.50518792  0.61572351  1
  O  O343  1  0.50657839  -0.01935617  0.13543288  1
  O  O344  1  0.50293686  0.00891239  0.61142350  1
  O  O345  1  0.50670500  0.50719334  0.12320202  1
  O  O346  1  0.50722612  0.50883770  0.61810032  1
  O  O347  1  0.24224794  0.36830027  0.23984979  1
  O  O348  1  0.24873896  0.38612717  0.75273080  1
  O  O349  1  0.24114657  0.87849991  0.25077682  1
  O  O350  1  0.23473311  0.87035298  0.75779948  1
  O  O351  1  0.74881659  0.36785664  0.23309286  1
  O  O352  1  0.73837666  0.38382557  0.75114903  1
  O  O353  1  0.74996039  0.87805056  0.23853274  1
  O  O354  1  0.74320818  0.88112739  0.74203449  1
  O  O355  1  0.24051485  0.11604359  0.26082564  1
  O  O356  1  0.26239118  0.13288926  0.75746209  1
  O  O357  1  0.24410210  0.62852385  0.26253679  1
  O  O358  1  0.25594310  0.61373763  0.75452924  1
  O  O359  1  0.76261593  0.12493046  0.24486102  1
  O  O360  1  0.74433743  0.11052377  0.74144043  1
  O  O361  1  0.75070971  0.63325111  0.26189760  1
  O  O362  1  0.74579577  0.61627601  0.75135968  1
  O  O363  1  0.36097408  0.12838405  0.37696962  1
  O  O364  1  0.36880530  0.12403912  0.86807450  1
  O  O365  1  0.36178903  0.61651950  0.37649050  1
  O  O366  1  0.37629563  0.61570480  0.87017994  1
  O  O367  1  0.88205188  0.11686384  0.36652668  1
  O  O368  1  0.88069683  0.11261549  0.86918684  1
  O  O369  1  0.86775306  0.61798178  0.37191134  1
  O  O370  1  0.87613750  0.61373553  0.88035006  1
  O  O371  1  0.13253030  0.37813366  0.13320064  1
  O  O372  1  0.13099981  0.38638019  0.62592077  1
  O  O373  1  0.12861471  0.87562250  0.13465146  1
  O  O374  1  0.12236139  0.88346915  0.63759810  1
  O  O375  1  0.63413557  0.38466360  0.12342493  1
  O  O376  1  0.61882971  0.38978440  0.63462108  1
  O  O377  1  0.63256697  0.86912621  0.12536800  1
  O  O378  1  0.63418336  0.86916410  0.63209253  1
  O  O379  1  0.11832860  0.25515163  0.25774520  1
  O  O380  1  0.12829674  0.25120420  0.76521306  1
  O  O381  1  0.11658469  0.76090608  0.25108267  1
  O  O382  1  0.11466374  0.76161462  0.74416841  1
  O  O383  1  0.61938024  0.24777569  0.25723646  1
  O  O384  1  0.61586502  0.26129024  0.74567882  1
  O  O385  1  0.61194946  0.74878607  0.25560858  1
  O  O386  1  0.62373761  0.76164390  0.75253999  1
  O  O387  1  0.38813651  0.25444773  0.24488764  1
  O  O388  1  0.39002679  0.24087254  0.75381924  1
  O  O389  1  0.38753441  0.75784776  0.24108694  1
  O  O390  1  0.37710401  0.73576762  0.75023013  1
  O  O391  1  0.88196214  0.24497249  0.24746965  1
  O  O392  1  0.87150198  0.24980792  0.73760523  1
  O  O393  1  0.88162898  0.74977628  0.24315140  1
  O  O394  1  0.88313158  0.75320839  0.73776350  1
  O  O395  1  0.38296104  0.50149558  0.49025885  1
  O  O396  1  0.37711429  0.49288150  0.99433177  1
  O  O397  1  0.38438650  0.98847351  0.50056489  1
  O  O398  1  0.37566007  0.98373034  1.00376357  1
  O  O399  1  0.88674494  0.50241502  0.49102014  1
  O  O400  1  0.88121852  0.49407429  0.99363815  1
  O  O401  1  0.88148792  0.99912726  0.49468122  1
  O  O402  1  0.87857805  0.99585790  0.99192840  1
  O  O403  1  0.11789431  0.00639273  0.00111429  1
  O  O404  1  0.11785151  0.00458587  0.50893007  1
  O  O405  1  0.11899660  0.50237438  0.00514459  1
  O  O406  1  0.11598194  0.50307908  0.50464582  1
  O  O407  1  0.62140065  0.00595299  0.00216749  1
  O  O408  1  0.62051851  0.01110945  0.49476031  1
  O  O409  1  0.62571325  0.50719958  0.00874088  1
  O  O410  1  0.61958948  0.50253233  0.50640671  1
  O  O411  1  0.36873528  0.37064829  0.12205720  1
  O  O412  1  0.36926570  0.38154000  0.61861397  1
  O  O413  1  0.36520710  0.86115051  0.11731504  1
  O  O414  1  0.38016728  0.87532892  0.61211851  1
  O  O415  1  0.86973423  0.37192594  0.11489640  1
  O  O416  1  0.87656330  0.36317545  0.62293468  1
  O  O417  1  0.87001565  0.86860780  0.11915422  1
  O  O418  1  0.86616211  0.86564448  0.62322786  1
  O  O419  1  0.12801887  0.13391411  0.38354339  1
  O  O420  1  0.13228464  0.13144691  0.87856218  1
  O  O421  1  0.13507019  0.62273710  0.38052284  1
  O  O422  1  0.12692733  0.61848861  0.88932458  1
  O  O423  1  0.62319600  0.13964008  0.38838589  1
  O  O424  1  0.62487301  0.12516358  0.89577589  1
  O  O425  1  0.63154123  0.63493353  0.37576986  1
  O  O426  1  0.61664130  0.62437064  0.88864780  1
