# generated using pymatgen
data_V85Zn86O256
_symmetry_space_group_name_H-M   'P 1'
_cell_length_a   16.92175623
_cell_length_b   16.92092877
_cell_length_c   16.92433649
_cell_angle_alpha   90.07895551
_cell_angle_beta   90.03387502
_cell_angle_gamma   89.97712180
_symmetry_Int_Tables_number   1
_chemical_formula_structural   V85Zn86O256
_chemical_formula_sum   'V85 Zn86 O256'
_cell_volume   4845.97043624
_cell_formula_units_Z   1
loop_
 _symmetry_equiv_pos_site_id
 _symmetry_equiv_pos_as_xyz
  1  'x, y, z'
loop_
 _atom_site_type_symbol
 _atom_site_label
 _atom_site_symmetry_multiplicity
 _atom_site_fract_x
 _atom_site_fract_y
 _atom_site_fract_z
 _atom_site_occupancy
  V  V0  1  0.25571832  -0.00204769  0.24752114  1
  V  V1  1  0.50166375  0.25674762  0.76494887  1
  V  V2  1  0.62332298  0.37677723  0.77085610  1
  V  V3  1  0.50030135  0.12549280  0.62577774  1
  V  V4  1  0.37310827  0.75216998  0.62298601  1
  V  V5  1  0.24936180  0.25107472  0.50207537  1
  V  V6  1  -0.01047026  0.25226266  0.74493121  1
  V  V7  1  0.37491880  0.88334012  0.49265368  1
  V  V8  1  0.62397337  0.49694527  0.62263711  1
  V  V9  1  0.37343735  0.50149557  0.37533696  1
  V  V10  1  0.36901987  0.12272185  0.74961690  1
  V  V11  1  -0.00244188  0.87890059  0.88281662  1
  V  V12  1  0.50082953  0.50418774  -0.00584432  1
  V  V13  1  0.87676476  0.50397616  0.87435866  1
  V  V14  1  0.76390704  0.12018360  0.37542166  1
  V  V15  1  0.75530369  -0.00537981  0.24879350  1
  V  V16  1  0.50007015  0.62462596  0.62258713  1
  V  V17  1  0.75171940  0.24818780  0.50172233  1
  V  V18  1  0.12390928  0.62882891  0.00681883  1
  V  V19  1  0.88724282  0.63178914  0.24107025  1
  V  V20  1  0.12459509  0.37439807  0.25068314  1
  V  V21  1  0.25021763  0.37906848  0.12501598  1
  V  V22  1  0.73031466  0.25119752  -0.00440815  1
  V  V23  1  0.87406392  0.49994570  0.37269304  1
  V  V24  1  0.37645064  0.75013509  0.11851429  1
  V  V25  1  0.13204128  0.49878032  0.62354492  1
  V  V26  1  0.24868013  0.87196661  0.11746306  1
  V  V27  1  0.37149829  0.62480182  0.74992272  1
  V  V28  1  0.86588675  0.00282847  0.87419782  1
  V  V29  1  0.12845245  0.62604299  0.49514195  1
  V  V30  1  0.12716895  0.00134129  0.62922610  1
  V  V31  1  0.49994943  0.87491401  0.88386334  1
  V  V32  1  0.24596806  0.11762414  0.87288161  1
  V  V33  1  0.24870498  0.50688720  0.25365694  1
  V  V34  1  0.50673088  0.74872421  0.25399709  1
  V  V35  1  0.86532247  0.12275893  0.74671069  1
  V  V36  1  0.75312038  0.36810884  0.12923847  1
  V  V37  1  0.25080611  0.74811921  0.48930656  1
  V  V38  1  -0.00019732  0.50038379  0.50142289  1
  V  V39  1  0.62769149  0.74358328  0.88944900  1
  V  V40  1  0.37278484  0.37577135  0.50242457  1
  V  V41  1  0.37673409  0.37562868  -0.00894135  1
  V  V42  1  -0.00776659  0.12640627  0.62407010  1
  V  V43  1  0.76063206  0.87534052  0.63458067  1
  V  V44  1  0.87271596  0.86838689  0.49209521  1
  V  V45  1  0.74985696  0.63119384  0.37370327  1
  V  V46  1  -0.00640583  0.75170732  0.74554765  1
  V  V47  1  0.25539763  0.11769600  0.37449257  1
  V  V48  1  0.50421520  0.88125132  0.37280766  1
  V  V49  1  0.38171424  0.25032677  0.13085917  1
  V  V50  1  0.38478015  0.12511724  0.25176508  1
  V  V51  1  0.24959725  0.87742570  0.62552397  1
  V  V52  1  0.73624083  0.13025642  0.87460098  1
  V  V53  1  0.12336922  0.24711287  0.37310608  1
  V  V54  1  0.75153886  0.36985138  0.62601940  1
  V  V55  1  0.63278733  0.87051712  0.24829391  1
  V  V56  1  0.37093101  0.25609345  0.62690239  1
  V  V57  1  0.37476830  0.62868384  0.25509189  1
  V  V58  1  0.62633796  0.12213852  0.49830289  1
  V  V59  1  0.11763980  0.12423457  0.00809618  1
  V  V60  1  0.12347480  0.24896080  0.87173395  1
  V  V61  1  0.00075541  0.50295917  0.00895667  1
  V  V62  1  0.87490545  0.36951518  0.50226794  1
  V  V63  1  0.12846194  0.75150168  0.87998940  1
  V  V64  1  0.12391837  0.12219886  0.49949464  1
  V  V65  1  0.25049437  0.62583615  0.88065728  1
  V  V66  1  0.37273592  -0.00168228  0.87373325  1
  V  V67  1  0.75364221  0.50749659  0.74732974  1
  V  V68  1  0.00093326  0.37615841  0.87273031  1
  V  V69  1  -0.00773872  -0.00174915  0.49094880  1
  V  V70  1  0.62032760  0.24642722  0.36968796  1
  V  V71  1  0.62397428  0.88087111  0.74772572  1
  V  V72  1  0.61493227  0.36923393  0.24872331  1
  V  V73  1  0.12887801  0.87841500  0.75160903  1
  V  V74  1  -0.00237751  0.24518855  0.23592020  1
  V  V75  1  0.13106446  0.37358919  0.74290437  1
  V  V76  1  0.62351080  0.50523261  0.12667175  1
  V  V77  1  0.87685655  0.36443225  0.00318050  1
  V  V78  1  0.24988973  0.25010232  0.00014970  1
  V  V79  1  0.87757393  0.75804876  0.11295287  1
  V  V80  1  0.62495373  0.63083420  0.49517153  1
  V  V81  1  0.62686451  0.00243929  0.11967558  1
  V  V82  1  0.50194518  0.75095576  0.75005449  1
  V  V83  1  0.88087896  0.12140854  0.23126379  1
  V  V84  1  0.11957657  0.86872333  0.25156407  1
  Zn  Zn85  1  0.49680126  0.00270491  0.49576712  1
  Zn  Zn86  1  -0.01102296  0.00816429  0.00847730  1
  Zn  Zn87  1  0.37639473  0.49731286  0.87104607  1
  Zn  Zn88  1  -0.00617373  0.63175878  0.62181084  1
  Zn  Zn89  1  0.49707385  0.36972541  0.37299103  1
  Zn  Zn90  1  0.50988549  0.13294874  0.12298037  1
  Zn  Zn91  1  0.25123746  0.49679936  0.74810790  1
  Zn  Zn92  1  0.11980206  0.74202927  0.36820698  1
  Zn  Zn93  1  0.11877268  0.00089480  0.12799993  1
  Zn  Zn94  1  -0.00608103  0.86992236  0.36741726  1
  Zn  Zn95  1  0.62772613  0.00054308  0.62674042  1
  Zn  Zn96  1  0.87068472  0.63304140  0.74632096  1
  Zn  Zn97  1  0.12225946  0.50668138  0.12937563  1
  Zn  Zn98  1  0.50075632  0.49789330  0.49665019  1
  Zn  Zn99  1  0.74962901  0.49571108  0.25304526  1
  Zn  Zn100  1  0.75707510  0.63859285  0.90387045  1
  Zn  Zn101  1  0.85653580  0.87862473  0.00127770  1
  Zn  Zn102  1  0.50492917  0.62894748  0.12413411  1
  Zn  Zn103  1  0.36978956  0.87205674  -0.00242844  1
  Zn  Zn104  1  0.50073392  0.00774977  0.00167934  1
  Zn  Zn105  1  0.75152498  0.74828062  0.50535114  1
  Zn  Zn106  1  -0.00224141  0.37090923  0.37372409  1
  Zn  Zn107  1  0.19422172  0.18906634  0.18877715  1
  Zn  Zn108  1  0.18624288  0.18819953  0.68667140  1
  Zn  Zn109  1  0.19184614  0.68996137  0.18629965  1
  Zn  Zn110  1  0.18399490  0.68899930  0.68516545  1
  Zn  Zn111  1  0.69382174  0.18619570  0.18698123  1
  Zn  Zn112  1  0.68230035  0.19312891  0.68997662  1
  Zn  Zn113  1  0.69500794  0.68402133  0.19217833  1
  Zn  Zn114  1  0.68656766  0.69223752  0.68588364  1
  Zn  Zn115  1  0.31099067  0.31208364  0.31390347  1
  Zn  Zn116  1  0.30991926  0.30830288  0.81227293  1
  Zn  Zn117  1  0.31289871  0.81516198  0.31100500  1
  Zn  Zn118  1  0.30958404  0.81084347  0.81139348  1
  Zn  Zn119  1  0.81219701  0.30632223  0.31264689  1
  Zn  Zn120  1  0.80959739  0.31641178  0.81531082  1
  Zn  Zn121  1  0.81472007  0.80723356  0.31147557  1
  Zn  Zn122  1  0.80873646  0.81582214  0.81923924  1
  Zn  Zn123  1  0.19018951  0.43580275  0.43691041  1
  Zn  Zn124  1  0.18776201  0.44142193  0.93488712  1
  Zn  Zn125  1  0.18630508  0.93815686  0.43668320  1
  Zn  Zn126  1  0.18628199  0.94041304  0.93870915  1
  Zn  Zn127  1  0.68745591  0.43819560  0.43622544  1
  Zn  Zn128  1  0.69905931  0.46434480  0.94958247  1
  Zn  Zn129  1  0.68940158  0.93682985  0.43419463  1
  Zn  Zn130  1  0.68419420  0.94274217  0.93001442  1
  Zn  Zn131  1  0.31296834  0.06258006  0.06259179  1
  Zn  Zn132  1  0.31078281  0.06259685  0.56433153  1
  Zn  Zn133  1  0.31423717  0.56483251  0.06379393  1
  Zn  Zn134  1  0.31114550  0.56337150  0.56192367  1
  Zn  Zn135  1  0.80339773  0.06362533  0.05864589  1
  Zn  Zn136  1  0.81094224  0.05459169  0.56455301  1
  Zn  Zn137  1  0.81151608  0.55698422  0.06709001  1
  Zn  Zn138  1  0.81470949  0.56455537  0.56343752  1
  Zn  Zn139  1  0.43736059  0.43876163  0.18579509  1
  Zn  Zn140  1  0.44022135  0.43704405  0.68839387  1
  Zn  Zn141  1  0.44020320  0.93568058  0.18643391  1
  Zn  Zn142  1  0.43741098  0.93964956  0.68829070  1
  Zn  Zn143  1  0.93695764  0.43387870  0.18885802  1
  Zn  Zn144  1  0.93823122  0.44078404  0.68366976  1
  Zn  Zn145  1  0.93865123  0.93925946  0.18057396  1
  Zn  Zn146  1  0.93926206  0.94013879  0.68923544  1
  Zn  Zn147  1  0.06264204  0.05781735  0.30750016  1
  Zn  Zn148  1  0.05588392  0.06187531  0.81353258  1
  Zn  Zn149  1  0.06110952  0.56174909  0.31658105  1
  Zn  Zn150  1  0.06319463  0.56502868  0.81272049  1
  Zn  Zn151  1  0.56708667  0.05804259  0.31074509  1
  Zn  Zn152  1  0.55610148  0.06259458  0.81064839  1
  Zn  Zn153  1  0.56179289  0.55908308  0.31270704  1
  Zn  Zn154  1  0.56301662  0.56280889  0.81220212  1
  Zn  Zn155  1  0.43790526  0.18768901  0.43755086  1
  Zn  Zn156  1  0.43799530  0.18513963  0.94292722  1
  Zn  Zn157  1  0.43937413  0.69098890  0.43455356  1
  Zn  Zn158  1  0.44168993  0.68575619  0.93796983  1
  Zn  Zn159  1  0.93948118  0.18908290  0.43665672  1
  Zn  Zn160  1  0.93477974  0.18742303  0.93226777  1
  Zn  Zn161  1  0.93952038  0.68938670  0.43467034  1
  Zn  Zn162  1  0.94146173  0.68847711  0.93728944  1
  Zn  Zn163  1  0.06480676  0.31428420  0.06077223  1
  Zn  Zn164  1  0.06102309  0.31168666  0.56298547  1
  Zn  Zn165  1  0.05593937  0.80918497  0.06866213  1
  Zn  Zn166  1  0.06117429  0.81296652  0.55841509  1
  Zn  Zn167  1  0.55891465  0.32014378  0.06191429  1
  Zn  Zn168  1  0.56006618  0.31042460  0.56347009  1
  Zn  Zn169  1  0.69188716  0.81103454  0.06645043  1
  Zn  Zn170  1  0.56333282  0.81348986  0.56217897  1
  O  O171  1  0.13313846  0.12899510  0.10964945  1
  O  O172  1  0.11805392  0.11891221  0.62003686  1
  O  O173  1  0.13231315  0.62564697  0.11123156  1
  O  O174  1  0.11916416  0.61677088  0.61576219  1
  O  O175  1  0.62490772  0.10844348  0.13766969  1
  O  O176  1  0.61756861  0.12537443  0.61904877  1
  O  O177  1  0.62636150  0.60827580  0.13439512  1
  O  O178  1  0.62185060  0.61468773  0.61933683  1
  O  O179  1  0.37634442  0.37976628  0.38219843  1
  O  O180  1  0.36374256  0.37755747  0.88701642  1
  O  O181  1  0.38356877  0.87133956  0.38397268  1
  O  O182  1  0.37871492  0.88137997  0.87168357  1
  O  O183  1  0.87395332  0.38142622  0.38205111  1
  O  O184  1  0.88353562  0.38118713  0.88078701  1
  O  O185  1  0.87412262  0.87455430  0.38794750  1
  O  O186  1  0.88096319  0.88554212  0.87590831  1
  O  O187  1  0.24778602  0.01145814  0.36887023  1
  O  O188  1  0.25312159  0.01085444  0.87359966  1
  O  O189  1  0.26254849  0.49470742  0.36685777  1
  O  O190  1  0.25219627  0.51125484  0.86813339  1
  O  O191  1  0.74501740  0.01007543  0.36167956  1
  O  O192  1  0.75770034  0.01367505  0.87400029  1
  O  O193  1  0.76051409  0.50631916  0.37639809  1
  O  O194  1  0.76796094  0.48832313  0.85847079  1
  O  O195  1  0.24945984  0.49389517  0.13343984  1
  O  O196  1  0.23657920  0.50251136  0.62730211  1
  O  O197  1  0.24589731  0.99229685  0.13143052  1
  O  O198  1  0.23521615  0.99591353  0.62166583  1
  O  O199  1  0.74049703  0.48309525  0.13020933  1
  O  O200  1  0.74332777  0.49024631  0.62964729  1
  O  O201  1  0.74124650  1.00511930  0.13811764  1
  O  O202  1  0.74442729  0.98179869  0.62342419  1
  O  O203  1  0.00659896  0.36534375  0.25256518  1
  O  O204  1  0.00600612  0.36804496  0.75070750  1
  O  O205  1  0.01651396  0.88222403  0.24971044  1
  O  O206  1  0.00763232  0.86947464  0.75922183  1
  O  O207  1  0.51085858  0.37394956  0.25061272  1
  O  O208  1  0.51018697  0.36955167  0.74992484  1
  O  O209  1  0.50885906  0.86888467  0.25569415  1
  O  O210  1  0.50330375  0.86833265  0.75551963  1
  O  O211  1  0.48745766  0.11936090  0.24922342  1
  O  O212  1  0.48961301  0.13398708  0.74430040  1
  O  O213  1  0.49326409  0.63126084  0.25131026  1
  O  O214  1  0.49238388  0.63046751  0.74411658  1
  O  O215  1  0.98776444  0.12802148  0.25333453  1
  O  O216  1  0.98998840  0.13258664  0.74309770  1
  O  O217  1  0.98558945  0.62028664  0.25395883  1
  O  O218  1  1.00305043  0.64353958  0.75222488  1
  O  O219  1  0.36683258  0.25899150  0.00666841  1
  O  O220  1  0.37114926  0.25569477  0.50736259  1
  O  O221  1  0.38211164  0.74992176  0.01433446  1
  O  O222  1  0.36851858  0.75766220  0.50400413  1
  O  O223  1  0.87618728  0.26266556  -0.00387410  1
  O  O224  1  0.86996986  0.26181244  0.49512412  1
  O  O225  1  0.87436891  0.74999685  0.00748674  1
  O  O226  1  0.87518815  0.76483239  0.50368366  1
  O  O227  1  0.12813946  0.24302758  0.49368242  1
  O  O228  1  0.13002271  0.24279567  0.99268363  1
  O  O229  1  0.13442157  0.74200288  0.50384293  1
  O  O230  1  0.11732584  0.74259330  0.99117048  1
  O  O231  1  0.63076157  0.23926705  0.49583043  1
  O  O232  1  0.63197462  0.25827134  0.99702713  1
  O  O233  1  0.62533259  0.73439574  0.50379516  1
  O  O234  1  0.61987214  0.75049907  0.98786366  1
  O  O235  1  0.48544879  0.25353892  0.12426935  1
  O  O236  1  0.49028339  0.24065815  0.63051561  1
  O  O237  1  0.48822223  0.74727014  0.14347008  1
  O  O238  1  0.49284460  0.74488519  0.62994090  1
  O  O239  1  1.00614613  0.25201636  0.13681580  1
  O  O240  1  1.00325328  0.23582523  0.63030104  1
  O  O241  1  0.97874333  0.74496035  0.12402109  1
  O  O242  1  1.00607949  0.75395967  0.64251528  1
  O  O243  1  0.01300044  0.24830673  0.36953939  1
  O  O244  1  0.00543617  0.25489706  0.86378030  1
  O  O245  1  0.00862152  0.75854836  0.38315228  1
  O  O246  1  0.00973536  0.75893906  0.86778311  1
  O  O247  1  0.51584409  0.24948426  0.37918955  1
  O  O248  1  0.48921562  0.24983706  0.86343705  1
  O  O249  1  0.49623929  0.76066165  0.36190508  1
  O  O250  1  0.50622867  0.75652433  0.86978399  1
  O  O251  1  0.24624750  0.12957722  0.49223700  1
  O  O252  1  0.24207486  0.13012190  0.99095626  1
  O  O253  1  0.24284647  0.63647459  0.50577825  1
  O  O254  1  0.24351346  0.62027280  0.98770807  1
  O  O255  1  0.74539424  0.12647458  0.49564583  1
  O  O256  1  0.74938006  0.14351673  0.99171716  1
  O  O257  1  0.74300446  0.62429364  0.49410756  1
  O  O258  1  0.73516435  0.57125533  0.98852818  1
  O  O259  1  0.25341786  0.37336180  0.00775276  1
  O  O260  1  0.26254761  0.36611979  0.49618333  1
  O  O261  1  0.24866652  0.87765164  0.01260308  1
  O  O262  1  0.25654169  0.87018896  0.50411833  1
  O  O263  1  0.75768035  0.36679703  0.00519560  1
  O  O264  1  0.75589292  0.37068498  0.50601151  1
  O  O265  1  0.74493681  0.87239768  -0.00965153  1
  O  O266  1  0.76076845  0.87452223  0.50572225  1
  O  O267  1  0.13194469  0.49600376  0.25086044  1
  O  O268  1  0.12180455  0.49199251  0.74088438  1
  O  O269  1  0.13811547  0.99231457  0.24802038  1
  O  O270  1  0.11603901  0.99174579  0.74183054  1
  O  O271  1  0.62611246  0.48746210  0.24461100  1
  O  O272  1  0.63173136  0.49542213  0.74228843  1
  O  O273  1  0.63504130  0.99116353  0.24478559  1
  O  O274  1  0.61702820  0.98508012  0.74932476  1
  O  O275  1  0.36364205  0.00756296  0.24389377  1
  O  O276  1  0.37702205  0.01068790  0.76005526  1
  O  O277  1  0.36900137  0.50589691  0.25579830  1
  O  O278  1  0.37410934  0.51182478  0.74916681  1
  O  O279  1  0.87022038  0.01158227  0.24601500  1
  O  O280  1  0.88008357  0.01252478  0.75870913  1
  O  O281  1  0.87673587  0.50273609  0.26208700  1
  O  O282  1  0.87040990  0.49988973  0.75619060  1
  O  O283  1  0.12555717  0.36446105  0.36903157  1
  O  O284  1  0.11919574  0.36972773  0.86742443  1
  O  O285  1  0.12926912  0.87552618  0.35889834  1
  O  O286  1  0.12022471  0.87188417  0.86993849  1
  O  O287  1  0.62572798  0.36597363  0.36734811  1
  O  O288  1  0.63525940  0.39065800  0.86756687  1
  O  O289  1  0.61817043  0.87631843  0.36385464  1
  O  O290  1  0.61578279  0.86739539  0.86640125  1
  O  O291  1  0.37082408  0.13494903  0.13467737  1
  O  O292  1  0.37933239  0.13062308  0.63204858  1
  O  O293  1  0.37452851  0.63229249  0.13760597  1
  O  O294  1  0.37862778  0.63072839  0.63118730  1
  O  O295  1  0.87172169  0.12655639  0.13350941  1
  O  O296  1  0.88127215  0.11961021  0.63191188  1
  O  O297  1  0.87339683  0.62070320  0.13805700  1
  O  O298  1  0.88149820  0.61818412  0.63311521  1
  O  O299  1  0.25703536  0.25940838  0.11935627  1
  O  O300  1  0.26213323  0.24355192  0.61855346  1
  O  O301  1  0.26343261  0.76055352  0.13130140  1
  O  O302  1  0.25484263  0.75813337  0.61850122  1
  O  O303  1  0.74557524  0.25842900  0.11039285  1
  O  O304  1  0.74428012  0.26300535  0.61899506  1
  O  O305  1  0.76499593  0.74164075  0.12411809  1
  O  O306  1  0.74483400  0.76850572  0.62228194  1
  O  O307  1  0.23942132  0.24059942  0.37869752  1
  O  O308  1  0.24331402  0.23899651  0.87961366  1
  O  O309  1  0.24645664  0.75400175  0.38682571  1
  O  O310  1  0.23682115  0.74390949  0.87206075  1
  O  O311  1  0.74144480  0.24040120  0.38281810  1
  O  O312  1  0.75199709  0.24725214  0.88791093  1
  O  O313  1  0.75457668  0.73487636  0.38073301  1
  O  O314  1  0.73416493  0.74641154  0.87092709  1
  O  O315  1  0.01509450  0.13033157  -0.00723791  1
  O  O316  1  0.00156310  0.11807711  0.50662866  1
  O  O317  1  0.01085504  0.61359377  -0.00827526  1
  O  O318  1  0.00667240  0.61557987  0.50132505  1
  O  O319  1  0.49424698  0.12054855  0.01022163  1
  O  O320  1  0.50699763  0.12502523  0.50742152  1
  O  O321  1  0.49556143  0.60878299  0.00591816  1
  O  O322  1  0.50562173  0.62280828  0.50419333  1
  O  O323  1  0.48685977  0.37510517  0.49876505  1
  O  O324  1  0.48377479  0.38547184  1.00542809  1
  O  O325  1  0.49337890  0.87501989  0.49183073  1
  O  O326  1  0.49414489  0.88261222  0.98520962  1
  O  O327  1  0.99130958  0.37919627  0.49832894  1
  O  O328  1  0.99708453  0.38100944  0.99305494  1
  O  O329  1  0.98677231  0.88289531  0.50540101  1
  O  O330  1  1.00108257  0.87612747  0.98751201  1
  O  O331  1  0.48619852  0.49479771  0.37567616  1
  O  O332  1  0.49732823  0.50388413  0.88897662  1
  O  O333  1  0.50101339  0.98698823  0.37517326  1
  O  O334  1  0.48994105  0.99308996  0.87428292  1
  O  O335  1  0.99424631  0.49467956  0.38669372  1
  O  O336  1  0.99219357  0.49582611  0.87759231  1
  O  O337  1  1.00666705  0.99449151  0.38843818  1
  O  O338  1  0.98822503  0.99501164  0.87976230  1
  O  O339  1  0.00598587  0.00248073  0.11928627  1
  O  O340  1  0.00802115  0.00956740  0.61966160  1
  O  O341  1  0.00300128  0.49317943  0.11264076  1
  O  O342  1  0.00977139  0.49795744  0.61176879  1
  O  O343  1  0.51649027  -0.00255734  0.12663937  1
  O  O344  1  0.50038303  0.01511010  0.62397450  1
  O  O345  1  0.50546340  0.50293922  0.11954373  1
  O  O346  1  0.50831571  0.50623544  0.62261847  1
  O  O347  1  0.24588208  0.38439782  0.24414046  1
  O  O348  1  0.23520563  0.37406786  0.75287133  1
  O  O349  1  0.24566651  0.88231002  0.24215790  1
  O  O350  1  0.23622258  0.87186833  0.74415900  1
  O  O351  1  0.74487878  0.37146310  0.24320251  1
  O  O352  1  0.74323247  0.38048822  0.74141904  1
  O  O353  1  0.74632945  0.88298886  0.25872735  1
  O  O354  1  0.74212220  0.87219542  0.74144797  1
  O  O355  1  0.25573031  0.11728503  0.25697354  1
  O  O356  1  0.26057373  0.13182799  0.75686491  1
  O  O357  1  0.25577851  0.61360859  0.24863119  1
  O  O358  1  0.25635378  0.62686976  0.75719511  1
  O  O359  1  0.76498615  0.12148986  0.25659762  1
  O  O360  1  0.76088090  0.13898262  0.75466064  1
  O  O361  1  0.76125029  0.61655189  0.26051829  1
  O  O362  1  0.74726583  0.61268562  0.74760622  1
  O  O363  1  0.36553884  0.13232313  0.36700689  1
  O  O364  1  0.36588032  0.11970829  0.86819566  1
  O  O365  1  0.37723062  0.61772548  0.36437719  1
  O  O366  1  0.36742438  0.62721905  0.86752301  1
  O  O367  1  0.86554775  0.12479258  0.37665099  1
  O  O368  1  0.86696497  0.12061149  0.86638034  1
  O  O369  1  0.86999903  0.61719638  0.37035949  1
  O  O370  1  0.87147949  0.61824257  0.87095750  1
  O  O371  1  0.13728368  0.37672070  0.13032752  1
  O  O372  1  0.12054074  0.38252767  0.63193823  1
  O  O373  1  0.13215945  0.87230867  0.13428228  1
  O  O374  1  0.12720884  0.88291254  0.63162626  1
  O  O375  1  0.63063907  0.37726173  0.13446264  1
  O  O376  1  0.62987806  0.38532910  0.62508414  1
  O  O377  1  0.63188470  0.88491056  0.14020881  1
  O  O378  1  0.62924432  0.87765603  0.63218121  1
  O  O379  1  0.12067511  0.25104858  0.25665207  1
  O  O380  1  0.11501812  0.25557266  0.75116569  1
  O  O381  1  0.13239237  0.76399796  0.25089962  1
  O  O382  1  0.11754314  0.75917077  0.75765414  1
  O  O383  1  0.63210960  0.25528214  0.25857124  1
  O  O384  1  0.61385820  0.26406667  0.74954067  1
  O  O385  1  0.61926484  0.75662750  0.24474643  1
  O  O386  1  0.61525271  0.75928358  0.75237751  1
  O  O387  1  0.36635584  0.24047796  0.24183211  1
  O  O388  1  0.37922690  0.24637139  0.74253735  1
  O  O389  1  0.37884643  0.74219567  0.24798972  1
  O  O390  1  0.38042395  0.74130351  0.74549337  1
  O  O391  1  0.88511641  0.23415036  0.25602832  1
  O  O392  1  0.88536421  0.24721197  0.75327682  1
  O  O393  1  0.87306674  0.73592539  0.24207501  1
  O  O394  1  0.89046054  0.75405940  0.75949535  1
  O  O395  1  0.37327186  0.49325108  0.49360388  1
  O  O396  1  0.38339325  0.49340807  1.00027030  1
  O  O397  1  0.37572935  0.98753438  0.50510765  1
  O  O398  1  0.37132669  0.99772139  0.98488022  1
  O  O399  1  0.88203958  0.49209539  0.49166267  1
  O  O400  1  0.88527163  0.49025875  0.99177205  1
  O  O401  1  0.88304293  0.98730681  0.50440073  1
  O  O402  1  0.87203927  1.00136042  0.99011974  1
  O  O403  1  0.12429349  0.01745126  -0.00136386  1
  O  O404  1  0.11715768  0.00426399  0.50779632  1
  O  O405  1  0.11726589  0.50786687  0.00005504  1
  O  O406  1  0.12064257  0.50280998  0.50418179  1
  O  O407  1  0.62702979  -0.00204044  0.01680431  1
  O  O408  1  0.62329516  0.01264827  0.49985112  1
  O  O409  1  0.60387895  0.48144871  0.01344956  1
  O  O410  1  0.62326650  0.50622378  0.50778870  1
  O  O411  1  0.36418457  0.37044087  0.12173249  1
  O  O412  1  0.37746516  0.36602175  0.61917629  1
  O  O413  1  0.36799856  0.86824834  0.12396835  1
  O  O414  1  0.36998913  0.87115390  0.61957275  1
  O  O415  1  0.86557275  0.37899038  0.11638658  1
  O  O416  1  0.86455158  0.38081905  0.61472803  1
  O  O417  1  0.87415061  0.86299314  0.12096252  1
  O  O418  1  0.86456889  0.87878241  0.62262643  1
  O  O419  1  0.13119995  0.12879322  0.37977231  1
  O  O420  1  0.13016592  0.12919099  0.87741864  1
  O  O421  1  0.12621990  0.62209936  0.39001075  1
  O  O422  1  0.13189470  0.63299882  0.88114851  1
  O  O423  1  0.63253394  0.12936197  0.38048705  1
  O  O424  1  0.63724067  0.12325830  0.86268233  1
  O  O425  1  0.63555513  0.61412126  0.38359122  1
  O  O426  1  0.62204120  0.64183582  0.87149174  1
