# generated using pymatgen
data_V85Zn86O256
_symmetry_space_group_name_H-M   'P 1'
_cell_length_a   16.92005847
_cell_length_b   16.92330761
_cell_length_c   16.92032260
_cell_angle_alpha   90.02151932
_cell_angle_beta   89.98289184
_cell_angle_gamma   90.02839861
_symmetry_Int_Tables_number   1
_chemical_formula_structural   V85Zn86O256
_chemical_formula_sum   'V85 Zn86 O256'
_cell_volume   4845.02077521
_cell_formula_units_Z   1
loop_
 _symmetry_equiv_pos_site_id
 _symmetry_equiv_pos_as_xyz
  1  'x, y, z'
loop_
 _atom_site_type_symbol
 _atom_site_label
 _atom_site_symmetry_multiplicity
 _atom_site_fract_x
 _atom_site_fract_y
 _atom_site_fract_z
 _atom_site_occupancy
  V  V0  1  -0.00205993  0.00308315  0.50566832  1
  V  V1  1  0.74957694  -0.00059524  0.24961781  1
  V  V2  1  0.24837465  0.11945405  0.37443618  1
  V  V3  1  0.00353491  0.49471123  -0.00373076  1
  V  V4  1  0.62434756  0.12371134  0.00102000  1
  V  V5  1  0.38015877  0.37558992  0.50666411  1
  V  V6  1  0.50334468  -0.00090003  0.50354255  1
  V  V7  1  0.74771771  0.50206214  0.74855226  1
  V  V8  1  0.14197937  0.38031525  0.74731859  1
  V  V9  1  0.24853581  0.25353170  0.00667214  1
  V  V10  1  0.25236961  0.24902544  0.50253376  1
  V  V11  1  0.13297155  0.61767172  0.49508148  1
  V  V12  1  0.12690860  0.86862631  0.75819044  1
  V  V13  1  0.61907853  0.49982064  0.61162325  1
  V  V14  1  0.49862999  0.12074916  0.62817935  1
  V  V15  1  0.73465739  0.87496147  0.62703268  1
  V  V16  1  0.37215207  0.74945458  0.62689428  1
  V  V17  1  0.36670112  0.86944945  0.00715043  1
  V  V18  1  0.11996181  -0.00018987  0.63040362  1
  V  V19  1  0.75958940  0.75435246  -0.00469213  1
  V  V20  1  0.37024732  0.12425977  0.24864274  1
  V  V21  1  0.37556909  -0.00086910  0.37076287  1
  V  V22  1  0.87902511  0.49524423  0.87255085  1
  V  V23  1  0.62627242  0.25112301  0.37404275  1
  V  V24  1  0.62500792  0.12305202  0.50366396  1
  V  V25  1  0.75241096  0.12258973  0.87199445  1
  V  V26  1  0.62385886  0.62932568  -0.00488155  1
  V  V27  1  0.75445073  0.37673125  0.12141435  1
  V  V28  1  0.62518344  0.50144316  0.12224349  1
  V  V29  1  -0.00029637  0.25891361  0.75512379  1
  V  V30  1  0.49652845  0.63002831  0.12210965  1
  V  V31  1  -0.00564360  -0.00348012  -0.00141619  1
  V  V32  1  0.13222007  0.37139785  0.25292456  1
  V  V33  1  0.87597072  0.86604146  0.51044864  1
  V  V34  1  0.49654078  0.50295843  -0.00649698  1
  V  V35  1  0.00551587  0.87646831  0.37156644  1
  V  V36  1  0.74940264  0.37360603  0.62332973  1
  V  V37  1  0.88428315  0.37565644  0.49932711  1
  V  V38  1  0.87808812  0.25026307  0.12286609  1
  V  V39  1  0.49468451  0.24460862  0.75211441  1
  V  V40  1  -0.00673466  0.86072945  0.87886778  1
  V  V41  1  0.50408048  0.87089657  0.37615824  1
  V  V42  1  0.62659647  0.87320649  0.25104951  1
  V  V43  1  0.13465874  0.00223481  0.13642443  1
  V  V44  1  0.50172201  0.75678786  0.75395550  1
  V  V45  1  0.73870666  -0.00361223  0.74476765  1
  V  V46  1  0.13175420  0.49404556  0.12426971  1
  V  V47  1  0.36958943  0.37659616  0.00753218  1
  V  V48  1  -0.01324254  0.74937888  0.25080025  1
  V  V49  1  0.18406959  0.82826708  0.19410929  1
  V  V50  1  0.12576934  0.12075807  -0.00212399  1
  V  V51  1  0.62277638  0.76617580  0.87053355  1
  V  V52  1  0.62329714  0.37598574  0.74904861  1
  V  V53  1  0.87451246  -0.00058070  0.37790745  1
  V  V54  1  0.49812383  0.37587785  0.87566853  1
  V  V55  1  0.62456748  0.24910038  0.87377127  1
  V  V56  1  0.37196538  0.62489998  0.25442306  1
  V  V57  1  0.88403020  0.11929166  0.74683535  1
  V  V58  1  0.75794560  0.87542142  0.12095283  1
  V  V59  1  0.24795981  0.63299944  0.86003823  1
  V  V60  1  0.74091670  0.62935312  0.36691031  1
  V  V61  1  0.13473487  0.63816648  -0.00181920  1
  V  V62  1  0.50242585  0.37907615  0.37824345  1
  V  V63  1  0.25260652  0.00642243  0.75228244  1
  V  V64  1  0.12177053  0.25566627  0.87755626  1
  V  V65  1  0.49725731  0.12361586  0.12440224  1
  V  V66  1  0.73065731  0.74763996  0.49743987  1
  V  V67  1  -0.04572908  0.55942704  0.55975697  1
  V  V68  1  0.38288624  -0.00479812  0.87300268  1
  V  V69  1  0.25206256  0.49646180  0.25799774  1
  V  V70  1  0.62548873  0.37669989  0.24686153  1
  V  V71  1  0.75149861  0.25065023  0.50057251  1
  V  V72  1  0.37914647  0.50271984  0.38211476  1
  V  V73  1  0.00910262  0.38354561  0.37832530  1
  V  V74  1  0.88322792  0.24444673  0.62459000  1
  V  V75  1  0.24983552  0.75016180  0.49069266  1
  V  V76  1  0.74974607  0.62712017  0.86907339  1
  V  V77  1  -0.00673810  0.62121575  0.12879709  1
  V  V78  1  0.50432906  0.62133149  0.61573023  1
  V  V79  1  0.87535192  0.12802693  0.25129117  1
  V  V80  1  -0.00188870  0.74392121  0.73199087  1
  V  V81  1  0.50458193  0.74877011  0.25075345  1
  V  V82  1  0.74961671  0.12648449  0.37623530  1
  V  V83  1  0.37024287  0.24690590  0.63093127  1
  V  V84  1  0.12086928  0.12526538  0.50784442  1
  Zn  Zn85  1  0.35765261  0.49609408  0.86736995  1
  Zn  Zn86  1  0.37081394  0.25356789  0.12864354  1
  Zn  Zn87  1  0.50182173  -0.00937111  -0.00379494  1
  Zn  Zn88  1  0.88070905  0.62520410  0.73815049  1
  Zn  Zn89  1  0.75304837  0.24985318  -0.00330144  1
  Zn  Zn90  1  0.12469724  0.25060569  0.37744225  1
  Zn  Zn91  1  0.37290144  0.87580822  0.50152059  1
  Zn  Zn92  1  0.87922148  0.51402109  0.36516371  1
  Zn  Zn93  1  0.25518961  0.12544769  0.87251192  1
  Zn  Zn94  1  0.62432214  -0.00145480  0.12380851  1
  Zn  Zn95  1  0.37602601  0.61662843  0.74837707  1
  Zn  Zn96  1  0.24962925  0.87383215  0.62648030  1
  Zn  Zn97  1  0.49750528  0.25038675  0.24877213  1
  Zn  Zn98  1  0.12763051  0.75303215  0.37243581  1
  Zn  Zn99  1  -0.00032528  0.12166248  0.12626425  1
  Zn  Zn100  1  0.87274180  0.74664946  0.12434659  1
  Zn  Zn101  1  0.00325988  0.25099771  0.25190790  1
  Zn  Zn102  1  0.35901464  0.75299819  0.12410663  1
  Zn  Zn103  1  0.88274833  0.37055648  -0.00689194  1
  Zn  Zn104  1  0.13715132  0.50543050  0.63322810  1
  Zn  Zn105  1  0.87413452  -0.00712025  0.87556609  1
  Zn  Zn106  1  0.75829245  0.51120892  0.24372643  1
  Zn  Zn107  1  0.18863468  0.18414481  0.18735572  1
  Zn  Zn108  1  0.18530803  0.18794550  0.68868533  1
  Zn  Zn109  1  0.18079160  0.66539560  0.19443718  1
  Zn  Zn110  1  0.18056536  0.68849495  0.67953736  1
  Zn  Zn111  1  0.68913848  0.19064673  0.18564420  1
  Zn  Zn112  1  0.68719292  0.18508218  0.68745660  1
  Zn  Zn113  1  0.68545402  0.69099855  0.18436616  1
  Zn  Zn114  1  0.68460218  0.69060967  0.68428734  1
  Zn  Zn115  1  0.31256585  0.31025458  0.31739355  1
  Zn  Zn116  1  0.31319213  0.31026854  0.82045160  1
  Zn  Zn117  1  0.32088839  0.81154555  0.31392708  1
  Zn  Zn118  1  0.31182890  0.81223792  0.81758170  1
  Zn  Zn119  1  0.81621640  0.32139964  0.31056372  1
  Zn  Zn120  1  0.81181201  0.31187792  0.81016180  1
  Zn  Zn121  1  0.81244079  0.81185783  0.31849060  1
  Zn  Zn122  1  0.81680330  0.80960445  0.80470620  1
  Zn  Zn123  1  0.20884109  0.45288132  0.46980449  1
  Zn  Zn124  1  0.18676714  0.43970166  0.93361516  1
  Zn  Zn125  1  0.18867156  0.93747458  0.44050066  1
  Zn  Zn126  1  0.18712107  0.93493687  0.93744642  1
  Zn  Zn127  1  0.69322600  0.44079007  0.43280548  1
  Zn  Zn128  1  0.68772015  0.43882983  0.93732084  1
  Zn  Zn129  1  0.68609915  0.93618952  0.43861289  1
  Zn  Zn130  1  0.68989061  0.94009078  0.93766653  1
  Zn  Zn131  1  0.31202752  0.05824864  0.05733363  1
  Zn  Zn132  1  0.31357097  0.06126746  0.56456558  1
  Zn  Zn133  1  0.31086288  0.56100429  0.06466533  1
  Zn  Zn134  1  0.31180572  0.56429116  0.56721354  1
  Zn  Zn135  1  0.81227866  0.06250071  0.06256072  1
  Zn  Zn136  1  0.81187087  0.05921217  0.56562558  1
  Zn  Zn137  1  0.81384605  0.56240249  0.05644194  1
  Zn  Zn138  1  0.79139346  0.56384578  0.55523887  1
  Zn  Zn139  1  0.43962037  0.44010243  0.18728959  1
  Zn  Zn140  1  0.43376664  0.43767055  0.68867195  1
  Zn  Zn141  1  0.43465735  0.93761425  0.18323764  1
  Zn  Zn142  1  0.43682526  0.93556891  0.68912545  1
  Zn  Zn143  1  0.94233591  0.43746487  0.18965145  1
  Zn  Zn144  1  0.93765078  0.43414792  0.69214677  1
  Zn  Zn145  1  0.94064800  0.93842116  0.18734857  1
  Zn  Zn146  1  0.93755516  0.93385878  0.69087574  1
  Zn  Zn147  1  0.06096521  0.06349670  0.31604073  1
  Zn  Zn148  1  0.06181240  0.06140223  0.81651819  1
  Zn  Zn149  1  0.06522314  0.56477898  0.31785904  1
  Zn  Zn150  1  0.06752657  0.56500676  0.81432352  1
  Zn  Zn151  1  0.56097508  0.06117980  0.31131626  1
  Zn  Zn152  1  0.56165927  0.06160966  0.81225199  1
  Zn  Zn153  1  0.56638005  0.56286825  0.31408111  1
  Zn  Zn154  1  0.55966850  0.56780041  0.80583398  1
  Zn  Zn155  1  0.43915620  0.18851083  0.43680431  1
  Zn  Zn156  1  0.43333084  0.18252826  0.93792236  1
  Zn  Zn157  1  0.43910001  0.68916482  0.43913014  1
  Zn  Zn158  1  0.42812205  0.69352304  0.93346605  1
  Zn  Zn159  1  0.94240177  0.19125295  0.43524748  1
  Zn  Zn160  1  0.93917900  0.18404793  0.93694170  1
  Zn  Zn161  1  0.93113891  0.69328735  0.43155808  1
  Zn  Zn162  1  0.93975491  0.67816692  0.93665659  1
  Zn  Zn163  1  0.06319562  0.31423777  0.06560361  1
  Zn  Zn164  1  0.06455167  0.31373153  0.56682069  1
  Zn  Zn165  1  0.05424531  0.81251023  0.06174674  1
  Zn  Zn166  1  0.06775666  0.81415328  0.56175852  1
  Zn  Zn167  1  0.55977089  0.30937900  0.06192302  1
  Zn  Zn168  1  0.56043382  0.31012721  0.56338510  1
  Zn  Zn169  1  0.56130741  0.81569570  0.05881909  1
  Zn  Zn170  1  0.55678546  0.81313360  0.56737014  1
  O  O171  1  0.12105646  0.11616331  0.11887283  1
  O  O172  1  0.12730709  0.11794606  0.61550265  1
  O  O173  1  0.11605134  0.61223104  0.11727127  1
  O  O174  1  0.12379430  0.62135044  0.60516100  1
  O  O175  1  0.61981471  0.12588923  0.11703369  1
  O  O176  1  0.61132883  0.13248021  0.61626014  1
  O  O177  1  0.61743447  0.62145669  0.11638953  1
  O  O178  1  0.61370273  0.61545320  0.62763920  1
  O  O179  1  0.38559633  0.37879086  0.38168593  1
  O  O180  1  0.38218502  0.37713940  0.88765348  1
  O  O181  1  0.38521789  0.88399374  0.37737590  1
  O  O182  1  0.37215499  0.88691770  0.88436997  1
  O  O183  1  0.88087185  0.37628203  0.38998108  1
  O  O184  1  0.86583943  0.39006908  0.87534620  1
  O  O185  1  0.88119711  0.88151027  0.38626590  1
  O  O186  1  0.88902553  0.87450289  0.87039495  1
  O  O187  1  0.25980627  0.01116395  0.38429885  1
  O  O188  1  0.25555212  0.00106333  0.86708758  1
  O  O189  1  0.26445763  0.49459915  0.36727442  1
  O  O190  1  0.24602547  0.52344379  0.88637689  1
  O  O191  1  0.75496417  0.00637463  0.37066507  1
  O  O192  1  0.75453876  0.00601922  0.86706814  1
  O  O193  1  0.75221958  0.51569623  0.37276373  1
  O  O194  1  0.75281255  0.50842190  0.86831685  1
  O  O195  1  0.24360780  0.50381397  0.14213386  1
  O  O196  1  0.23699480  0.48476666  0.58162073  1
  O  O197  1  0.23377219  1.00388680  0.12377973  1
  O  O198  1  0.24150784  0.99761711  0.63192049  1
  O  O199  1  0.74396588  0.49424484  0.12170811  1
  O  O200  1  0.74030161  0.49327362  0.62967182  1
  O  O201  1  0.74825654  0.99309907  0.13082114  1
  O  O202  1  0.75053079  0.98628596  0.63007601  1
  O  O203  1  0.01624964  0.37378730  0.25694356  1
  O  O204  1  0.00176151  0.36155404  0.75329601  1
  O  O205  1  -0.00547714  0.86676681  0.26030894  1
  O  O206  1  0.00355817  0.86361655  0.75933045  1
  O  O207  1  0.51072937  0.37310612  0.25331197  1
  O  O208  1  0.50419900  0.36371158  0.75593441  1
  O  O209  1  0.50562427  0.86870096  0.25347957  1
  O  O210  1  0.50048290  0.85622251  0.74277740  1
  O  O211  1  0.48966034  0.12646291  0.24458362  1
  O  O212  1  0.50470207  0.13603451  0.74326650  1
  O  O213  1  0.49537058  0.62983450  0.24312265  1
  O  O214  1  0.49723478  0.63556076  0.73809811  1
  O  O215  1  0.98644427  0.12741762  0.25192586  1
  O  O216  1  0.98777587  0.13191962  0.75550027  1
  O  O217  1  1.01069245  0.63619383  0.24056459  1
  O  O218  1  1.00385381  0.63986660  0.75171736  1
  O  O219  1  0.36616044  0.25724182  0.00067274  1
  O  O220  1  0.37190023  0.25258780  0.50837916  1
  O  O221  1  0.37437183  0.76237803  0.00597677  1
  O  O222  1  0.36691477  0.74995728  0.50688541  1
  O  O223  1  0.87462115  0.25089514  0.00679709  1
  O  O224  1  0.87314410  0.25566206  0.50746509  1
  O  O225  1  0.86210128  0.74418144  -0.00260495  1
  O  O226  1  0.86452032  0.76511420  0.49831389  1
  O  O227  1  0.13426912  0.24247915  0.50347207  1
  O  O228  1  0.12754988  0.24529801  0.99565939  1
  O  O229  1  0.13456107  0.74506493  0.49944596  1
  O  O230  1  0.12063695  0.73548851  1.00827975  1
  O  O231  1  0.63171071  0.24543278  0.49402030  1
  O  O232  1  0.62623117  0.23917341  0.99268744  1
  O  O233  1  0.63316569  0.76267100  0.49540255  1
  O  O234  1  0.63113415  0.74577798  0.98976314  1
  O  O235  1  0.49642744  0.23667482  0.12623730  1
  O  O236  1  0.49140156  0.24363788  0.63329134  1
  O  O237  1  0.50217424  0.73872385  0.13077503  1
  O  O238  1  0.49520141  0.74112641  0.63205810  1
  O  O239  1  0.98904974  0.24786421  0.12792172  1
  O  O240  1  0.98874071  0.25066380  0.63330397  1
  O  O241  1  0.99512913  0.74305554  0.13215134  1
  O  O242  1  0.99852551  0.75439091  0.63352552  1
  O  O243  1  0.00346911  0.26415232  0.37197839  1
  O  O244  1  0.00880421  0.24580807  0.86821195  1
  O  O245  1  -0.00002258  0.75914262  0.36684485  1
  O  O246  1  -0.00140616  0.75899459  0.87602760  1
  O  O247  1  0.50794558  0.26053409  0.37252605  1
  O  O248  1  0.50253012  0.25173743  0.86889421  1
  O  O249  1  0.49541860  0.76313331  0.36766044  1
  O  O250  1  0.50720149  0.74349058  0.86214494  1
  O  O251  1  0.24509168  0.13104415  0.49595701  1
  O  O252  1  0.23754267  0.13035227  0.99939091  1
  O  O253  1  0.24046775  0.63335112  0.49578837  1
  O  O254  1  0.23614115  0.62818872  1.00906218  1
  O  O255  1  0.74515514  0.13003428  0.49721908  1
  O  O256  1  0.74361881  0.12505482  0.99036121  1
  O  O257  1  0.73895108  0.64293301  0.49690820  1
  O  O258  1  0.74377605  0.63273201  0.99035550  1
  O  O259  1  0.25823079  0.36823710  -0.00456625  1
  O  O260  1  0.26550424  0.35405610  0.48800597  1
  O  O261  1  0.26549444  0.87938577  -0.00227975  1
  O  O262  1  0.25235693  0.86699747  0.50501515  1
  O  O263  1  0.74954736  0.37294826  0.01125573  1
  O  O264  1  0.76003018  0.37030995  0.50404847  1
  O  O265  1  0.74557915  0.86731802  0.00844501  1
  O  O266  1  0.75580802  0.87178028  0.50754015  1
  O  O267  1  0.13524001  0.49634997  0.24777184  1
  O  O268  1  0.12388309  0.48477705  0.75199080  1
  O  O269  1  0.11971853  1.00604484  0.23561052  1
  O  O270  1  0.12924732  0.99469320  0.74569170  1
  O  O271  1  0.62909459  0.49128061  0.24093418  1
  O  O272  1  0.62895007  0.49304681  0.74371931  1
  O  O273  1  0.63246752  0.99333303  0.24807602  1
  O  O274  1  0.63946616  1.00537203  0.75107645  1
  O  O275  1  0.38091865  0.00690566  0.26334238  1
  O  O276  1  0.36664959  -0.00802356  0.76160720  1
  O  O277  1  0.37189280  0.50452726  0.25713834  1
  O  O278  1  0.37693646  0.50226507  0.75555432  1
  O  O279  1  0.86989095  0.00833184  0.25598535  1
  O  O280  1  0.86804319  0.00724027  0.74982937  1
  O  O281  1  0.86751982  0.48534956  0.25480658  1
  O  O282  1  0.86890105  0.50417798  0.75447101  1
  O  O283  1  0.12177281  0.37383934  0.37046751  1
  O  O284  1  0.12815796  0.36301214  0.86555767  1
  O  O285  1  0.10933604  0.87572180  0.38335199  1
  O  O286  1  0.11213128  0.87995824  0.86410816  1
  O  O287  1  0.62227127  0.37347202  0.36662385  1
  O  O288  1  0.61905118  0.36931895  0.87070340  1
  O  O289  1  0.61816630  0.88065377  0.36103094  1
  O  O290  1  0.62845529  0.86531185  0.87552668  1
  O  O291  1  0.37966953  0.12299509  0.13195467  1
  O  O292  1  0.38834515  0.13312956  0.62110966  1
  O  O293  1  0.38126791  0.62846911  0.13336380  1
  O  O294  1  0.38368411  0.63284616  0.62439817  1
  O  O295  1  0.87521713  0.13217157  0.13354853  1
  O  O296  1  0.86897970  0.13370165  0.63399965  1
  O  O297  1  0.88883030  0.62380160  0.11977205  1
  O  O298  1  0.88415166  0.61031692  0.61541725  1
  O  O299  1  0.25002795  0.24657415  0.11128758  1
  O  O300  1  0.26277267  0.24208766  0.62011886  1
  O  O301  1  0.23991242  0.75747520  0.14459195  1
  O  O302  1  0.25827288  0.74997630  0.61681057  1
  O  O303  1  0.76147710  0.25694970  0.12176225  1
  O  O304  1  0.75934652  0.25493474  0.62102352  1
  O  O305  1  0.75090079  0.75601018  0.11362033  1
  O  O306  1  0.74422732  0.76170398  0.61223668  1
  O  O307  1  0.25057067  0.23443408  0.38412438  1
  O  O308  1  0.24216724  0.24492108  0.88663433  1
  O  O309  1  0.25112659  0.75571492  0.38638425  1
  O  O310  1  0.24927782  0.73383898  0.87593897  1
  O  O311  1  0.74688070  0.24705251  0.38050327  1
  O  O312  1  0.74378518  0.24084827  0.87331415  1
  O  O313  1  0.74878759  0.74455561  0.38732181  1
  O  O314  1  0.74479031  0.74610695  0.87599500  1
  O  O315  1  0.01096832  0.11709049  0.00070677  1
  O  O316  1  0.01004431  0.11814037  0.49512892  1
  O  O317  1  0.00998157  0.61477467  0.00684571  1
  O  O318  1  0.00287241  0.62841604  0.50073658  1
  O  O319  1  0.50753477  0.12211475  0.00696119  1
  O  O320  1  0.50488647  0.11896908  0.50579430  1
  O  O321  1  0.49984985  0.62134816  0.00381030  1
  O  O322  1  0.50173426  0.63196426  0.51634843  1
  O  O323  1  0.49295724  0.36914224  0.49013472  1
  O  O324  1  0.49648162  0.38392141  0.99480743  1
  O  O325  1  0.49922588  0.88173606  0.49277918  1
  O  O326  1  0.48427860  0.87760983  1.00558522  1
  O  O327  1  0.99519783  0.37108528  0.49460343  1
  O  O328  1  1.00158781  0.38933431  1.00258131  1
  O  O329  1  0.98952814  0.87961674  0.49744396  1
  O  O330  1  1.00316987  0.88044407  0.98667153  1
  O  O331  1  0.49562479  0.48671573  0.36803726  1
  O  O332  1  0.50293174  0.49876406  0.88551863  1
  O  O333  1  0.49501336  0.99158974  0.38062451  1
  O  O334  1  0.48750271  1.00043216  0.87279397  1
  O  O335  1  0.99628305  0.48793757  0.37031039  1
  O  O336  1  0.99077688  0.50804295  0.88241961  1
  O  O337  1  0.99325380  0.99467160  0.38222641  1
  O  O338  1  0.99745479  0.98994675  0.88192447  1
  O  O339  1  0.00827451  -0.00116704  0.11561137  1
  O  O340  1  0.01159730  -0.00375501  0.62345599  1
  O  O341  1  0.00839295  0.50503068  0.11975900  1
  O  O342  1  0.00758206  0.49892834  0.62266192  1
  O  O343  1  0.50361330  0.01272817  0.12542441  1
  O  O344  1  0.49373498  0.00789121  0.61742729  1
  O  O345  1  0.50366252  0.51122130  0.11518189  1
  O  O346  1  0.50499348  0.51210920  0.62697343  1
  O  O347  1  0.24148612  0.37983811  0.25615206  1
  O  O348  1  0.24050925  0.37038262  0.75329070  1
  O  O349  1  0.24366183  0.87783398  0.25643834  1
  O  O350  1  0.24072404  0.88147746  0.75081758  1
  O  O351  1  0.74053696  0.37311474  0.23609353  1
  O  O352  1  0.74409924  0.37941745  0.74160637  1
  O  O353  1  0.74337211  0.87699859  0.24678165  1
  O  O354  1  0.75503682  0.87899343  0.73413091  1
  O  O355  1  0.26089003  0.12571525  0.25901762  1
  O  O356  1  0.24496708  0.11057340  0.75066347  1
  O  O357  1  0.26464231  0.61652337  0.25471100  1
  O  O358  1  0.24451758  0.62830075  0.75684869  1
  O  O359  1  0.75874919  0.12192341  0.25412315  1
  O  O360  1  0.75711450  0.11862374  0.75477215  1
  O  O361  1  0.74577839  0.63062897  0.26079341  1
  O  O362  1  0.75339101  0.62269307  0.75307025  1
  O  O363  1  0.37121905  0.11939518  0.36883682  1
  O  O364  1  0.37057281  0.10476956  0.88228526  1
  O  O365  1  0.38867711  0.61371805  0.36693128  1
  O  O366  1  0.35936684  0.62415370  0.87222217  1
  O  O367  1  0.86902679  0.12242910  0.37018831  1
  O  O368  1  0.86425550  0.12463253  0.86690012  1
  O  O369  1  0.85329221  0.62505371  0.38778345  1
  O  O370  1  0.86213515  0.61542963  0.87383539  1
  O  O371  1  0.12297055  0.38671491  0.13496452  1
  O  O372  1  0.12415504  0.37113344  0.64508741  1
  O  O373  1  0.12501727  0.88371090  0.12655163  1
  O  O374  1  0.12573062  0.88377325  0.63738316  1
  O  O375  1  0.62976938  0.37819043  0.12905922  1
  O  O376  1  0.62690265  0.37884020  0.63057748  1
  O  O377  1  0.63374802  0.87528322  0.13570938  1
  O  O378  1  0.63584857  0.87818792  0.62243074  1
  O  O379  1  0.12679484  0.25711336  0.25207136  1
  O  O380  1  0.11866578  0.25454038  0.75769500  1
  O  O381  1  0.12190168  0.75964417  0.24766736  1
  O  O382  1  0.11325345  0.75915714  0.74449915  1
  O  O383  1  0.62471131  0.25940834  0.25510767  1
  O  O384  1  0.61786707  0.25504365  0.75480056  1
  O  O385  1  0.61255947  0.75697559  0.24771088  1
  O  O386  1  0.61311831  0.74595969  0.75730154  1
  O  O387  1  0.37587028  0.24068630  0.24858807  1
  O  O388  1  0.38235167  0.25410320  0.74404491  1
  O  O389  1  0.38584992  0.74203263  0.24697473  1
  O  O390  1  0.38352698  0.74648056  0.74410141  1
  O  O391  1  0.87468294  0.24435146  0.24280666  1
  O  O392  1  0.88127953  0.24436474  0.74405035  1
  O  O393  1  0.88348011  0.74940392  0.24941630  1
  O  O394  1  0.89152770  0.74358449  0.74902328  1
  O  O395  1  0.37712935  0.49075958  0.48919623  1
  O  O396  1  0.38173435  0.49453603  0.99899493  1
  O  O397  1  0.38673791  1.00174212  0.49006460  1
  O  O398  1  0.37757430  0.99150295  0.99104181  1
  O  O399  1  0.88439370  0.49752488  0.50555706  1
  O  O400  1  0.88448536  0.49808893  0.99070710  1
  O  O401  1  0.87924284  0.99320716  0.49670591  1
  O  O402  1  0.88996768  1.00650606  0.99866409  1
  O  O403  1  0.11769709  0.00579863  0.00521207  1
  O  O404  1  0.11978873  0.00578818  0.51029331  1
  O  O405  1  0.12087362  0.50261579  0.00908810  1
  O  O406  1  0.11487966  0.51785273  0.48409274  1
  O  O407  1  0.62301237  0.01184646  0.00011276  1
  O  O408  1  0.61156027  0.00661943  0.49420582  1
  O  O409  1  0.61667419  0.50742996  0.00323780  1
  O  O410  1  0.62721785  0.49045458  0.51262729  1
  O  O411  1  0.38319867  0.37348947  0.11198480  1
  O  O412  1  0.38429848  0.36391154  0.61296554  1
  O  O413  1  0.36999166  0.87339527  0.11580809  1
  O  O414  1  0.37508151  0.86151569  0.62250128  1
  O  O415  1  0.86921697  0.36762822  0.12097070  1
  O  O416  1  0.87229995  0.36846480  0.61593626  1
  O  O417  1  0.86139705  0.87255398  0.13088733  1
  O  O418  1  0.86814092  0.88001193  0.61246748  1
  O  O419  1  0.13310559  0.12389604  0.38602544  1
  O  O420  1  0.12686916  0.13410831  0.88248051  1
  O  O421  1  0.11887826  0.63750870  0.38805913  1
  O  O422  1  0.13288996  0.62532436  0.89024908  1
  O  O423  1  0.62988854  0.13078668  0.38044026  1
  O  O424  1  0.63364509  0.12809464  0.88010049  1
  O  O425  1  0.63904593  0.62347722  0.37657710  1
  O  O426  1  0.63611037  0.62940914  0.87662864  1
