# generated using pymatgen
data_V85Zn86O256
_symmetry_space_group_name_H-M   'P 1'
_cell_length_a   16.98229590
_cell_length_b   16.97916385
_cell_length_c   17.00046814
_cell_angle_alpha   89.95393560
_cell_angle_beta   89.97845122
_cell_angle_gamma   89.95321058
_symmetry_Int_Tables_number   1
_chemical_formula_structural   V85Zn86O256
_chemical_formula_sum   'V85 Zn86 O256'
_cell_volume   4901.99956111
_cell_formula_units_Z   1
loop_
 _symmetry_equiv_pos_site_id
 _symmetry_equiv_pos_as_xyz
  1  'x, y, z'
loop_
 _atom_site_type_symbol
 _atom_site_label
 _atom_site_symmetry_multiplicity
 _atom_site_fract_x
 _atom_site_fract_y
 _atom_site_fract_z
 _atom_site_occupancy
  V  V0  1  0.75241287  0.25097829  0.49620506  1
  V  V1  1  0.24980862  0.62278521  0.36623241  1
  V  V2  1  0.01558313  0.25818268  0.24632713  1
  V  V3  1  0.25176365  0.87488573  0.62361492  1
  V  V4  1  0.37796325  0.74823507  0.62538334  1
  V  V5  1  0.62840367  0.63022898  0.49401789  1
  V  V6  1  -0.00282939  0.63669378  0.62363816  1
  V  V7  1  0.12371964  0.62619600  -0.00158661  1
  V  V8  1  0.75707266  0.00017617  0.25174793  1
  V  V9  1  0.37693090  0.00293785  0.36537692  1
  V  V10  1  0.49923460  0.12509871  0.13569153  1
  V  V11  1  -0.00392620  0.62196962  0.12871864  1
  V  V12  1  0.63978484  0.24720811  0.87746951  1
  V  V13  1  0.50230456  0.00285199  -0.00065430  1
  V  V14  1  0.50796309  0.74744531  0.75526199  1
  V  V15  1  0.00032653  0.13099751  0.63390287  1
  V  V16  1  0.37647650  0.37249468  -0.00243235  1
  V  V17  1  0.87850462  0.14151964  0.24799880  1
  V  V18  1  0.12530756  0.75708432  0.37528814  1
  V  V19  1  0.75135531  0.75627872  0.51475939  1
  V  V20  1  0.87497564  0.49816264  0.87918116  1
  V  V21  1  0.37919784  0.24225708  0.12383599  1
  V  V22  1  0.87527118  -0.01302803  0.87624596  1
  V  V23  1  0.50202164  0.36715859  0.37188874  1
  V  V24  1  0.37883358  0.74494028  0.12515191  1
  V  V25  1  0.12432953  0.12824320  -0.01876138  1
  V  V26  1  0.24881024  0.87473045  0.12335963  1
  V  V27  1  0.25247773  0.37392780  0.12681963  1
  V  V28  1  0.63243417  -0.00775910  0.62585600  1
  V  V29  1  0.74508154  0.62795425  0.87522691  1
  V  V30  1  0.32167657  0.18078967  0.30741202  1
  V  V31  1  0.24938810  0.50396459  0.74976438  1
  V  V32  1  0.11947938  0.01102821  0.12395872  1
  V  V33  1  0.51137246  0.87154104  0.87616946  1
  V  V34  1  0.25221393  0.00284403  0.75151374  1
  V  V35  1  0.62427476  0.36831299  0.24867652  1
  V  V36  1  0.75593067  0.36646171  0.11548813  1
  V  V37  1  -0.00081170  0.49681664  -0.00141871  1
  V  V38  1  0.12007949  0.87519878  0.24767919  1
  V  V39  1  0.50408141  0.24992489  0.75027708  1
  V  V40  1  0.86740155  0.13221007  0.75382963  1
  V  V41  1  -0.00076111  -0.01139103  -0.00498115  1
  V  V42  1  0.75750419  0.63629138  0.36831205  1
  V  V43  1  0.87435692  0.74524952  0.13108364  1
  V  V44  1  0.62119741  0.63184035  0.00076376  1
  V  V45  1  0.25120184  0.00280214  0.24932761  1
  V  V46  1  0.75312471  -0.00702757  0.74938093  1
  V  V47  1  0.37748437  0.87564060  0.49927621  1
  V  V48  1  0.37973365  0.37849592  0.50148159  1
  V  V49  1  0.50786020  0.50149199  0.49908951  1
  V  V50  1  0.12147059  0.62364974  0.49757861  1
  V  V51  1  0.74665628  0.50048181  0.74733682  1
  V  V52  1  0.75303433  0.38020710  0.62012026  1
  V  V53  1  0.25049687  0.37426546  0.62545019  1
  V  V54  1  0.37663649  0.25038745  0.62220427  1
  V  V55  1  0.50014928  0.50280191  0.00466425  1
  V  V56  1  0.37467935  0.00265527  0.87529093  1
  V  V57  1  0.00329509  0.00451355  0.49721527  1
  V  V58  1  0.62916189  0.86960423  0.25263594  1
  V  V59  1  0.62679837  0.37644809  0.74335922  1
  V  V60  1  0.50306866  0.37456146  0.87511820  1
  V  V61  1  0.50188509  0.74249084  0.24887342  1
  V  V62  1  0.75471184  0.75253852  -0.00306555  1
  V  V63  1  0.11600742  0.50211196  0.62543713  1
  V  V64  1  0.12063279  0.87365254  0.75500983  1
  V  V65  1  0.13222762  0.49531227  0.12770458  1
  V  V66  1  0.50641574  0.62128458  0.62394184  1
  V  V67  1  0.88526803  0.38562484  0.49193638  1
  V  V68  1  0.75884160  0.50250112  0.25055309  1
  V  V69  1  0.00378729  0.36415695  0.87065406  1
  V  V70  1  0.12197993  0.36494546  0.75291576  1
  V  V71  1  0.37642111  0.12561040  0.75374608  1
  V  V72  1  0.62712011  0.00030719  0.12345333  1
  V  V73  1  0.25061967  0.62987817  0.87489392  1
  V  V74  1  0.25010702  0.24399924  -0.01581456  1
  V  V75  1  0.37662539  0.87465205  -0.00094594  1
  V  V76  1  0.87554059  0.63114957  0.74632032  1
  V  V77  1  0.75738625  0.87451032  0.12066834  1
  V  V78  1  0.37608643  0.49814089  0.36684709  1
  V  V79  1  0.50457446  0.86913503  0.37405088  1
  V  V80  1  0.63641163  0.12904070  -0.00240416  1
  V  V81  1  0.50574790  0.12345197  0.62165052  1
  V  V82  1  0.62470440  0.50396421  0.12661924  1
  V  V83  1  0.50355457  -0.00054790  0.50008461  1
  V  V84  1  0.87749567  0.87255846  0.51263463  1
  Zn  Zn85  1  0.37580607  0.62084155  0.24455858  1
  Zn  Zn86  1  -0.00369856  0.87527659  0.37544946  1
  Zn  Zn87  1  0.24921840  0.75212764  -0.00237227  1
  Zn  Zn88  1  0.88766143  0.50763840  0.37260409  1
  Zn  Zn89  1  0.25148634  0.74897734  0.49912237  1
  Zn  Zn90  1  0.75001076  0.12522735  0.37526675  1
  Zn  Zn91  1  -0.05290757  0.18008304  0.08149385  1
  Zn  Zn92  1  0.37612406  0.50189089  0.87503620  1
  Zn  Zn93  1  0.19739031  0.43021453  0.29283570  1
  Zn  Zn94  1  0.12768975  0.00264598  0.62219328  1
  Zn  Zn95  1  0.87480345  -0.00172460  0.37636740  1
  Zn  Zn96  1  0.01904057  0.38277672  0.37130270  1
  Zn  Zn97  1  0.63252223  0.86834212  0.74974201  1
  Zn  Zn98  1  0.11354675  0.14647986  0.50512268  1
  Zn  Zn99  1  0.11166966  0.75734592  0.88097296  1
  Zn  Zn100  1  0.37678148  0.62531976  0.75129339  1
  Zn  Zn101  1  0.87491043  0.34734018  -0.00168872  1
  Zn  Zn102  1  0.62333955  0.24396063  0.37228360  1
  Zn  Zn103  1  -0.01028818  0.75967336  0.75521142  1
  Zn  Zn104  1  -0.00479295  0.74648984  0.25280686  1
  Zn  Zn105  1  0.63184286  0.12425859  0.49894257  1
  Zn  Zn106  1  0.88075668  0.25577689  0.62453376  1
  Zn  Zn107  1  0.18845689  0.19206681  0.17792781  1
  Zn  Zn108  1  0.18967396  0.18533808  0.68749023  1
  Zn  Zn109  1  0.18620072  0.68817669  0.18625956  1
  Zn  Zn110  1  0.18623053  0.69017017  0.68765326  1
  Zn  Zn111  1  0.68905983  0.18568940  0.18674498  1
  Zn  Zn112  1  0.69222552  0.18852546  0.68408719  1
  Zn  Zn113  1  0.68610897  0.68722034  0.18590318  1
  Zn  Zn114  1  0.68432262  0.68309275  0.68459112  1
  Zn  Zn115  1  0.13597512  0.24971489  0.37362208  1
  Zn  Zn116  1  0.31535011  0.31561371  0.80925265  1
  Zn  Zn117  1  0.31158863  0.81478223  0.31165981  1
  Zn  Zn118  1  0.31623361  0.81285536  0.81121640  1
  Zn  Zn119  1  0.80952104  0.31751716  0.31334671  1
  Zn  Zn120  1  0.81583951  0.31475665  0.81236304  1
  Zn  Zn121  1  0.81608790  0.81452386  0.31658853  1
  Zn  Zn122  1  0.81173391  0.81167087  0.81345477  1
  Zn  Zn123  1  0.18728474  0.43669245  0.45093005  1
  Zn  Zn124  1  0.18832460  0.43769609  0.93770355  1
  Zn  Zn125  1  0.19403846  1.04388117  0.43093631  1
  Zn  Zn126  1  0.18913072  0.94140485  0.93649048  1
  Zn  Zn127  1  0.69026272  0.44202328  0.43322784  1
  Zn  Zn128  1  0.68607825  0.43768876  0.93705634  1
  Zn  Zn129  1  0.69002778  0.93536589  0.43693521  1
  Zn  Zn130  1  0.69295735  0.94134161  0.93691578  1
  Zn  Zn131  1  0.30963027  0.06378442  0.05984780  1
  Zn  Zn132  1  0.31898119  0.06135960  0.56436936  1
  Zn  Zn133  1  0.31294766  0.56283177  0.05943066  1
  Zn  Zn134  1  0.31184604  0.56395490  0.55874453  1
  Zn  Zn135  1  0.81581003  0.06083933  0.06175102  1
  Zn  Zn136  1  0.81671110  0.06193324  0.56461935  1
  Zn  Zn137  1  0.81114824  0.56089430  0.06263073  1
  Zn  Zn138  1  0.81269377  0.56389180  0.56142766  1
  Zn  Zn139  1  0.43762378  0.43173146  0.18689904  1
  Zn  Zn140  1  0.43820936  0.44143684  0.68871346  1
  Zn  Zn141  1  0.44023524  0.93449547  0.18634641  1
  Zn  Zn142  1  0.44259807  0.93520724  0.69039143  1
  Zn  Zn143  1  0.93662076  0.43440192  0.18500892  1
  Zn  Zn144  1  0.93614073  0.44106641  0.68842059  1
  Zn  Zn145  1  0.93774658  0.93885299  0.18121769  1
  Zn  Zn146  1  0.93935380  0.94419996  0.68420306  1
  Zn  Zn147  1  0.05751526  0.06963844  0.31408970  1
  Zn  Zn148  1  0.05958234  0.05661664  0.80926088  1
  Zn  Zn149  1  0.06350323  0.56255636  0.30994171  1
  Zn  Zn150  1  0.06113942  0.56327463  0.81247757  1
  Zn  Zn151  1  0.56859109  0.05932293  0.31512213  1
  Zn  Zn152  1  0.56621138  0.06286986  0.81214975  1
  Zn  Zn153  1  0.56855729  0.56037488  0.31520319  1
  Zn  Zn154  1  0.56451496  0.56145091  0.81533859  1
  Zn  Zn155  1  0.25796088  0.23200323  0.49122321  1
  Zn  Zn156  1  0.44543693  0.18609713  0.93911531  1
  Zn  Zn157  1  0.43638008  0.68729701  0.43567110  1
  Zn  Zn158  1  0.43640338  0.68761191  0.93737294  1
  Zn  Zn159  1  0.93779768  0.19305271  0.43059056  1
  Zn  Zn160  1  0.94274757  0.18200049  0.92109932  1
  Zn  Zn161  1  0.93745969  0.69166945  0.43913025  1
  Zn  Zn162  1  0.93502957  0.68961896  0.93729853  1
  Zn  Zn163  1  0.06642717  0.31389818  0.05675539  1
  Zn  Zn164  1  0.06612880  0.31268873  0.56012010  1
  Zn  Zn165  1  0.06179564  0.81081586  0.06341803  1
  Zn  Zn166  1  0.06521906  0.81496436  0.56330606  1
  Zn  Zn167  1  0.56482441  0.31142851  0.06353008  1
  Zn  Zn168  1  0.56628296  0.31200663  0.56063320  1
  Zn  Zn169  1  0.56484288  0.81317126  0.06550155  1
  Zn  Zn170  1  0.56608904  0.81028521  0.56267501  1
  O  O171  1  0.12980389  0.11230265  0.11787229  1
  O  O172  1  0.11249560  0.12378458  0.62690647  1
  O  O173  1  0.12353751  0.61916867  0.11293612  1
  O  O174  1  0.12061803  0.62159505  0.61836890  1
  O  O175  1  0.61935770  0.12009690  0.11895204  1
  O  O176  1  0.62028528  0.11574703  0.62582385  1
  O  O177  1  0.62935000  0.61215338  0.11620607  1
  O  O178  1  0.61712985  0.62592481  0.61039188  1
  O  O179  1  0.38669907  0.38706545  0.38689896  1
  O  O180  1  0.38510692  0.37840424  0.87929292  1
  O  O181  1  0.38319231  0.88265919  0.37872975  1
  O  O182  1  0.38486613  0.88102968  0.88094640  1
  O  O183  1  0.87276816  0.38144203  0.38690574  1
  O  O184  1  0.88248815  0.38204092  0.87755693  1
  O  O185  1  0.87828409  0.87703557  0.38799925  1
  O  O186  1  0.87782947  0.88807144  0.87054255  1
  O  O187  1  0.26446196  -0.00774758  0.36200329  1
  O  O188  1  0.26661852  -0.00538335  0.86711094  1
  O  O189  1  0.25805737  0.50423169  0.37309594  1
  O  O190  1  0.24991067  0.51139763  0.86731340  1
  O  O191  1  0.75258507  0.00099741  0.36472929  1
  O  O192  1  0.76682705  -0.00038238  0.86977503  1
  O  O193  1  0.75305191  0.51255453  0.36527648  1
  O  O194  1  0.75605756  0.50453557  0.86895972  1
  O  O195  1  0.24442480  0.48828042  0.11323500  1
  O  O196  1  0.24493413  0.49671003  0.63277928  1
  O  O197  1  0.24465727  0.99090069  0.12873396  1
  O  O198  1  0.25449523  0.99037966  0.63470667  1
  O  O199  1  0.74212058  0.49521680  0.13112257  1
  O  O200  1  0.75347698  0.48977890  0.63301931  1
  O  O201  1  0.74784005  0.99056361  0.12922570  1
  O  O202  1  0.74292500  1.00310234  0.63429062  1
  O  O203  1  -0.00374251  0.36053245  0.24918500  1
  O  O204  1  0.01028314  0.38487906  0.75740664  1
  O  O205  1  0.01167033  0.87448937  0.24615927  1
  O  O206  1  0.01769826  0.87844082  0.74124674  1
  O  O207  1  0.51147481  0.38245355  0.25942831  1
  O  O208  1  0.51021934  0.37383857  0.75308712  1
  O  O209  1  0.50985737  0.86877019  0.25584636  1
  O  O210  1  0.50298091  0.86535881  0.76027527  1
  O  O211  1  0.50696309  0.11433211  0.23418268  1
  O  O212  1  0.49718450  0.12892163  0.74046136  1
  O  O213  1  0.50227519  0.63980333  0.25866695  1
  O  O214  1  0.50157912  0.62820650  0.74278899  1
  O  O215  1  0.98776202  0.14059463  0.25087182  1
  O  O216  1  0.99060345  0.11896400  0.73853869  1
  O  O217  1  1.00986271  0.62866852  0.23118195  1
  O  O218  1  0.98956102  0.62292654  0.74224590  1
  O  O219  1  0.37142563  0.25150777  0.00450021  1
  O  O220  1  0.37237613  0.25831914  0.51746533  1
  O  O221  1  0.37410885  0.75707998  0.00765136  1
  O  O222  1  0.37598787  0.75679091  0.50797738  1
  O  O223  1  0.88850472  0.23572741  0.00213819  1
  O  O224  1  0.86613734  0.26379528  0.49884957  1
  O  O225  1  0.86028052  0.74374118  0.01034130  1
  O  O226  1  0.86511666  0.76142481  0.50034463  1
  O  O227  1  0.14156882  0.25809694  0.49541063  1
  O  O228  1  0.13317053  0.23522171  0.99946324  1
  O  O229  1  0.12878452  0.74588905  0.49149635  1
  O  O230  1  0.12844910  0.74111790  0.99881358  1
  O  O231  1  0.64107393  0.25059832  0.50109482  1
  O  O232  1  0.61961458  0.24174370  0.98932429  1
  O  O233  1  0.64017239  0.74569059  0.50123282  1
  O  O234  1  0.63331603  0.73678803  1.00935354  1
  O  O235  1  0.48852401  0.24130129  0.11946237  1
  O  O236  1  0.49751465  0.24362513  0.62976234  1
  O  O237  1  0.49005275  0.75752727  0.13525037  1
  O  O238  1  0.49617709  0.74013889  0.62968298  1
  O  O239  1  1.01080430  0.25376433  0.13868630  1
  O  O240  1  0.99885050  0.23550526  0.61923551  1
  O  O241  1  0.99020243  0.74140878  0.12173305  1
  O  O242  1  1.00616020  0.73907794  0.63316099  1
  O  O243  1  0.00571006  0.25825659  0.36098904  1
  O  O244  1  0.00193252  0.26505601  0.86876099  1
  O  O245  1  0.00950508  0.75111766  0.37086332  1
  O  O246  1  0.00000196  0.74391675  0.86718428  1
  O  O247  1  0.50575382  0.26900146  0.38247566  1
  O  O248  1  0.50648196  0.25841436  0.86686411  1
  O  O249  1  0.49429075  0.76303935  0.36738284  1
  O  O250  1  0.49631437  0.75783773  0.86670462  1
  O  O251  1  0.24119779  0.11776413  0.50729434  1
  O  O252  1  0.23576818  0.12927062  0.99940085  1
  O  O253  1  0.23962534  0.62752495  0.49011697  1
  O  O254  1  0.24239282  0.62689416  0.99130927  1
  O  O255  1  0.75497481  0.13678170  0.50049633  1
  O  O256  1  0.73518808  0.11880562  1.00607812  1
  O  O257  1  0.74662802  0.63519639  0.49430075  1
  O  O258  1  0.74286070  0.62984502  0.99248207  1
  O  O259  1  0.25935710  0.36613981  0.00020756  1
  O  O260  1  0.26263728  0.38129032  0.51811278  1
  O  O261  1  0.25539445  0.87534695  0.00749553  1
  O  O262  1  0.26131767  0.87255613  0.51774672  1
  O  O263  1  0.75017359  0.37890212  0.01178610  1
  O  O264  1  0.75621070  0.37430310  0.50568502  1
  O  O265  1  0.74179975  0.86401084  0.00843950  1
  O  O266  1  0.75793038  0.86295184  0.49873377  1
  O  O267  1  0.13195905  0.50502826  0.23214812  1
  O  O268  1  0.13607450  0.49844303  0.74311610  1
  O  O269  1  0.12715363  0.99605799  0.24112521  1
  O  O270  1  0.13560043  0.99137560  0.74798484  1
  O  O271  1  0.63273856  0.49591620  0.24123786  1
  O  O272  1  0.63871738  0.49203152  0.75597213  1
  O  O273  1  0.63811117  0.99095119  0.24279957  1
  O  O274  1  0.63637168  0.99986376  0.74511747  1
  O  O275  1  0.36988947  -0.00910058  0.25719031  1
  O  O276  1  0.37210565  0.00267547  0.75704997  1
  O  O277  1  0.38394844  0.50301380  0.26224317  1
  O  O278  1  0.36217587  0.50328597  0.75117323  1
  O  O279  1  0.86488109  -0.00090845  0.24942243  1
  O  O280  1  0.87086025  0.00396515  0.75670594  1
  O  O281  1  0.86162591  0.49841847  0.24784224  1
  O  O282  1  0.86398322  0.50625301  0.75960830  1
  O  O283  1  0.13802207  0.37370665  0.37164206  1
  O  O284  1  0.11622715  0.38468511  0.86451436  1
  O  O285  1  0.12298835  0.86282308  0.36408935  1
  O  O286  1  0.13439207  0.87566854  0.85885109  1
  O  O287  1  0.61952883  0.38034505  0.36404177  1
  O  O288  1  0.62166926  0.36919336  0.86492795  1
  O  O289  1  0.61727964  0.87998189  0.36383151  1
  O  O290  1  0.61377566  0.88050091  0.87452921  1
  O  O291  1  0.38477437  0.13108632  0.11597186  1
  O  O292  1  0.38510117  0.13282398  0.63213521  1
  O  O293  1  0.36704908  0.64039324  0.12617643  1
  O  O294  1  0.38147056  0.63610421  0.62391808  1
  O  O295  1  0.87482692  0.11686611  0.14362148  1
  O  O296  1  0.88413472  0.12695513  0.63676230  1
  O  O297  1  0.88416439  0.63074656  0.12022582  1
  O  O298  1  0.88591715  0.61634213  0.63305708  1
  O  O299  1  0.26141333  0.25379544  0.11109039  1
  O  O300  1  0.26095049  0.25999084  0.63055881  1
  O  O301  1  0.25552694  0.76274060  0.12492485  1
  O  O302  1  0.26169647  0.75563987  0.62670090  1
  O  O303  1  0.74285644  0.26883335  0.12675901  1
  O  O304  1  0.75498697  0.26474430  0.61917586  1
  O  O305  1  0.75553550  0.75436035  0.11908531  1
  O  O306  1  0.75022370  0.74624293  0.61285281  1
  O  O307  1  0.26664592  0.23910090  0.36950882  1
  O  O308  1  0.25959310  0.25120049  0.88514506  1
  O  O309  1  0.24357665  0.74427601  0.37635057  1
  O  O310  1  0.24972086  0.73872887  0.87393262  1
  O  O311  1  0.74611981  0.25133746  0.38318723  1
  O  O312  1  0.73860100  0.25484915  0.87145644  1
  O  O313  1  0.75180375  0.73855278  0.38052600  1
  O  O314  1  0.75315064  0.74069274  0.88390760  1
  O  O315  1  0.01443341  0.11802877  -0.00085213  1
  O  O316  1  -0.00605759  0.12026242  0.50850784  1
  O  O317  1  0.00733006  0.61776253  0.00710286  1
  O  O318  1  0.01241363  0.63261037  0.50791046  1
  O  O319  1  0.50952113  0.11603189  0.00771007  1
  O  O320  1  0.50444904  0.11607790  0.51678815  1
  O  O321  1  0.50982762  0.61655030  -0.00676499  1
  O  O322  1  0.50876189  0.62329314  0.50359661  1
  O  O323  1  0.49933246  0.38553284  0.49844723  1
  O  O324  1  0.49682335  0.38090717  0.99423445  1
  O  O325  1  0.49834141  0.87807540  0.49185472  1
  O  O326  1  0.49790483  0.88111841  0.99451082  1
  O  O327  1  0.98681852  0.37237366  0.49861422  1
  O  O328  1  0.99919033  0.38154008  0.98965992  1
  O  O329  1  0.99075484  0.88013944  0.50218174  1
  O  O330  1  1.00887136  0.88997252  0.99820181  1
  O  O331  1  0.49515427  0.49832013  0.38355370  1
  O  O332  1  0.50218021  0.49216685  0.88555762  1
  O  O333  1  0.49495017  0.98946097  0.37713338  1
  O  O334  1  0.49338461  0.99188740  0.87838764  1
  O  O335  1  1.00028122  0.49512538  0.36812879  1
  O  O336  1  0.99073921  0.49758643  0.87959525  1
  O  O337  1  0.99615780  0.99765817  0.38315390  1
  O  O338  1  0.99134719  1.00136322  0.88500513  1
  O  O339  1  0.00745338  -0.00217503  0.10954518  1
  O  O340  1  0.00177039  0.01450299  0.61740894  1
  O  O341  1  0.00687927  0.50337769  0.11845397  1
  O  O342  1  0.01312634  0.50968660  0.63127504  1
  O  O343  1  0.50676589  0.00239216  0.11775235  1
  O  O344  1  0.50669080  0.00615325  0.62338470  1
  O  O345  1  0.50751390  0.49449469  0.11231601  1
  O  O346  1  0.49370742  0.51469726  0.61727034  1
  O  O347  1  0.26426890  0.36971446  0.22615096  1
  O  O348  1  0.24621961  0.38453487  0.74251026  1
  O  O349  1  0.23895249  0.88053175  0.24166432  1
  O  O350  1  0.24912892  0.88300025  0.74228097  1
  O  O351  1  0.74344540  0.38516264  0.24168017  1
  O  O352  1  0.74728398  0.38205899  0.74250448  1
  O  O353  1  0.74521776  0.87852903  0.24401830  1
  O  O354  1  0.74883517  0.88684929  0.75388041  1
  O  O355  1  0.25474187  0.12356948  0.24912399  1
  O  O356  1  0.25893901  0.11047602  0.74374673  1
  O  O357  1  0.25242822  0.63017990  0.26271234  1
  O  O358  1  0.24984866  0.62003742  0.75635748  1
  O  O359  1  0.75937568  0.11754369  0.24927905  1
  O  O360  1  0.76359330  0.11528122  0.74432156  1
  O  O361  1  0.74285906  0.62157734  0.26315757  1
  O  O362  1  0.75163827  0.61813649  0.75495290  1
  O  O363  1  0.37881661  0.11413972  0.36333932  1
  O  O364  1  0.38685473  0.11385094  0.86728177  1
  O  O365  1  0.36638234  0.61686654  0.37534365  1
  O  O366  1  0.36557802  0.62219580  0.87295320  1
  O  O367  1  0.87234486  0.12253125  0.35901009  1
  O  O368  1  0.88148915  0.11280400  0.85525424  1
  O  O369  1  0.86093477  0.62529081  0.38073235  1
  O  O370  1  0.86289368  0.61656123  0.86866429  1
  O  O371  1  0.13874540  0.38348448  0.11498312  1
  O  O372  1  0.13232550  0.38445352  0.63007291  1
  O  O373  1  0.13213228  0.88163227  0.12888103  1
  O  O374  1  0.13747992  0.87712910  0.63373257  1
  O  O375  1  0.63049781  0.38540284  0.12927273  1
  O  O376  1  0.63284380  0.37246045  0.63761145  1
  O  O377  1  0.63517480  0.88087972  0.13199938  1
  O  O378  1  0.61689698  0.88873952  0.63008142  1
  O  O379  1  0.11857168  0.24665699  0.25168168  1
  O  O380  1  0.13290317  0.26651447  0.74591999  1
  O  O381  1  0.12374156  0.75906299  0.25412659  1
  O  O382  1  0.12831899  0.76680141  0.75160408  1
  O  O383  1  0.62954393  0.26494306  0.24967795  1
  O  O384  1  0.62256235  0.25608880  0.75477648  1
  O  O385  1  0.61806784  0.76202620  0.24193402  1
  O  O386  1  0.61290129  0.75009157  0.74500825  1
  O  O387  1  0.37215104  0.23670393  0.23928261  1
  O  O388  1  0.38397141  0.24770170  0.74158047  1
  O  O389  1  0.38422420  0.75120145  0.24246137  1
  O  O390  1  0.38816284  0.74772585  0.74186572  1
  O  O391  1  0.87486917  0.24331560  0.24892965  1
  O  O392  1  0.87019154  0.23589375  0.74735751  1
  O  O393  1  0.87528011  0.75402674  0.23569483  1
  O  O394  1  0.86985770  0.73462221  0.75052224  1
  O  O395  1  0.38721371  0.49955391  0.49346534  1
  O  O396  1  0.38509095  0.49425738  0.99855194  1
  O  O397  1  0.38511728  0.99424782  0.49102945  1
  O  O398  1  0.38089322  0.99572847  0.99271434  1
  O  O399  1  0.87127423  0.48819039  0.49684203  1
  O  O400  1  0.87853866  0.50263967  0.98715963  1
  O  O401  1  0.88323432  0.99000675  0.50040320  1
  O  O402  1  0.88743483  1.00555813  0.98780225  1
  O  O403  1  0.11855564  0.00810163  0.00202145  1
  O  O404  1  0.10938289  -0.00158208  0.50313909  1
  O  O405  1  0.11997896  0.50732447  0.00645884  1
  O  O406  1  0.12976890  0.51223320  0.51361451  1
  O  O407  1  0.62068862  0.00564077  0.00446060  1
  O  O408  1  0.62196491  -0.00055088  0.50860474  1
  O  O409  1  0.61965257  0.50772823  0.00639304  1
  O  O410  1  0.61394969  0.50832765  0.49590842  1
  O  O411  1  0.37480739  0.36458928  0.11459732  1
  O  O412  1  0.37104669  0.37015059  0.62513174  1
  O  O413  1  0.36755407  0.86860256  0.11896242  1
  O  O414  1  0.37566517  0.86435803  0.62307392  1
  O  O415  1  0.85981121  0.37985362  0.11737233  1
  O  O416  1  0.87053332  0.37707899  0.61518738  1
  O  O417  1  0.86295354  0.86766374  0.12454448  1
  O  O418  1  0.87725747  0.87796498  0.61218316  1
  O  O419  1  0.12504924  0.12632485  0.38501693  1
  O  O420  1  0.12405660  0.11970015  0.88288823  1
  O  O421  1  0.13123117  0.63299127  0.38009365  1
  O  O422  1  0.13096155  0.62419755  0.88581978  1
  O  O423  1  0.62983999  0.12690085  0.38012946  1
  O  O424  1  0.61959978  0.13539974  0.88404431  1
  O  O425  1  0.63747745  0.62296067  0.38755986  1
  O  O426  1  0.63753607  0.61964532  0.88433402  1
