# generated using pymatgen
data_V85Zn86O256
_symmetry_space_group_name_H-M   'P 1'
_cell_length_a   16.94237640
_cell_length_b   16.95313122
_cell_length_c   16.94813568
_cell_angle_alpha   90.03991455
_cell_angle_beta   90.03073931
_cell_angle_gamma   89.99326531
_symmetry_Int_Tables_number   1
_chemical_formula_structural   V85Zn86O256
_chemical_formula_sum   'V85 Zn86 O256'
_cell_volume   4867.94890098
_cell_formula_units_Z   1
loop_
 _symmetry_equiv_pos_site_id
 _symmetry_equiv_pos_as_xyz
  1  'x, y, z'
loop_
 _atom_site_type_symbol
 _atom_site_label
 _atom_site_symmetry_multiplicity
 _atom_site_fract_x
 _atom_site_fract_y
 _atom_site_fract_z
 _atom_site_occupancy
  V  V0  1  0.75018278  0.87412461  0.13132682  1
  V  V1  1  0.38278524  0.88153245  0.49137685  1
  V  V2  1  -0.01422762  0.87440995  0.87785890  1
  V  V3  1  0.12231811  0.00098738  0.12128879  1
  V  V4  1  0.63460327  0.24838247  0.37549631  1
  V  V5  1  0.50177614  0.75411721  0.74936645  1
  V  V6  1  0.75545790  0.75320322  0.00036826  1
  V  V7  1  0.61946710  0.73878600  0.36725348  1
  V  V8  1  0.24889277  0.37578271  0.62354700  1
  V  V9  1  0.38190253  0.87920686  0.00161015  1
  V  V10  1  0.24987174  0.62738695  0.87662303  1
  V  V11  1  0.74996353  0.37752946  0.12507300  1
  V  V12  1  0.12465197  0.50262302  0.13010888  1
  V  V13  1  0.25671036  0.75388110  0.00100028  1
  V  V14  1  0.25420383  -0.00183461  0.26243146  1
  V  V15  1  0.88134994  0.75575214  0.12356620  1
  V  V16  1  0.75270660  0.87193666  0.61505371  1
  V  V17  1  0.50372500  0.50385734  0.50838833  1
  V  V18  1  0.87467011  0.37472666  0.00206334  1
  V  V19  1  0.62503655  0.87444529  0.74938187  1
  V  V20  1  0.63487240  0.62462984  0.50713478  1
  V  V21  1  0.75526212  -0.00347472  0.75155288  1
  V  V22  1  0.74747273  0.62415364  0.88065969  1
  V  V23  1  0.87504925  0.12393111  0.74380149  1
  V  V24  1  0.00024369  0.50309362  0.50315182  1
  V  V25  1  0.35748495  0.12606028  0.75850680  1
  V  V26  1  0.50100870  0.24811367  0.24901704  1
  V  V27  1  0.00758706  0.10935049  0.62221062  1
  V  V28  1  0.87692578  0.63386574  0.25383066  1
  V  V29  1  0.11871378  0.11910886  0.48847598  1
  V  V30  1  0.11914417  0.50327097  0.62740714  1
  V  V31  1  0.62734053  0.50876612  0.11999582  1
  V  V32  1  0.12635099  0.62802010  0.00540029  1
  V  V33  1  0.11421649  0.87273764  0.25173949  1
  V  V34  1  0.62548365  0.38013645  0.25050691  1
  V  V35  1  0.11828124  0.75176954  0.37477023  1
  V  V36  1  0.62143759  -0.00292409  0.62391560  1
  V  V37  1  0.87529253  0.50576331  0.37645833  1
  V  V38  1  -0.02179000  -0.00752046  0.00125525  1
  V  V39  1  0.88210894  0.74932033  0.61744998  1
  V  V40  1  0.13023814  0.89097047  0.74901382  1
  V  V41  1  0.37397323  0.24775096  0.62089267  1
  V  V42  1  0.74472167  0.50068909  0.74525535  1
  V  V43  1  0.87080058  0.24381058  0.13637748  1
  V  V44  1  0.00257017  0.37140517  0.87597855  1
  V  V45  1  0.37343044  0.25035931  0.12225147  1
  V  V46  1  0.87465577  0.50024662  0.87671377  1
  V  V47  1  -0.01052440  0.11914342  0.13366989  1
  V  V48  1  0.37677130  0.50252925  0.87572805  1
  V  V49  1  0.50032584  0.00075721  0.47037492  1
  V  V50  1  0.25288518  0.49939835  0.25030266  1
  V  V51  1  0.86486510  0.01462905  0.38210850  1
  V  V52  1  0.12197197  0.75154147  0.87221052  1
  V  V53  1  0.62685850  0.24818762  0.87563192  1
  V  V54  1  0.62377323  0.74743833  0.88102242  1
  V  V55  1  0.74354575  0.37553712  0.62283490  1
  V  V56  1  0.49419297  0.63378873  0.12689757  1
  V  V57  1  0.35400540  0.00581279  0.87804514  1
  V  V58  1  0.63284947  0.12485772  0.50065523  1
  V  V59  1  0.25634307  0.13749564  0.36782013  1
  V  V60  1  0.50235253  0.24853742  0.74831038  1
  V  V61  1  0.87666601  0.37341349  0.50180773  1
  V  V62  1  0.37558232  0.37554677  0.49881623  1
  V  V63  1  0.37679601  0.50256147  0.37444187  1
  V  V64  1  0.88420186  0.62487638  0.74654042  1
  V  V65  1  0.50430587  0.50535217  -0.00033200  1
  V  V66  1  0.25074402  0.62587603  0.37802952  1
  V  V67  1  0.24954831  0.50226917  0.74981280  1
  V  V68  1  0.12382442  0.62594561  0.50453310  1
  V  V69  1  0.00570956  0.63186746  0.13349757  1
  V  V70  1  0.49653552  0.11814227  0.62469036  1
  V  V71  1  -0.01145604  0.88113300  0.39004666  1
  V  V72  1  0.25445452  0.87769877  0.12718962  1
  V  V73  1  0.37696216  0.62815842  0.74887829  1
  V  V74  1  0.76225946  0.12006600  0.87556932  1
  V  V75  1  0.11996481  0.36364797  0.25263242  1
  V  V76  1  0.50137409  0.37658468  0.37551827  1
  V  V77  1  0.25185055  0.75529016  0.50539572  1
  V  V78  1  0.60819835  0.87077918  0.25542474  1
  V  V79  1  0.75186138  0.24655689  -0.00045050  1
  V  V80  1  0.61616418  -0.00429218  0.11759409  1
  V  V81  1  0.50305321  0.89100772  0.87511830  1
  V  V82  1  0.12473908  0.36794104  0.75311753  1
  V  V83  1  0.75172669  0.50783920  0.25412760  1
  V  V84  1  0.50165285  0.37517687  0.87518231  1
  Zn  Zn85  1  0.24044483  0.25307019  0.49398943  1
  Zn  Zn86  1  0.24291419  0.89326854  0.62221687  1
  Zn  Zn87  1  0.75496699  0.24492568  0.49965908  1
  Zn  Zn88  1  0.22569385  0.25687727  -0.03804718  1
  Zn  Zn89  1  0.37606943  0.75306617  0.62447275  1
  Zn  Zn90  1  0.24794610  0.37428581  0.11832581  1
  Zn  Zn91  1  0.61979366  0.10848764  -0.01066720  1
  Zn  Zn92  1  0.38850155  0.64685433  0.25502435  1
  Zn  Zn93  1  0.75574110  0.01718135  0.25143409  1
  Zn  Zn94  1  0.13975430  0.11755775  -0.03080289  1
  Zn  Zn95  1  0.49998589  0.12351033  0.11413744  1
  Zn  Zn96  1  0.50667751  0.62372333  0.62855267  1
  Zn  Zn97  1  0.87792046  0.24694138  0.62279808  1
  Zn  Zn98  1  0.75442224  0.74901583  0.49083799  1
  Zn  Zn99  1  0.38791554  0.11392480  0.25226073  1
  Zn  Zn100  1  0.00505049  0.24253366  0.75100904  1
  Zn  Zn101  1  0.37045394  0.37505888  0.00016534  1
  Zn  Zn102  1  0.62316950  0.38044055  0.74396734  1
  Zn  Zn103  1  0.00196898  0.75022841  0.74712870  1
  Zn  Zn104  1  0.00029087  0.50131813  0.00362971  1
  Zn  Zn105  1  0.00538028  0.36692586  0.37894653  1
  Zn  Zn106  1  0.00066427  0.23596034  0.25846206  1
  Zn  Zn107  1  0.18569563  0.18851138  0.11455755  1
  Zn  Zn108  1  0.18423326  0.18672740  0.68146984  1
  Zn  Zn109  1  0.22033434  0.70371603  0.20288473  1
  Zn  Zn110  1  0.18737153  0.68961506  0.68719332  1
  Zn  Zn111  1  0.68618197  0.18461893  0.18485960  1
  Zn  Zn112  1  0.68924205  0.18833571  0.68469741  1
  Zn  Zn113  1  0.68715036  0.68758175  0.18742382  1
  Zn  Zn114  1  0.69259316  0.68737822  0.68855586  1
  Zn  Zn115  1  0.31319194  0.31512947  0.30495202  1
  Zn  Zn116  1  0.31387634  0.31555893  0.81096629  1
  Zn  Zn117  1  0.31104493  0.81308006  0.31664135  1
  Zn  Zn118  1  0.31345890  0.81696697  0.81386863  1
  Zn  Zn119  1  0.81438570  0.31888628  0.31634837  1
  Zn  Zn120  1  0.81511374  0.31125907  0.81027344  1
  Zn  Zn121  1  0.80594297  0.81165956  0.31378388  1
  Zn  Zn122  1  0.81120902  0.80809306  0.80575511  1
  Zn  Zn123  1  0.18694689  0.43551524  0.43574970  1
  Zn  Zn124  1  0.18697448  0.43972902  0.93998630  1
  Zn  Zn125  1  0.18358459  0.93816625  0.44021588  1
  Zn  Zn126  1  0.18030899  0.93355849  0.94022981  1
  Zn  Zn127  1  0.68974172  0.44137176  0.43816147  1
  Zn  Zn128  1  0.68628788  0.43602465  0.93720865  1
  Zn  Zn129  1  0.68478959  0.93509032  0.43242937  1
  Zn  Zn130  1  0.69700122  0.93216070  0.93732290  1
  Zn  Zn131  1  0.31493792  0.06379386  0.06298931  1
  Zn  Zn132  1  0.30660781  0.06221383  0.55042761  1
  Zn  Zn133  1  0.31490678  0.56177742  0.06343335  1
  Zn  Zn134  1  0.31357248  0.56444481  0.56409513  1
  Zn  Zn135  1  0.80724907  0.06068654  0.06590574  1
  Zn  Zn136  1  0.81846163  0.05336922  0.55976335  1
  Zn  Zn137  1  0.81528520  0.56790008  0.06354918  1
  Zn  Zn138  1  0.81394293  0.56338438  0.56558784  1
  Zn  Zn139  1  0.43779561  0.43859588  0.18595307  1
  Zn  Zn140  1  0.43718991  0.43700706  0.68771107  1
  Zn  Zn141  1  0.43728789  0.93477382  0.18834020  1
  Zn  Zn142  1  0.39379401  0.96139220  0.66892393  1
  Zn  Zn143  1  0.93888884  0.43912663  0.18828332  1
  Zn  Zn144  1  0.93632310  0.43691738  0.68749185  1
  Zn  Zn145  1  0.93301779  0.93853178  0.19764875  1
  Zn  Zn146  1  0.93798826  0.93265338  0.68855832  1
  Zn  Zn147  1  0.06083004  0.05614236  0.31406435  1
  Zn  Zn148  1  0.05510963  0.05608166  0.81479123  1
  Zn  Zn149  1  0.06184977  0.56227439  0.31474565  1
  Zn  Zn150  1  0.06249083  0.55955525  0.81599334  1
  Zn  Zn151  1  0.59421497  0.07446991  0.29813176  1
  Zn  Zn152  1  0.56698037  0.06661241  0.80863986  1
  Zn  Zn153  1  0.56192745  0.56559452  0.31305545  1
  Zn  Zn154  1  0.56491035  0.56511215  0.81315378  1
  Zn  Zn155  1  0.44099811  0.18591140  0.43517932  1
  Zn  Zn156  1  0.43233401  0.18602040  0.93932606  1
  Zn  Zn157  1  0.44059515  0.68986513  0.43852787  1
  Zn  Zn158  1  0.44046928  0.68955104  0.93960402  1
  Zn  Zn159  1  0.94171168  0.18746380  0.43697162  1
  Zn  Zn160  1  0.96941311  0.16801441  0.92272610  1
  Zn  Zn161  1  0.94142713  0.68749624  0.43804263  1
  Zn  Zn162  1  0.93939029  0.68642651  0.94106403  1
  Zn  Zn163  1  0.05711693  0.31233736  0.06740415  1
  Zn  Zn164  1  0.06001843  0.30389811  0.56433068  1
  Zn  Zn165  1  0.06445422  0.81433906  0.06206734  1
  Zn  Zn166  1  0.06366963  0.81622653  0.56573640  1
  Zn  Zn167  1  0.56249671  0.31261471  0.06060052  1
  Zn  Zn168  1  0.56342030  0.31211230  0.56126730  1
  Zn  Zn169  1  0.56485751  0.81277985  0.05867073  1
  Zn  Zn170  1  0.56057255  0.81212140  0.55778681  1
  O  O171  1  0.10967039  0.10560887  0.13530943  1
  O  O172  1  0.11172219  0.12077130  0.62245012  1
  O  O173  1  0.12038334  0.62276227  0.12576921  1
  O  O174  1  0.13093388  0.61102072  0.62142353  1
  O  O175  1  0.62663994  0.10363410  0.11844408  1
  O  O176  1  0.61528931  0.11921847  0.61995425  1
  O  O177  1  0.61801728  0.61332292  0.12747814  1
  O  O178  1  0.62623661  0.62784438  0.61219117  1
  O  O179  1  0.38015621  0.38079751  0.38071906  1
  O  O180  1  0.38929993  0.38521911  0.87107718  1
  O  O181  1  0.37266314  0.86939286  0.39129523  1
  O  O182  1  0.38179882  0.88995287  0.87858140  1
  O  O183  1  0.87615482  0.38598154  0.38828768  1
  O  O184  1  0.87574706  0.38719535  0.87921857  1
  O  O185  1  0.88986348  0.86217924  0.37449478  1
  O  O186  1  0.88672104  0.86561848  0.86891654  1
  O  O187  1  0.24791874  0.00259719  0.36432089  1
  O  O188  1  0.25551988  0.00052697  0.87928663  1
  O  O189  1  0.25832723  0.50399225  0.37214492  1
  O  O190  1  0.25495770  0.50898669  0.86987081  1
  O  O191  1  0.76027374  -0.00818115  0.37180086  1
  O  O192  1  0.74639397  0.00709454  0.86467835  1
  O  O193  1  0.76379058  0.49810257  0.36655671  1
  O  O194  1  0.75592834  0.50651334  0.87182012  1
  O  O195  1  0.24381169  0.50034845  0.13370295  1
  O  O196  1  0.24481274  0.49444604  0.63053564  1
  O  O197  1  0.24113645  0.99166559  0.13112272  1
  O  O198  1  0.28674590  0.99649128  0.63542663  1
  O  O199  1  0.74495104  0.49929844  0.12950114  1
  O  O200  1  0.75669312  0.49147851  0.63531589  1
  O  O201  1  0.74272677  0.98879368  0.13039887  1
  O  O202  1  0.74465966  0.99017598  0.63122015  1
  O  O203  1  0.01253266  0.37628641  0.24973026  1
  O  O204  1  0.00882502  0.37746021  0.75704494  1
  O  O205  1  0.01211347  0.87498232  0.25758861  1
  O  O206  1  0.01075998  0.87367788  0.76000795  1
  O  O207  1  0.50760579  0.37436091  0.25715993  1
  O  O208  1  0.50300263  0.36848403  0.75432079  1
  O  O209  1  0.50997799  0.86442928  0.24133331  1
  O  O210  1  0.50711046  0.86681393  0.76063484  1
  O  O211  1  0.50551129  0.13639747  0.24280309  1
  O  O212  1  0.49505241  0.13352112  0.74375034  1
  O  O213  1  0.49995730  0.62172656  0.23399752  1
  O  O214  1  0.49390083  0.63208843  0.75013887  1
  O  O215  1  0.99727017  0.11687847  0.23879949  1
  O  O216  1  0.99047997  0.11995849  0.73821928  1
  O  O217  1  0.99328717  0.62289054  0.24097862  1
  O  O218  1  0.98726315  0.62388400  0.75648497  1
  O  O219  1  0.38030724  0.25472327  0.01809569  1
  O  O220  1  0.37848886  0.25429674  0.51018812  1
  O  O221  1  0.36510848  0.76210591  -0.01005924  1
  O  O222  1  0.36855343  0.75625257  0.50107504  1
  O  O223  1  0.86106238  0.25570947  0.01141390  1
  O  O224  1  0.87305366  0.26080729  0.50088940  1
  O  O225  1  0.86771562  0.74418730  0.01117482  1
  O  O226  1  0.87178102  0.74042969  0.51360023  1
  O  O227  1  0.12877857  0.22858986  0.50882326  1
  O  O228  1  0.13052476  0.24102006  1.02328236  1
  O  O229  1  0.13064340  0.74545039  0.49851869  1
  O  O230  1  0.13206438  0.74824617  0.98849157  1
  O  O231  1  0.62702554  0.24294084  0.49396735  1
  O  O232  1  0.64040816  0.25710928  0.99295698  1
  O  O233  1  0.62523905  0.73644289  0.49389897  1
  O  O234  1  0.63423474  0.75223681  0.98661134  1
  O  O235  1  0.49418713  0.25598374  0.13491778  1
  O  O236  1  0.49650169  0.24171424  0.62957539  1
  O  O237  1  0.50555447  0.73131186  0.11314761  1
  O  O238  1  0.50245462  0.74916204  0.63999361  1
  O  O239  1  0.98647011  0.23627527  0.12993292  1
  O  O240  1  0.99572009  0.23598308  0.63106445  1
  O  O241  1  0.99378187  0.74422064  0.12171186  1
  O  O242  1  0.98634837  0.75331922  0.62700467  1
  O  O243  1  -0.00358050  0.25467519  0.36854310  1
  O  O244  1  -0.01761531  0.27045869  0.86890166  1
  O  O245  1  0.01318398  0.75704416  0.38013874  1
  O  O246  1  0.00720376  0.75552164  0.87668533  1
  O  O247  1  0.50730159  0.25852947  0.36907520  1
  O  O248  1  0.50144082  0.25839785  0.86599409  1
  O  O249  1  0.51866245  0.74848474  0.37909429  1
  O  O250  1  0.50828055  0.75431949  0.86797418  1
  O  O251  1  0.24759058  0.12979806  0.48121361  1
  O  O252  1  0.23890467  0.13394937  1.02116907  1
  O  O253  1  0.24531145  0.63123939  0.49592499  1
  O  O254  1  0.24783916  0.63489593  0.99784859  1
  O  O255  1  0.73571158  0.12365777  0.51063819  1
  O  O256  1  0.74794383  0.13006804  0.99111735  1
  O  O257  1  0.73772990  0.62344387  0.50122684  1
  O  O258  1  0.75508024  0.63372253  0.98781947  1
  O  O259  1  0.25178176  0.36957564  0.00018249  1
  O  O260  1  0.25653804  0.37212020  0.50421004  1
  O  O261  1  0.25784371  0.87217116  0.00494859  1
  O  O262  1  0.25640320  0.87063261  0.50214700  1
  O  O263  1  0.75540338  0.36957459  0.00560969  1
  O  O264  1  0.75800100  0.37785869  0.50759915  1
  O  O265  1  0.74980248  0.86043267  0.01128820  1
  O  O266  1  0.74004251  0.87153731  0.51327399  1
  O  O267  1  0.12845456  0.49665415  0.24169780  1
  O  O268  1  0.12935170  0.49520204  0.74356807  1
  O  O269  1  0.13428213  0.98984278  0.24602114  1
  O  O270  1  0.12648165  0.98940134  0.75644310  1
  O  O271  1  0.63431857  0.49893681  0.24573292  1
  O  O272  1  0.64021632  0.50066484  0.75427451  1
  O  O273  1  0.62309281  0.97840466  0.23564088  1
  O  O274  1  0.63471581  0.99612359  0.74170345  1
  O  O275  1  0.35892195  -0.00144176  0.24414973  1
  O  O276  1  0.38051634  0.01289029  0.77124263  1
  O  O277  1  0.36698822  0.49977125  0.25788277  1
  O  O278  1  0.37167768  0.50910140  0.75486885  1
  O  O279  1  0.86804792  -0.00610552  0.26945895  1
  O  O280  1  0.86252537  0.00702868  0.74460982  1
  O  O281  1  0.87109920  0.50820831  0.25683172  1
  O  O282  1  0.86731726  0.50514887  0.75774513  1
  O  O283  1  0.12448627  0.37953051  0.35797303  1
  O  O284  1  0.11492199  0.38379657  0.86654936  1
  O  O285  1  0.11721644  0.87099169  0.37100603  1
  O  O286  1  0.11714688  0.86725235  0.86746751  1
  O  O287  1  0.62017513  0.37127915  0.37181522  1
  O  O288  1  0.61542977  0.36956274  0.87007978  1
  O  O289  1  0.62082552  0.86898278  0.35914460  1
  O  O290  1  0.62075923  0.86819761  0.87018178  1
  O  O291  1  0.38083107  0.13685625  0.13230435  1
  O  O292  1  0.38140215  0.13360610  0.63075709  1
  O  O293  1  0.39102824  0.61968242  0.12656683  1
  O  O294  1  0.37737714  0.62927301  0.63846851  1
  O  O295  1  0.87386756  0.13227145  0.12753723  1
  O  O296  1  0.88157928  0.12311765  0.62859252  1
  O  O297  1  0.88510748  0.63372464  0.13220665  1
  O  O298  1  0.86998975  0.63691800  0.63478053  1
  O  O299  1  0.27145553  0.25723688  0.14610058  1
  O  O300  1  0.25991049  0.25697204  0.62313931  1
  O  O301  1  0.23636783  0.76696835  0.10718883  1
  O  O302  1  0.25010617  0.75111339  0.61322556  1
  O  O303  1  0.75061996  0.25373705  0.11966686  1
  O  O304  1  0.75490534  0.26023699  0.62257531  1
  O  O305  1  0.75599657  0.75118435  0.11679909  1
  O  O306  1  0.75938556  0.75675112  0.62418594  1
  O  O307  1  0.24952879  0.23996186  0.36865495  1
  O  O308  1  0.27773897  0.23254618  0.87001700  1
  O  O309  1  0.23813914  0.74690296  0.39024191  1
  O  O310  1  0.24368975  0.74690455  0.88271762  1
  O  O311  1  0.73771737  0.25822073  0.37801723  1
  O  O312  1  0.74951429  0.24346847  0.88151035  1
  O  O313  1  0.72926398  0.75810677  0.37939101  1
  O  O314  1  0.74620173  0.74399300  0.88029541  1
  O  O315  1  -0.01240122  0.10308598  0.01741760  1
  O  O316  1  0.01084828  0.12199054  0.50750118  1
  O  O317  1  0.00861902  0.62400351  0.01244442  1
  O  O318  1  0.00770350  0.61106580  0.49795841  1
  O  O319  1  0.51274265  0.14020096  0.00206483  1
  O  O320  1  0.50248169  0.11551846  0.50786994  1
  O  O321  1  0.49719328  0.61243424  0.00634557  1
  O  O322  1  0.50842786  0.61854918  0.50475924  1
  O  O323  1  0.49643726  0.38313472  0.49528767  1
  O  O324  1  0.49945945  0.38493489  0.99024543  1
  O  O325  1  0.49307506  0.88703776  0.49801785  1
  O  O326  1  0.48853176  0.86758317  0.98986473  1
  O  O327  1  0.99474568  0.38467056  0.50236662  1
  O  O328  1  0.99281621  0.37834669  0.99486015  1
  O  O329  1  1.00388614  0.87514888  0.48812786  1
  O  O330  1  1.00281695  0.88379500  0.99331152  1
  O  O331  1  0.49450827  0.49649251  0.38298998  1
  O  O332  1  0.49992112  0.49552312  0.88061750  1
  O  O333  1  0.51195803  1.01105113  0.37345193  1
  O  O334  1  0.50841507  0.99137478  0.87428114  1
  O  O335  1  0.99097495  0.49559554  0.38296647  1
  O  O336  1  0.99036951  0.49239222  0.87925445  1
  O  O337  1  0.98731223  0.98679596  0.37281066  1
  O  O338  1  0.99363290  0.98923626  0.89241408  1
  O  O339  1  0.00099897  -0.00452930  0.11922715  1
  O  O340  1  -0.00609206  0.01062443  0.62492588  1
  O  O341  1  0.00782016  0.51069880  0.12530192  1
  O  O342  1  0.00901544  0.49710390  0.61857706  1
  O  O343  1  0.51276680  -0.00302406  0.12374631  1
  O  O344  1  0.49919953  0.01167475  0.62867623  1
  O  O345  1  0.50849637  0.50437261  0.11656517  1
  O  O346  1  0.49751818  0.50033603  0.61226527  1
  O  O347  1  0.23925286  0.38726251  0.24966978  1
  O  O348  1  0.24452242  0.38421774  0.74569929  1
  O  O349  1  0.24300284  0.88524367  0.24411878  1
  O  O350  1  0.23304814  0.86896931  0.75243979  1
  O  O351  1  0.74749156  0.38877100  0.24414040  1
  O  O352  1  0.75093242  0.38328545  0.74248985  1
  O  O353  1  0.73759382  0.86706496  0.23662156  1
  O  O354  1  0.74400309  0.88051119  0.74414611  1
  O  O355  1  0.24834056  0.11129291  0.26220014  1
  O  O356  1  0.25999686  0.12887330  0.74436367  1
  O  O357  1  0.23970729  0.60645154  0.26271822  1
  O  O358  1  0.25795294  0.62253539  0.75599452  1
  O  O359  1  0.70134430  0.11558874  0.26808999  1
  O  O360  1  0.75521352  0.11667103  0.75328809  1
  O  O361  1  0.75988287  0.61410567  0.24331584  1
  O  O362  1  0.75993403  0.61916092  0.76048102  1
  O  O363  1  0.36205725  0.12987157  0.36885190  1
  O  O364  1  0.37850240  0.11106878  0.87217306  1
  O  O365  1  0.37045272  0.62077751  0.37285524  1
  O  O366  1  0.37211384  0.62256128  0.86610969  1
  O  O367  1  0.87008097  0.11440686  0.38426919  1
  O  O368  1  0.86729661  0.12672927  0.86644886  1
  O  O369  1  0.88192313  0.61905584  0.36608379  1
  O  O370  1  0.87082827  0.61561294  0.87129128  1
  O  O371  1  0.12484040  0.38732778  0.13412011  1
  O  O372  1  0.12964158  0.38411314  0.63138475  1
  O  O373  1  0.12969157  0.88270298  0.13269133  1
  O  O374  1  0.12593429  0.87265087  0.64375685  1
  O  O375  1  0.63099098  0.38657242  0.13058724  1
  O  O376  1  0.63826690  0.37362938  0.62449753  1
  O  O377  1  0.63011580  0.87673320  0.12863027  1
  O  O378  1  0.62927185  0.87864524  0.63055110  1
  O  O379  1  0.12396054  0.26575673  0.23677739  1
  O  O380  1  0.12544434  0.26511511  0.74482451  1
  O  O381  1  0.13564150  0.76121898  0.26310249  1
  O  O382  1  0.12168144  0.74541091  0.76344785  1
  O  O383  1  0.61663739  0.26137494  0.25617647  1
  O  O384  1  0.61484946  0.25025027  0.75409261  1
  O  O385  1  0.62560883  0.75416354  0.25846838  1
  O  O386  1  0.62155874  0.75303281  0.75953686  1
  O  O387  1  0.39122054  0.25287355  0.24609485  1
  O  O388  1  0.38739127  0.24679949  0.73762679  1
  O  O389  1  0.32761968  0.73842352  0.23812335  1
  O  O390  1  0.38402882  0.74538452  0.75273494  1
  O  O391  1  0.87034725  0.25717145  0.23849734  1
  O  O392  1  0.87300375  0.23358055  0.74703469  1
  O  O393  1  0.86812687  0.73790268  0.24364140  1
  O  O394  1  0.87776733  0.73960390  0.74134146  1
  O  O395  1  0.38295777  0.49754499  0.49442645  1
  O  O396  1  0.38314197  0.49801148  0.99186016  1
  O  O397  1  0.38737095  0.99093104  0.49322102  1
  O  O398  1  0.37353781  0.99387307  0.98793256  1
  O  O399  1  0.88218178  0.49885737  0.49504800  1
  O  O400  1  0.87503649  0.49607566  0.99282192  1
  O  O401  1  0.87084930  0.99068878  0.48261451  1
  O  O402  1  0.87970099  0.98943536  1.00779144  1
  O  O403  1  0.11647466  0.00080056  0.00894073  1
  O  O404  1  0.13792875  0.02038264  0.50563747  1
  O  O405  1  0.12662188  0.50878445  0.01456572  1
  O  O406  1  0.11900420  0.50226430  0.50758412  1
  O  O407  1  0.63190285  -0.00951847  0.01325955  1
  O  O408  1  0.61561238  0.00533081  0.50396364  1
  O  O409  1  0.61803087  0.49676870  0.00815740  1
  O  O410  1  0.61764070  0.51544249  0.49168990  1
  O  O411  1  0.37398483  0.36650645  0.12397020  1
  O  O412  1  0.37049586  0.36845247  0.61931568  1
  O  O413  1  0.36569511  0.88092935  0.11386818  1
  O  O414  1  0.37619991  0.86737473  0.60590267  1
  O  O415  1  0.86889537  0.37108098  0.12053942  1
  O  O416  1  0.86827465  0.37612776  0.61455384  1
  O  O417  1  0.86827179  0.86110562  0.13565615  1
  O  O418  1  0.86666496  0.85919555  0.63239421  1
  O  O419  1  0.13236137  0.12033352  0.38224139  1
  O  O420  1  0.07608554  0.14129755  0.88196708  1
  O  O421  1  0.12874951  0.63214433  0.38297803  1
  O  O422  1  0.12991728  0.63011300  0.88326838  1
  O  O423  1  0.61127941  0.14006979  0.39298885  1
  O  O424  1  0.64048462  0.13214622  0.87229262  1
  O  O425  1  0.62521465  0.63309689  0.38194827  1
  O  O426  1  0.63626148  0.63429514  0.87096858  1
