# generated using pymatgen
data_V85Zn86O256
_symmetry_space_group_name_H-M   'P 1'
_cell_length_a   16.95327645
_cell_length_b   16.94301237
_cell_length_c   16.95318727
_cell_angle_alpha   89.98573946
_cell_angle_beta   89.99093198
_cell_angle_gamma   90.02511145
_symmetry_Int_Tables_number   1
_chemical_formula_structural   V85Zn86O256
_chemical_formula_sum   'V85 Zn86 O256'
_cell_volume   4869.62558248
_cell_formula_units_Z   1
loop_
 _symmetry_equiv_pos_site_id
 _symmetry_equiv_pos_as_xyz
  1  'x, y, z'
loop_
 _atom_site_type_symbol
 _atom_site_label
 _atom_site_symmetry_multiplicity
 _atom_site_fract_x
 _atom_site_fract_y
 _atom_site_fract_z
 _atom_site_occupancy
  V  V0  1  -0.00198902  0.87998216  0.38252636  1
  V  V1  1  0.75619447  0.49708404  0.25976550  1
  V  V2  1  0.24480044  0.61288908  0.37600047  1
  V  V3  1  0.42008102  0.55138863  0.31777531  1
  V  V4  1  0.87293734  0.87462743  0.50050874  1
  V  V5  1  0.87500912  0.00628696  0.87659310  1
  V  V6  1  0.62597140  0.12420417  0.49404715  1
  V  V7  1  0.25741270  0.25472612  -0.00779068  1
  V  V8  1  0.25354298  0.62617074  0.88241947  1
  V  V9  1  0.74644592  0.86996704  0.62036123  1
  V  V10  1  0.87345438  0.00438526  0.37885518  1
  V  V11  1  0.12081123  0.50271865  0.62651481  1
  V  V12  1  0.62738601  -0.00138970  0.12356185  1
  V  V13  1  0.37385996  0.86315409  0.50845241  1
  V  V14  1  0.13118026  0.12309473  -0.00662697  1
  V  V15  1  0.50148493  0.36970277  0.36906183  1
  V  V16  1  -0.00006946  0.24552585  0.74337344  1
  V  V17  1  0.24388880  0.12176879  0.37273300  1
  V  V18  1  0.74716643  0.50273185  0.76011365  1
  V  V19  1  -0.00224899  0.74766847  0.75182971  1
  V  V20  1  0.24837722  0.37730493  0.62546711  1
  V  V21  1  0.75112406  0.86712386  0.12491562  1
  V  V22  1  0.62432811  0.49441879  0.62997703  1
  V  V23  1  0.75224498  0.37780403  0.12097464  1
  V  V24  1  0.24218493  0.24936056  0.50084535  1
  V  V25  1  0.12730211  0.00117513  0.12560499  1
  V  V26  1  0.11160665  0.12317349  0.50080105  1
  V  V27  1  0.36761763  0.12655882  0.75336791  1
  V  V28  1  0.87962298  0.61981978  0.25922356  1
  V  V29  1  0.37677986  0.00045921  0.37652748  1
  V  V30  1  -0.00041315  0.12573597  0.12421170  1
  V  V31  1  0.00045770  0.87252913  0.87984183  1
  V  V32  1  0.87419012  0.86848930  0.00072585  1
  V  V33  1  0.12646839  0.87696918  0.75228106  1
  V  V34  1  0.13025406  0.75611662  0.38788571  1
  V  V35  1  -0.00025898  0.74744069  0.24970486  1
  V  V36  1  0.11531018  0.37585439  0.75521910  1
  V  V37  1  0.74867711  0.00077504  0.74951293  1
  V  V38  1  -0.00206094  0.25347707  0.25855476  1
  V  V39  1  0.49477441  0.50454709  0.00483330  1
  V  V40  1  0.11686501  0.25060506  0.87800404  1
  V  V41  1  0.87403343  0.37934669  0.49330713  1
  V  V42  1  -0.00344197  0.50446033  0.49446020  1
  V  V43  1  0.62254159  -0.00073727  0.62480829  1
  V  V44  1  0.12341413  0.87867671  0.25150379  1
  V  V45  1  0.87027302  0.74763947  0.62358203  1
  V  V46  1  0.63975514  0.62647670  -0.00586289  1
  V  V47  1  0.00125349  0.00009687  0.00142760  1
  V  V48  1  0.86963882  0.12508325  0.25175519  1
  V  V49  1  0.63357012  0.62754057  0.50184660  1
  V  V50  1  0.37401522  0.37713939  0.49741965  1
  V  V51  1  0.62416160  0.24604627  0.36637238  1
  V  V52  1  0.62658270  0.12645717  -0.00404142  1
  V  V53  1  0.38357951  0.25566189  0.12114238  1
  V  V54  1  0.25089977  0.86355101  0.62452395  1
  V  V55  1  0.44880028  0.82369946  0.32481281  1
  V  V56  1  0.49601901  0.50020320  0.50131279  1
  V  V57  1  0.64206847  0.76014820  0.37879849  1
  V  V58  1  0.75513732  0.25320488  -0.00398554  1
  V  V59  1  0.37530392  0.49073174  0.87758239  1
  V  V60  1  0.87910644  0.74042061  0.12251015  1
  V  V61  1  0.50577318  0.25794923  0.75075426  1
  V  V62  1  0.87926300  0.12182727  0.73878407  1
  V  V63  1  0.17382091  0.30355241  0.31589965  1
  V  V64  1  0.63917946  0.74581993  0.87339900  1
  V  V65  1  0.62351100  0.87365055  0.75105705  1
  V  V66  1  0.12899452  0.74767832  0.88165913  1
  V  V67  1  0.88537020  0.49632434  0.88206647  1
  V  V68  1  0.11339999  0.61569472  0.00593417  1
  V  V69  1  0.49641303  -0.00508251  0.49754212  1
  V  V70  1  0.62607885  0.50692805  0.12418894  1
  V  V71  1  0.74965693  0.24653933  0.49595398  1
  V  V72  1  0.37297106  0.24931669  0.62427194  1
  V  V73  1  0.11694555  0.00293728  0.62227726  1
  V  V74  1  0.49288297  0.62823794  0.62717010  1
  V  V75  1  0.37273068  0.86626166  0.00159117  1
  V  V76  1  0.74756608  -0.00373862  0.25225987  1
  V  V77  1  0.87802814  0.25665400  0.12099832  1
  V  V78  1  0.12436015  0.49067413  0.14475924  1
  V  V79  1  0.49653854  0.12556023  0.62417088  1
  V  V80  1  0.24966019  0.50004256  0.75191183  1
  V  V81  1  0.38445666  0.12491676  0.24774497  1
  V  V82  1  0.49347193  0.74945085  0.75139461  1
  V  V83  1  0.74922136  0.37313476  0.62839399  1
  V  V84  1  0.37090800  0.00404933  0.87813197  1
  Zn  Zn85  1  -0.00267748  0.62508559  0.62593064  1
  Zn  Zn86  1  0.63152642  0.25509190  0.86757256  1
  Zn  Zn87  1  0.29133826  0.71371346  0.05489763  1
  Zn  Zn88  1  0.12853115  0.63339610  0.50850441  1
  Zn  Zn89  1  0.50597641  0.13016481  0.12644726  1
  Zn  Zn90  1  0.50113389  0.87582246  0.87445680  1
  Zn  Zn91  1  0.24780939  0.00358150  0.74995675  1
  Zn  Zn92  1  0.74946915  0.12737483  0.87088338  1
  Zn  Zn93  1  0.58482569  0.82247153  0.20978307  1
  Zn  Zn94  1  0.44538792  0.68209745  0.16651045  1
  Zn  Zn95  1  0.50564478  0.37733464  0.87786921  1
  Zn  Zn96  1  -0.00137047  0.37944893  0.37076205  1
  Zn  Zn97  1  0.37184521  0.62785812  0.74943781  1
  Zn  Zn98  1  0.75830062  0.62419980  0.38409334  1
  Zn  Zn99  1  0.86736242  0.62670610  0.75622239  1
  Zn  Zn100  1  0.25205524  0.87235964  0.12245996  1
  Zn  Zn101  1  0.24926661  0.37457253  0.12920829  1
  Zn  Zn102  1  0.25336650  -0.00287315  0.24959321  1
  Zn  Zn103  1  0.88068408  0.24627631  0.62011106  1
  Zn  Zn104  1  0.50213395  0.00023561  -0.00213067  1
  Zn  Zn105  1  0.62344008  0.37130688  0.24594521  1
  Zn  Zn106  1  -0.00042356  0.48141666  0.00607833  1
  Zn  Zn107  1  0.19807353  0.18191253  0.17893322  1
  Zn  Zn108  1  0.18371265  0.18658967  0.68522161  1
  Zn  Zn109  1  0.17863935  0.67924608  0.18948057  1
  Zn  Zn110  1  0.18617347  0.68706191  0.69484961  1
  Zn  Zn111  1  0.69142497  0.18526499  0.18406884  1
  Zn  Zn112  1  0.68820014  0.18428654  0.68183754  1
  Zn  Zn113  1  0.69353405  0.68229173  0.18850960  1
  Zn  Zn114  1  0.68350701  0.68451524  0.68798804  1
  Zn  Zn115  1  0.34292485  0.32098402  0.29948484  1
  Zn  Zn116  1  0.30963253  0.31176978  0.81309307  1
  Zn  Zn117  1  0.28074063  0.77041600  0.28233685  1
  Zn  Zn118  1  0.31198465  0.81510770  0.81540468  1
  Zn  Zn119  1  0.81036063  0.31199445  0.31257571  1
  Zn  Zn120  1  0.81121994  0.31395924  0.80699195  1
  Zn  Zn121  1  0.81177303  0.81156052  0.31063671  1
  Zn  Zn122  1  0.81347554  0.81705760  0.80995178  1
  Zn  Zn123  1  0.18539382  0.44362155  0.44261984  1
  Zn  Zn124  1  0.18701572  0.43482832  0.93827549  1
  Zn  Zn125  1  0.19010924  0.93906341  0.44266059  1
  Zn  Zn126  1  0.19327785  0.93755999  0.93628911  1
  Zn  Zn127  1  0.68438543  0.43486608  0.44025092  1
  Zn  Zn128  1  0.68243394  0.43295617  0.93643126  1
  Zn  Zn129  1  0.69049837  0.93932321  0.43834044  1
  Zn  Zn130  1  0.69024957  0.93386837  0.93812969  1
  Zn  Zn131  1  0.31217927  0.06330519  0.06223350  1
  Zn  Zn132  1  0.30537964  0.05779818  0.56452567  1
  Zn  Zn133  1  0.31262293  0.55135726  0.07220507  1
  Zn  Zn134  1  0.31088447  0.56651311  0.55877161  1
  Zn  Zn135  1  0.81144611  0.06434501  0.06203550  1
  Zn  Zn136  1  0.80997332  0.06034044  0.56042401  1
  Zn  Zn137  1  0.81646856  0.56051537  0.06278746  1
  Zn  Zn138  1  0.81396567  0.55944008  0.56850724  1
  Zn  Zn139  1  0.44351117  0.43350641  0.17936673  1
  Zn  Zn140  1  0.43321886  0.43947420  0.68736562  1
  Zn  Zn141  1  0.43586174  0.94253574  0.18010645  1
  Zn  Zn142  1  0.43522199  0.93746343  0.68903625  1
  Zn  Zn143  1  0.94289408  0.43792756  0.18574020  1
  Zn  Zn144  1  0.93233585  0.43688409  0.68592017  1
  Zn  Zn145  1  0.93765253  0.93574233  0.18829639  1
  Zn  Zn146  1  0.93829099  0.93427330  0.68870330  1
  Zn  Zn147  1  0.05860046  0.06467986  0.31383677  1
  Zn  Zn148  1  0.06150773  0.06362838  0.81283549  1
  Zn  Zn149  1  0.06233896  0.56784740  0.31767184  1
  Zn  Zn150  1  0.06026518  0.56459260  0.81473869  1
  Zn  Zn151  1  0.56356469  0.05726730  0.31257931  1
  Zn  Zn152  1  0.55772112  0.06610605  0.81342421  1
  Zn  Zn153  1  0.58346604  0.57009848  0.31024130  1
  Zn  Zn154  1  0.56384839  0.56160672  0.81437483  1
  Zn  Zn155  1  0.43548266  0.18759899  0.43666894  1
  Zn  Zn156  1  0.44097489  0.18504273  0.93612141  1
  Zn  Zn157  1  0.43924728  0.68550685  0.44455970  1
  Zn  Zn158  1  0.44580510  0.68185062  0.93398647  1
  Zn  Zn159  1  0.93257569  0.18843771  0.43525834  1
  Zn  Zn160  1  0.93618624  0.31463004  0.93376092  1
  Zn  Zn161  1  0.94047197  0.69104333  0.43986575  1
  Zn  Zn162  1  0.93231923  0.68044505  0.93507559  1
  Zn  Zn163  1  0.06902085  0.31233796  0.07105099  1
  Zn  Zn164  1  0.06098218  0.31558823  0.56136421  1
  Zn  Zn165  1  0.07486986  0.80429341  0.06924930  1
  Zn  Zn166  1  0.05740647  0.81987104  0.56678667  1
  Zn  Zn167  1  0.56727825  0.31862746  0.05517005  1
  Zn  Zn168  1  0.56256261  0.31244242  0.56014538  1
  Zn  Zn169  1  0.55521605  0.80479671  0.04775764  1
  Zn  Zn170  1  0.56051101  0.80888338  0.56069928  1
  O  O171  1  0.12188397  0.11452199  0.12177198  1
  O  O172  1  0.12889592  0.11564914  0.61418304  1
  O  O173  1  0.12772315  0.61097747  0.11112098  1
  O  O174  1  0.12349318  0.61461592  0.62832770  1
  O  O175  1  0.62721405  0.11720897  0.11662770  1
  O  O176  1  0.61730594  0.11900310  0.61348503  1
  O  O177  1  0.63354966  0.61387663  0.11550324  1
  O  O178  1  0.61643944  0.61370671  0.61938654  1
  O  O179  1  0.38722322  0.37299224  0.38485690  1
  O  O180  1  0.37716255  0.38733896  0.87153162  1
  O  O181  1  0.38154760  0.87854464  0.38396453  1
  O  O182  1  0.37649813  0.88610888  0.88253120  1
  O  O183  1  0.87384342  0.37063917  0.38927663  1
  O  O184  1  0.87150224  0.38786929  0.87058793  1
  O  O185  1  0.87926319  0.87874343  0.38265911  1
  O  O186  1  0.87974565  0.88187308  0.88242300  1
  O  O187  1  0.25807614  0.00693089  0.37451632  1
  O  O188  1  0.26529628  -0.00066788  0.86971800  1
  O  O189  1  0.24048235  0.51388347  0.36940354  1
  O  O190  1  0.25687774  0.50528075  0.87324517  1
  O  O191  1  0.76092681  -0.00651626  0.36478969  1
  O  O192  1  0.75868345  -0.00214463  0.86694731  1
  O  O193  1  0.74482942  0.49753775  0.36271657  1
  O  O194  1  0.75338204  0.49234120  0.86169616  1
  O  O195  1  0.23206171  0.49039901  0.12062183  1
  O  O196  1  0.24207919  0.49756707  0.62988841  1
  O  O197  1  0.24038610  0.99588324  0.12844401  1
  O  O198  1  0.23832225  0.99067282  0.63053641  1
  O  O199  1  0.74767978  0.49279461  0.13067643  1
  O  O200  1  0.74206690  0.49185633  0.63186969  1
  O  O201  1  0.74469979  0.99160189  0.12940053  1
  O  O202  1  0.74125433  0.99268974  0.62961275  1
  O  O203  1  -0.00528002  0.36225428  0.25432528  1
  O  O204  1  0.01102477  0.36945801  0.74420385  1
  O  O205  1  0.00666236  0.87164711  0.26089452  1
  O  O206  1  0.00512023  0.86495811  0.75892537  1
  O  O207  1  0.50325865  0.37891307  0.26367104  1
  O  O208  1  0.49399350  0.35970602  0.74537254  1
  O  O209  1  0.50279017  0.88708772  0.26285273  1
  O  O210  1  0.50688659  0.86707257  0.74853074  1
  O  O211  1  0.48874230  0.11992011  0.24901708  1
  O  O212  1  0.48840736  0.13370490  0.74219586  1
  O  O213  1  0.48319935  0.60922544  0.26071008  1
  O  O214  1  0.50006672  0.63065399  0.74317666  1
  O  O215  1  0.98872795  0.12957880  0.24420728  1
  O  O216  1  0.99095972  0.13235589  0.75288903  1
  O  O217  1  0.99424405  0.63651214  0.25556895  1
  O  O218  1  0.99766499  0.63795336  0.74885171  1
  O  O219  1  0.36405723  0.24022447  0.00505745  1
  O  O220  1  0.36234841  0.25450882  0.50389518  1
  O  O221  1  0.37747350  0.76208646  -0.01021589  1
  O  O222  1  0.38150448  0.76380798  0.50185870  1
  O  O223  1  0.86462328  0.24959435  0.00710839  1
  O  O224  1  0.86522561  0.25374367  0.50177125  1
  O  O225  1  0.88422003  0.75632742  0.00879377  1
  O  O226  1  0.87896599  0.76386785  0.50975863  1
  O  O227  1  0.13609841  0.24367188  0.50701750  1
  O  O228  1  0.13325216  0.24211808  0.99370890  1
  O  O229  1  0.11136750  0.75162535  0.49105534  1
  O  O230  1  0.11492873  0.73551347  0.98748859  1
  O  O231  1  0.62938451  0.24191648  0.49298610  1
  O  O232  1  0.63879923  0.24267334  1.00199230  1
  O  O233  1  0.62088468  0.73978571  0.49019591  1
  O  O234  1  0.62518396  0.73529157  0.98876299  1
  O  O235  1  0.48748977  0.25092389  0.11186466  1
  O  O236  1  0.49313436  0.24638846  0.63006407  1
  O  O237  1  0.52209275  0.75581846  0.14125667  1
  O  O238  1  0.50830631  0.73815120  0.63604793  1
  O  O239  1  0.99402440  0.24431311  0.13453618  1
  O  O240  1  1.00115407  0.25292601  0.63808231  1
  O  O241  1  0.99412285  0.75689499  0.14069903  1
  O  O242  1  0.98986995  0.75336744  0.63533614  1
  O  O243  1  -0.00168134  0.24894924  0.36205935  1
  O  O244  1  0.01148050  0.25380736  0.86220763  1
  O  O245  1  0.00388707  0.76157219  0.36841512  1
  O  O246  1  0.00316583  0.75344995  0.86953800  1
  O  O247  1  0.50990843  0.25870873  0.38175176  1
  O  O248  1  0.49711047  0.25104867  0.85915713  1
  O  O249  1  0.50636226  0.75567533  0.37597771  1
  O  O250  1  0.51241172  0.75033544  0.86574130  1
  O  O251  1  0.24784013  0.13381061  0.49008041  1
  O  O252  1  0.23759823  0.13377195  1.00624852  1
  O  O253  1  0.24698662  0.62482205  0.48428857  1
  O  O254  1  0.23920894  0.62409760  0.99007789  1
  O  O255  1  0.73833443  0.13302159  0.50461311  1
  O  O256  1  0.74330135  0.13292582  0.99745369  1
  O  O257  1  0.73743819  0.61625177  0.50356320  1
  O  O258  1  0.73857972  0.62010464  1.00050845  1
  O  O259  1  0.24659123  0.35691629  0.00118928  1
  O  O260  1  0.25205284  0.36965811  0.50418412  1
  O  O261  1  0.26692042  0.87700027  -0.00071012  1
  O  O262  1  0.25809209  0.87899919  0.51565808  1
  O  O263  1  0.74719721  0.36855087  0.01299636  1
  O  O264  1  0.75428309  0.37000955  0.50802588  1
  O  O265  1  0.76683541  0.87898415  0.00864802  1
  O  O266  1  0.75541553  0.87780047  0.51346745  1
  O  O267  1  0.12493406  0.50838510  0.24242726  1
  O  O268  1  0.12737069  0.49327382  0.74737341  1
  O  O269  1  0.12470039  0.99498734  0.24437942  1
  O  O270  1  0.12626491  0.99372796  0.74694168  1
  O  O271  1  0.63678135  0.49918041  0.24009569  1
  O  O272  1  0.63443720  0.50085169  0.74216072  1
  O  O273  1  0.63956157  1.00570878  0.24287629  1
  O  O274  1  0.62662585  0.99570480  0.74434950  1
  O  O275  1  0.37328913  0.00556140  0.25675999  1
  O  O276  1  0.37469789  0.00840980  0.75945110  1
  O  O277  1  0.37159520  0.49122822  0.25510200  1
  O  O278  1  0.36713758  0.50280262  0.75823530  1
  O  O279  1  0.86767639  0.00588889  0.25385261  1
  O  O280  1  0.87143588  0.00278419  0.75453691  1
  O  O281  1  0.87039615  0.50951706  0.24332894  1
  O  O282  1  0.86249078  0.50040355  0.75435941  1
  O  O283  1  0.12319863  0.36885606  0.37605233  1
  O  O284  1  0.13285184  0.36456766  0.86375983  1
  O  O285  1  0.11652642  0.87461358  0.37325214  1
  O  O286  1  0.12180424  0.86631431  0.87477208  1
  O  O287  1  0.61863879  0.36500382  0.37382252  1
  O  O288  1  0.61951992  0.36720949  0.87375548  1
  O  O289  1  0.62961921  0.85988359  0.38209297  1
  O  O290  1  0.62478039  0.86701322  0.86915601  1
  O  O291  1  0.37915998  0.13062618  0.13101234  1
  O  O292  1  0.37785772  0.12967986  0.62900593  1
  O  O293  1  0.35415233  0.64260885  0.12037864  1
  O  O294  1  0.38842308  0.61945972  0.62692640  1
  O  O295  1  0.87852667  0.13583660  0.12952623  1
  O  O296  1  0.87248086  0.12317396  0.63459302  1
  O  O297  1  0.87182086  0.63667168  0.13231752  1
  O  O298  1  0.87502455  0.63764175  0.62829647  1
  O  O299  1  0.25998967  0.25158052  0.11188051  1
  O  O300  1  0.25342851  0.25589367  0.61740892  1
  O  O301  1  0.21404412  0.76320345  0.12019760  1
  O  O302  1  0.24285722  0.76381016  0.62965477  1
  O  O303  1  0.75874412  0.25699760  0.11956726  1
  O  O304  1  0.74755519  0.25702645  0.61358606  1
  O  O305  1  0.76066948  0.76028737  0.13113390  1
  O  O306  1  0.75745300  0.75795516  0.63226246  1
  O  O307  1  0.24110447  0.24684475  0.37716804  1
  O  O308  1  0.24326593  0.24926241  0.88663411  1
  O  O309  1  0.23087764  0.76232909  0.38746480  1
  O  O310  1  0.23962795  0.74097950  0.87035660  1
  O  O311  1  0.74049061  0.25451425  0.38824629  1
  O  O312  1  0.75306415  0.24817339  0.88241877  1
  O  O313  1  0.74556378  0.74947623  0.38284240  1
  O  O314  1  0.73899686  0.75218492  0.86597476  1
  O  O315  1  0.01668955  0.11580655  0.00984733  1
  O  O316  1  0.01277547  0.13202972  0.49395991  1
  O  O317  1  0.01237485  0.61822247  -0.00457103  1
  O  O318  1  0.00188297  0.61841478  0.50545883  1
  O  O319  1  0.51536657  0.12342213  0.00141041  1
  O  O320  1  0.50375873  0.11931121  0.50644203  1
  O  O321  1  0.51320339  0.61165707  -0.00184190  1
  O  O322  1  0.50794817  0.61764107  0.50751624  1
  O  O323  1  0.49831381  0.38364168  0.49027442  1
  O  O324  1  0.50643781  0.39723023  0.99795628  1
  O  O325  1  0.48968799  0.88586314  0.51232797  1
  O  O326  1  0.48764900  0.87973097  0.99446678  1
  O  O327  1  0.99114303  0.38177934  0.49779467  1
  O  O328  1  1.00665886  0.36850201  0.99951651  1
  O  O329  1  0.99080540  0.87728581  0.48960011  1
  O  O330  1  0.99256532  0.87954439  0.99871052  1
  O  O331  1  0.49593484  0.50089088  0.37746680  1
  O  O332  1  0.49099020  0.50169163  0.88235214  1
  O  O333  1  0.49447894  1.00553565  0.38998478  1
  O  O334  1  0.48750842  0.99778374  0.87514711  1
  O  O335  1  1.00633355  0.49854744  0.39004403  1
  O  O336  1  0.98746465  0.49605115  0.87206318  1
  O  O337  1  0.98416478  0.99224193  0.36795984  1
  O  O338  1  0.99404290  0.99236742  0.88108722  1
  O  O339  1  0.00455712  0.00566812  0.12134998  1
  O  O340  1  0.01704039  -0.01131168  0.62837300  1
  O  O341  1  0.01810055  0.49603450  0.12265714  1
  O  O342  1  0.00618733  0.50066367  0.61957698  1
  O  O343  1  0.51782137  0.00094111  0.12290077  1
  O  O344  1  0.50337346  0.00575324  0.61785722  1
  O  O345  1  0.51021945  0.50072120  0.11595559  1
  O  O346  1  0.50662273  0.50236720  0.61941582  1
  O  O347  1  0.23997351  0.35645025  0.25967641  1
  O  O348  1  0.24065202  0.37966225  0.74346597  1
  O  O349  1  0.23273748  0.87330345  0.24966403  1
  O  O350  1  0.24384741  0.87588770  0.74199404  1
  O  O351  1  0.74973863  0.37988718  0.23948895  1
  O  O352  1  0.75176920  0.38231402  0.73445037  1
  O  O353  1  0.75740455  0.88459647  0.23845233  1
  O  O354  1  0.74445003  0.88163558  0.73876906  1
  O  O355  1  0.25985642  0.12317863  0.25857647  1
  O  O356  1  0.26402395  0.12757123  0.74450990  1
  O  O357  1  0.25211769  0.65382648  0.27574388  1
  O  O358  1  0.24937081  0.61761173  0.76285445  1
  O  O359  1  0.76364022  0.11566471  0.24289519  1
  O  O360  1  0.75750099  0.11849625  0.74891413  1
  O  O361  1  0.76122504  0.61420192  0.25474696  1
  O  O362  1  0.74903984  0.60664086  0.74386283  1
  O  O363  1  0.36587068  0.12320129  0.36800118  1
  O  O364  1  0.37855467  0.11406108  0.86808668  1
  O  O365  1  0.36667688  0.61878273  0.37832989  1
  O  O366  1  0.36686659  0.61657261  0.87496725  1
  O  O367  1  0.87550753  0.11566800  0.36595592  1
  O  O368  1  0.87307747  0.10879128  0.86292930  1
  O  O369  1  0.87465858  0.63122322  0.36458422  1
  O  O370  1  0.87341429  0.60584670  0.87123605  1
  O  O371  1  0.12998517  0.38434672  0.13574969  1
  O  O372  1  0.12922968  0.38606687  0.63131967  1
  O  O373  1  0.11520290  0.89043775  0.13509250  1
  O  O374  1  0.13395654  0.87963238  0.63026460  1
  O  O375  1  0.63337698  0.38580550  0.12685305  1
  O  O376  1  0.63098821  0.38720989  0.61646219  1
  O  O377  1  0.63650796  0.88024266  0.12007157  1
  O  O378  1  0.63088771  0.87787427  0.62830670  1
  O  O379  1  0.11979075  0.24252812  0.25121340  1
  O  O380  1  0.12027464  0.25441677  0.75615778  1
  O  O381  1  0.11463472  0.75879859  0.26303852  1
  O  O382  1  0.11617568  0.75503706  0.76161467  1
  O  O383  1  0.63266648  0.24704296  0.26274495  1
  O  O384  1  0.60828765  0.24096235  0.74494372  1
  O  O385  1  0.63620416  0.74236674  0.27194925  1
  O  O386  1  0.61836485  0.75372468  0.75555867  1
  O  O387  1  0.37588790  0.23949571  0.23118675  1
  O  O388  1  0.38029736  0.24472913  0.74443595  1
  O  O389  1  0.39266816  0.76815636  0.26076305  1
  O  O390  1  0.38924948  0.74865140  0.75801334  1
  O  O391  1  0.87881706  0.24233536  0.24488865  1
  O  O392  1  0.88237759  0.23976611  0.74733905  1
  O  O393  1  0.88153648  0.74365972  0.24429594  1
  O  O394  1  0.88115313  0.75033329  0.74377988  1
  O  O395  1  0.38827301  0.49504615  0.50556288  1
  O  O396  1  0.38693629  0.50479299  0.99513866  1
  O  O397  1  0.38007301  0.99394087  0.49603581  1
  O  O398  1  0.37710843  0.99807991  0.99012336  1
  O  O399  1  0.88368076  0.49208099  0.50677661  1
  O  O400  1  0.87933097  0.50041318  0.98750457  1
  O  O401  1  0.86836743  0.98906153  0.49115315  1
  O  O402  1  0.88012358  0.99547237  0.99310900  1
  O  O403  1  0.12424926  0.00345216  0.00572790  1
  O  O404  1  0.12833474  0.01070102  0.50883377  1
  O  O405  1  0.12122779  0.50977385  -0.00570713  1
  O  O406  1  0.11617299  0.50316088  0.51217971  1
  O  O407  1  0.62953898  0.00743661  0.00628274  1
  O  O408  1  0.61757704  0.00550423  0.50290704  1
  O  O409  1  0.62189398  0.51002148  0.00450431  1
  O  O410  1  0.61372071  0.50594553  0.50475831  1
  O  O411  1  0.36999526  0.36001823  0.12954444  1
  O  O412  1  0.36765803  0.36963158  0.61810831  1
  O  O413  1  0.37315338  0.87911589  0.10816114  1
  O  O414  1  0.35990784  0.87879791  0.62272380  1
  O  O415  1  0.86960720  0.36291111  0.12963766  1
  O  O416  1  0.86573272  0.36990920  0.61450899  1
  O  O417  1  0.87231807  0.86595516  0.11850487  1
  O  O418  1  0.86743890  0.86958990  0.61983326  1
  O  O419  1  0.13662109  0.11728354  0.38203898  1
  O  O420  1  0.12233214  0.13398376  0.88324610  1
  O  O421  1  0.13271515  0.63823571  0.38048522  1
  O  O422  1  0.13079847  0.62935586  0.88222112  1
  O  O423  1  0.61888100  0.13035830  0.38625010  1
  O  O424  1  0.62851396  0.13061884  0.88122152  1
  O  O425  1  0.63241181  0.63463368  0.38692517  1
  O  O426  1  0.62731464  0.62926056  0.88536612  1
