# generated using pymatgen
data_V85Zn86O256
_symmetry_space_group_name_H-M   'P 1'
_cell_length_a   16.95599634
_cell_length_b   16.94993170
_cell_length_c   16.95063437
_cell_angle_alpha   89.99230716
_cell_angle_beta   89.94956258
_cell_angle_gamma   90.03383656
_symmetry_Int_Tables_number   1
_chemical_formula_structural   V85Zn86O256
_chemical_formula_sum   'V85 Zn86 O256'
_cell_volume   4871.66004762
_cell_formula_units_Z   1
loop_
 _symmetry_equiv_pos_site_id
 _symmetry_equiv_pos_as_xyz
  1  'x, y, z'
loop_
 _atom_site_type_symbol
 _atom_site_label
 _atom_site_symmetry_multiplicity
 _atom_site_fract_x
 _atom_site_fract_y
 _atom_site_fract_z
 _atom_site_occupancy
  V  V0  1  0.87297008  0.87281423  0.00342132  1
  V  V1  1  0.62248266  0.13206142  0.50968528  1
  V  V2  1  0.87721855  0.12072938  0.25647718  1
  V  V3  1  0.74683145  0.37651948  0.13877684  1
  V  V4  1  0.00038015  0.50487706  0.48939970  1
  V  V5  1  0.75127063  0.74798485  0.00585433  1
  V  V6  1  0.37976122  0.51835167  0.87558669  1
  V  V7  1  0.62766675  0.74812240  0.87571587  1
  V  V8  1  0.18844149  0.57705717  0.93606464  1
  V  V9  1  0.87121037  0.87921141  0.48828883  1
  V  V10  1  0.25137337  0.87540535  0.62399053  1
  V  V11  1  0.13211957  0.25368803  0.37473486  1
  V  V12  1  0.01990981  0.87277805  0.37882139  1
  V  V13  1  0.12547002  0.12312035  0.00385439  1
  V  V14  1  0.37914636  0.25221283  0.12699125  1
  V  V15  1  0.74950918  0.00367051  0.74990032  1
  V  V16  1  0.37296580  0.74835403  0.62878480  1
  V  V17  1  -0.00543680  0.00432410  0.49767366  1
  V  V18  1  0.12883734  0.12954792  0.50214258  1
  V  V19  1  0.62780920  0.62042401  0.00262819  1
  V  V20  1  0.25285417  -0.00190476  0.75021692  1
  V  V21  1  0.00265091  0.12020865  0.12998052  1
  V  V22  1  0.37529586  0.25466381  0.62150015  1
  V  V23  1  0.12808959  0.38453609  0.24664269  1
  V  V24  1  0.75170916  0.25770487  0.50682107  1
  V  V25  1  0.01681865  0.75581607  0.25039489  1
  V  V26  1  0.31432508  0.56632599  0.69939677  1
  V  V27  1  0.61924804  0.87592229  0.26068902  1
  V  V28  1  0.38137221  0.12489314  0.74097065  1
  V  V29  1  0.75778464  -0.00227199  0.25652688  1
  V  V30  1  0.37665951  0.37598902  0.49857527  1
  V  V31  1  0.50104654  0.87396223  0.87653874  1
  V  V32  1  0.38227471  0.87395400  0.49728720  1
  V  V33  1  0.62163851  0.37735074  0.74837314  1
  V  V34  1  0.12564681  -0.01005486  0.13421197  1
  V  V35  1  0.38281139  -0.00273163  0.37320134  1
  V  V36  1  0.51418074  0.61958700  0.62019018  1
  V  V37  1  0.00458419  0.24829746  0.25129948  1
  V  V38  1  0.50539161  0.49447200  -0.00418949  1
  V  V39  1  0.00121251  0.62543129  0.61951462  1
  V  V40  1  0.38402338  0.12983947  0.25108579  1
  V  V41  1  0.62619931  0.00598213  0.12491065  1
  V  V42  1  0.24681471  0.87340012  0.13296007  1
  V  V43  1  0.25057458  0.12508283  0.87591991  1
  V  V44  1  0.12809580  0.63361432  0.49039366  1
  V  V45  1  0.37374428  0.50265413  0.35689710  1
  V  V46  1  0.87375747  0.75294255  0.62226817  1
  V  V47  1  0.87557039  0.24748705  0.12550365  1
  V  V48  1  0.75122242  0.87126623  0.12892714  1
  V  V49  1  -0.00634929  0.37308504  0.86912295  1
  V  V50  1  0.62152412  0.25133340  0.88613977  1
  V  V51  1  0.49868120  0.62305462  0.13112001  1
  V  V52  1  0.49820843  0.74099374  0.75249010  1
  V  V53  1  0.49737947  0.75223129  0.25696953  1
  V  V54  1  0.61823173  0.00368684  0.62671319  1
  V  V55  1  0.37541642  0.74649891  0.12844411  1
  V  V56  1  0.50051144  0.00462337  0.50100264  1
  V  V57  1  0.12492714  0.74691260  0.87499008  1
  V  V58  1  0.86570078  0.49818204  0.36113326  1
  V  V59  1  0.75570539  0.49068247  0.74590355  1
  V  V60  1  0.75374347  0.12411816  0.37954018  1
  V  V61  1  -0.00051993  0.87443373  0.87302500  1
  V  V62  1  0.87259229  0.00076361  0.87399847  1
  V  V63  1  -0.00825418  0.13513559  0.62804353  1
  V  V64  1  0.87736432  0.38582761  0.00734554  1
  V  V65  1  0.87028621  0.64029024  0.24527026  1
  V  V66  1  0.37611596  0.37321606  -0.01295709  1
  V  V67  1  0.50504650  0.01125874  0.00087307  1
  V  V68  1  0.00057068  -0.00682576  0.00341146  1
  V  V69  1  0.62842630  0.49577472  0.14007004  1
  V  V70  1  0.10932859  0.24312176  0.86485173  1
  V  V71  1  0.25173514  0.62868257  0.35673196  1
  V  V72  1  0.37787295  0.87654203  0.00137344  1
  V  V73  1  0.37778202  0.00125274  0.87561338  1
  V  V74  1  0.25482544  0.12811377  0.37785059  1
  V  V75  1  0.87336100  0.62400373  0.74856393  1
  V  V76  1  0.12410852  0.87593474  0.74815223  1
  V  V77  1  0.25000012  0.38117245  0.12276058  1
  V  V78  1  0.87200895  0.37855524  0.51296504  1
  V  V79  1  0.74951196  0.87717414  0.62345155  1
  V  V80  1  0.74191566  0.74041155  0.49749952  1
  V  V81  1  0.50334849  0.37106833  0.35803056  1
  V  V82  1  0.50588400  0.24853426  0.74821213  1
  V  V83  1  0.25162233  0.75174520  -0.00659027  1
  V  V84  1  0.62284924  0.25173723  0.36250771  1
  Zn  Zn85  1  0.50749160  0.50194532  0.49013020  1
  Zn  Zn86  1  0.24964987  -0.00194359  0.25360294  1
  Zn  Zn87  1  0.12392289  0.00236518  0.62420964  1
  Zn  Zn88  1  0.74065109  0.12140784  0.88747190  1
  Zn  Zn89  1  0.87741935  0.50284774  0.87908781  1
  Zn  Zn90  1  0.14158616  0.37104616  0.73062075  1
  Zn  Zn91  1  0.21341173  0.30985571  0.55550539  1
  Zn  Zn92  1  -0.00065287  0.60791293  0.10496783  1
  Zn  Zn93  1  -0.00230590  0.75091565  0.74626013  1
  Zn  Zn94  1  0.00015506  0.37546531  0.37180656  1
  Zn  Zn95  1  0.75264361  0.62045599  0.87707520  1
  Zn  Zn96  1  0.62485749  0.87355478  0.74951228  1
  Zn  Zn97  1  0.13755354  0.49389959  0.61843414  1
  Zn  Zn98  1  0.50622354  0.13336682  0.12733881  1
  Zn  Zn99  1  0.88655726  0.14159646  0.75821725  1
  Zn  Zn100  1  0.24991187  0.24810064  0.00021832  1
  Zn  Zn101  1  0.61341291  0.74637914  0.38380958  1
  Zn  Zn102  1  0.12389497  0.50489444  0.11355082  1
  Zn  Zn103  1  0.73825947  0.61789347  0.37002164  1
  Zn  Zn104  1  0.63777576  0.49228013  0.61310938  1
  Zn  Zn105  1  0.24831915  0.75366009  0.49181849  1
  Zn  Zn106  1  0.74467993  0.24360734  0.00554073  1
  Zn  Zn107  1  0.19559459  0.18948660  0.18944670  1
  Zn  Zn108  1  0.18816238  0.18391323  0.68982818  1
  Zn  Zn109  1  0.18259228  0.68549945  0.18006138  1
  Zn  Zn110  1  0.18070850  0.69118526  0.68000373  1
  Zn  Zn111  1  0.69236497  0.18469045  0.18742552  1
  Zn  Zn112  1  0.72455123  0.21247448  0.71088457  1
  Zn  Zn113  1  0.68331729  0.68723097  0.19178170  1
  Zn  Zn114  1  0.69091829  0.68707664  0.68898442  1
  Zn  Zn115  1  0.31256938  0.31533293  0.30949966  1
  Zn  Zn116  1  0.31392465  0.31038372  0.80833042  1
  Zn  Zn117  1  0.31396157  0.81260878  0.31190826  1
  Zn  Zn118  1  0.31412006  0.80926562  0.81208289  1
  Zn  Zn119  1  0.81450725  0.30970576  0.31699614  1
  Zn  Zn120  1  0.81044117  0.31338819  0.82050759  1
  Zn  Zn121  1  0.81057700  0.81240838  0.31634364  1
  Zn  Zn122  1  0.81061358  0.81320447  0.81149034  1
  Zn  Zn123  1  0.18957102  0.44557892  0.42988698  1
  Zn  Zn124  1  0.20383276  0.41031216  0.90275711  1
  Zn  Zn125  1  0.19412905  0.94570597  0.44292486  1
  Zn  Zn126  1  0.18743621  0.93514284  0.94068997  1
  Zn  Zn127  1  0.68487575  0.43723268  0.43432070  1
  Zn  Zn128  1  0.69320315  0.43123947  0.93550811  1
  Zn  Zn129  1  0.68521517  0.93815348  0.43854069  1
  Zn  Zn130  1  0.68585338  0.93623654  0.93997590  1
  Zn  Zn131  1  0.31438043  0.06229564  0.06542585  1
  Zn  Zn132  1  0.31261976  0.06348317  0.56202594  1
  Zn  Zn133  1  0.31709772  0.55986563  0.06748455  1
  Zn  Zn134  1  0.31659710  0.56055596  0.53615320  1
  Zn  Zn135  1  0.81118141  0.06187192  0.06439374  1
  Zn  Zn136  1  0.81108141  0.06387018  0.56266495  1
  Zn  Zn137  1  0.81179613  0.56260227  0.07275643  1
  Zn  Zn138  1  0.81542348  0.55957290  0.56211002  1
  Zn  Zn139  1  0.43810331  0.43538566  0.18237790  1
  Zn  Zn140  1  0.44373948  0.43140571  0.68692547  1
  Zn  Zn141  1  0.43757048  0.93830654  0.18741115  1
  Zn  Zn142  1  0.44131731  0.93345647  0.68916197  1
  Zn  Zn143  1  0.94550387  0.43968448  0.18614538  1
  Zn  Zn144  1  0.96124111  0.44574697  0.69402147  1
  Zn  Zn145  1  0.93955186  0.92517193  0.19117572  1
  Zn  Zn146  1  0.93649774  0.94268196  0.68326646  1
  Zn  Zn147  1  0.06503549  0.05925783  0.31745711  1
  Zn  Zn148  1  0.06086494  0.05972841  0.81108705  1
  Zn  Zn149  1  0.06240687  0.57110317  0.30468010  1
  Zn  Zn150  1  0.05764972  0.55105233  0.80232101  1
  Zn  Zn151  1  0.56620054  0.06502948  0.31535332  1
  Zn  Zn152  1  0.56448789  0.06697757  0.81189441  1
  Zn  Zn153  1  0.56136491  0.56560285  0.31545002  1
  Zn  Zn154  1  0.56502535  0.56111354  0.81148487  1
  Zn  Zn155  1  0.44142243  0.19154417  0.43960279  1
  Zn  Zn156  1  0.44054092  0.19085496  0.93280516  1
  Zn  Zn157  1  0.43249053  0.68485572  0.43838575  1
  Zn  Zn158  1  0.44197370  0.68598270  0.94496196  1
  Zn  Zn159  1  0.93778931  0.19319770  0.44007898  1
  Zn  Zn160  1  0.93390563  0.18219284  0.94536562  1
  Zn  Zn161  1  0.93232248  0.69025943  0.43010097  1
  Zn  Zn162  1  0.93624671  0.68657495  0.93399435  1
  Zn  Zn163  1  0.06162468  0.31359719  0.06007274  1
  Zn  Zn164  1  0.04877348  0.31637736  0.56116205  1
  Zn  Zn165  1  0.04660888  0.77900187  0.05250329  1
  Zn  Zn166  1  0.06206105  0.81285612  0.55983376  1
  Zn  Zn167  1  0.55978449  0.31750107  0.06873777  1
  Zn  Zn168  1  0.56019203  0.31567226  0.56088085  1
  Zn  Zn169  1  0.56518893  0.81582183  0.06656577  1
  Zn  Zn170  1  0.56074397  0.81413035  0.56645538  1
  O  O171  1  0.12418231  0.11739776  0.11950982  1
  O  O172  1  0.11844753  0.12578324  0.61672647  1
  O  O173  1  0.11401234  0.61799268  0.12920227  1
  O  O174  1  0.11564754  0.62164115  0.61421106  1
  O  O175  1  0.62325381  0.11093621  0.13298883  1
  O  O176  1  0.63175352  0.11763299  0.61197897  1
  O  O177  1  0.62078231  0.61558388  0.12101784  1
  O  O178  1  0.61535902  0.62422054  0.62731288  1
  O  O179  1  0.38376348  0.38169842  0.37361844  1
  O  O180  1  0.37424926  0.38633050  0.88524751  1
  O  O181  1  0.37075938  0.88483425  0.38483818  1
  O  O182  1  0.38135635  0.88118582  0.87965488  1
  O  O183  1  0.87917713  0.38894994  0.37268806  1
  O  O184  1  0.87862901  0.37212626  0.89217994  1
  O  O185  1  0.87848993  0.87599141  0.38694531  1
  O  O186  1  0.87839749  0.88365743  0.87927871  1
  O  O187  1  0.26358721  0.00917013  0.37496399  1
  O  O188  1  0.25515438  0.00689730  0.87159323  1
  O  O189  1  0.26542334  0.51135890  0.37291537  1
  O  O190  1  0.25730763  0.52040748  0.88498632  1
  O  O191  1  0.74383285  0.01043129  0.36806396  1
  O  O192  1  0.75628231  -0.00408659  0.86991759  1
  O  O193  1  0.76273717  0.49980448  0.37189341  1
  O  O194  1  0.75572143  0.50169418  0.86391270  1
  O  O195  1  0.24626566  0.48545453  0.11755573  1
  O  O196  1  0.25890819  0.51278057  0.63109537  1
  O  O197  1  0.24386557  0.99060413  0.12496143  1
  O  O198  1  0.24848954  0.99420680  0.63217973  1
  O  O199  1  0.74276155  0.48578919  0.12460882  1
  O  O200  1  0.75080928  0.50726059  0.64041287  1
  O  O201  1  0.74307573  0.99365366  0.13563187  1
  O  O202  1  0.74081579  0.99752515  0.63121590  1
  O  O203  1  0.00914233  0.36348907  0.25091283  1
  O  O204  1  -0.01884756  0.35874211  0.77055152  1
  O  O205  1  0.00054393  0.87439109  0.27415514  1
  O  O206  1  0.00857085  0.87681694  0.75271434  1
  O  O207  1  0.49663005  0.37178559  0.25906976  1
  O  O208  1  0.51288960  0.36833331  0.75370545  1
  O  O209  1  0.50877838  0.86632543  0.24258009  1
  O  O210  1  0.50258959  0.86099385  0.75756064  1
  O  O211  1  0.48761440  0.12036951  0.24986903  1
  O  O212  1  0.49091467  0.13311753  0.75214562  1
  O  O213  1  0.50260865  0.63448525  0.23624483  1
  O  O214  1  0.50362456  0.63537725  0.74106570  1
  O  O215  1  0.99666678  0.12661773  0.24913096  1
  O  O216  1  1.00009723  0.11820012  0.73374663  1
  O  O217  1  0.99204137  0.64711451  0.25504710  1
  O  O218  1  0.98976344  0.62559140  0.73694450  1
  O  O219  1  0.37595580  0.25845682  0.00234999  1
  O  O220  1  0.37875355  0.25713338  0.51058298  1
  O  O221  1  0.37045756  0.75490445  0.00784021  1
  O  O222  1  0.37621887  0.75779339  0.51149044  1
  O  O223  1  0.87517189  0.25153032  0.01820468  1
  O  O224  1  0.86921274  0.27001859  0.49333845  1
  O  O225  1  0.85604706  0.75892258  -0.00906332  1
  O  O226  1  0.86538272  0.75877909  0.50390796  1
  O  O227  1  0.12742052  0.24409383  0.49372052  1
  O  O228  1  0.12334518  0.23265545  0.99538880  1
  O  O229  1  0.12728467  0.73764603  0.50140568  1
  O  O230  1  0.13791042  0.75977252  0.98147396  1
  O  O231  1  0.62855612  0.24625494  0.49164198  1
  O  O232  1  0.61703786  0.25750182  0.98895425  1
  O  O233  1  0.63810458  0.75755293  0.50216394  1
  O  O234  1  0.63216185  0.74528246  0.99529278  1
  O  O235  1  0.48565491  0.24944482  0.12197723  1
  O  O236  1  0.49009286  0.25378414  0.63827055  1
  O  O237  1  0.49359921  0.74347182  0.12771969  1
  O  O238  1  0.49419264  0.73946862  0.63195020  1
  O  O239  1  0.99529654  0.24080646  0.13156684  1
  O  O240  1  0.99702387  0.23400235  0.61957775  1
  O  O241  1  0.99717655  0.78501131  0.15527489  1
  O  O242  1  0.99430231  0.74106611  0.62313682  1
  O  O243  1  0.01466936  0.24949957  0.37036973  1
  O  O244  1  0.00132190  0.24728426  0.87903874  1
  O  O245  1  -0.00046216  0.76653751  0.37189716  1
  O  O246  1  0.00964343  0.75748211  0.86609985  1
  O  O247  1  0.50693623  0.26198309  0.37435720  1
  O  O248  1  0.50924630  0.25010613  0.86172497  1
  O  O249  1  0.49203773  0.74675446  0.36081101  1
  O  O250  1  0.50595693  0.75104527  0.87016825  1
  O  O251  1  0.24380338  0.12235220  0.48862228  1
  O  O252  1  0.24243401  0.12149355  0.99329816  1
  O  O253  1  0.24200828  0.62880825  0.48841901  1
  O  O254  1  0.24590343  0.63345426  1.00454208  1
  O  O255  1  0.74618218  0.13260712  0.49366252  1
  O  O256  1  0.75166200  0.12890993  1.00099708  1
  O  O257  1  0.75536134  0.63920752  0.50004151  1
  O  O258  1  0.74675352  0.63157523  1.00211473  1
  O  O259  1  0.25932791  0.36906762  0.00095830  1
  O  O260  1  0.26849908  0.38000587  0.48651057  1
  O  O261  1  0.25855812  0.86758340  0.00572326  1
  O  O262  1  0.26231499  0.87566051  0.50702891  1
  O  O263  1  0.76378639  0.36760852  0.01032859  1
  O  O264  1  0.76405758  0.37272804  0.49513071  1
  O  O265  1  0.75079221  0.86878502  0.01051735  1
  O  O266  1  0.75608281  0.87218990  0.50489088  1
  O  O267  1  0.11972840  0.48556514  0.25183227  1
  O  O268  1  0.08386934  0.47624297  0.72214780  1
  O  O269  1  0.12915476  1.00391887  0.23851701  1
  O  O270  1  0.13162009  0.98840855  0.74976819  1
  O  O271  1  0.61910211  0.50006268  0.23838784  1
  O  O272  1  0.63222667  0.48939991  0.75051662  1
  O  O273  1  0.63211707  0.99326356  0.24663489  1
  O  O274  1  0.62774587  0.99646637  0.74275928  1
  O  O275  1  0.37376603  0.00570105  0.25821818  1
  O  O276  1  0.37473669  0.00625163  0.75547116  1
  O  O277  1  0.37586141  0.49765636  0.25773579  1
  O  O278  1  0.37471218  0.50201480  0.75625917  1
  O  O279  1  0.86329710  0.00039604  0.24809126  1
  O  O280  1  0.86707143  0.00071938  0.75821983  1
  O  O281  1  0.88469085  0.51043165  0.25984923  1
  O  O282  1  0.87246953  0.50703942  0.75025875  1
  O  O283  1  0.12666797  0.36875668  0.36712617  1
  O  O284  1  0.10029364  0.35545768  0.88918354  1
  O  O285  1  0.11856049  0.87651519  0.38733969  1
  O  O286  1  0.12215928  0.86873824  0.86671982  1
  O  O287  1  0.61153948  0.36764002  0.37312267  1
  O  O288  1  0.62716956  0.36299115  0.86433475  1
  O  O289  1  0.62532720  0.87123401  0.36417034  1
  O  O290  1  0.61906919  0.86260006  0.87610148  1
  O  O291  1  0.37481653  0.13275457  0.13414930  1
  O  O292  1  0.37242690  0.12934850  0.63676326  1
  O  O293  1  0.38539593  0.63446264  0.11947677  1
  O  O294  1  0.37271556  0.62607617  0.63131380  1
  O  O295  1  0.88181444  0.12937961  0.13547029  1
  O  O296  1  0.88963704  0.11942730  0.62491996  1
  O  O297  1  0.88174589  0.62175687  0.14237232  1
  O  O298  1  0.88026545  0.63393946  0.62812993  1
  O  O299  1  0.26134093  0.25668975  0.11915420  1
  O  O300  1  0.26702525  0.24679874  0.63333048  1
  O  O301  1  0.25618746  0.75531957  0.11581579  1
  O  O302  1  0.25847946  0.75647814  0.62206349  1
  O  O303  1  0.75782331  0.25838226  0.12771976  1
  O  O304  1  0.74044877  0.25062450  0.60462272  1
  O  O305  1  0.74128991  0.75923147  0.11781313  1
  O  O306  1  0.75277517  0.75627287  0.61570847  1
  O  O307  1  0.24024076  0.24350102  0.37042189  1
  O  O308  1  0.24264548  0.23302033  0.87813146  1
  O  O309  1  0.26380398  0.73334506  0.37624243  1
  O  O310  1  0.24751945  0.75058000  0.88529691  1
  O  O311  1  0.74235887  0.24463077  0.38220100  1
  O  O312  1  0.73290812  0.24840283  0.88367296  1
  O  O313  1  0.74829440  0.75142787  0.39159952  1
  O  O314  1  0.74031938  0.74885076  0.88162661  1
  O  O315  1  0.00613514  0.11300326  0.01064245  1
  O  O316  1  0.00572328  0.12084453  0.50464412  1
  O  O317  1  0.00440437  0.67779306  0.01732987  1
  O  O318  1  0.00538214  0.62421954  0.49743936  1
  O  O319  1  0.49465393  0.11368372  0.00235563  1
  O  O320  1  0.51033387  0.11828066  0.49697168  1
  O  O321  1  0.50842342  0.61652406  0.01156598  1
  O  O322  1  0.49338033  0.62612527  0.51836656  1
  O  O323  1  0.48917332  0.37409249  0.48710830  1
  O  O324  1  0.49181579  0.38875711  1.00647150  1
  O  O325  1  0.48840256  0.88295757  0.50621983  1
  O  O326  1  0.49573327  0.88091614  0.99543343  1
  O  O327  1  0.98920811  0.38647753  0.49171503  1
  O  O328  1  0.98051263  0.36472975  0.99605346  1
  O  O329  1  0.99381891  0.88160558  0.49354236  1
  O  O330  1  0.99315411  0.87500146  0.99318814  1
  O  O331  1  0.49076693  0.48993025  0.36862359  1
  O  O332  1  0.49399632  0.50656076  0.88468339  1
  O  O333  1  0.48916227  1.00465135  0.38116108  1
  O  O334  1  0.49881553  0.99554082  0.88212241  1
  O  O335  1  0.99211585  0.50503148  0.38004845  1
  O  O336  1  0.99523152  0.47883514  0.87350187  1
  O  O337  1  1.00508214  0.99014713  0.38866492  1
  O  O338  1  0.99309640  0.99327182  0.88091002  1
  O  O339  1  0.00781997  -0.00174052  0.12384525  1
  O  O340  1  0.00452937  0.00543686  0.61129896  1
  O  O341  1  0.00859417  0.49425234  0.11441516  1
  O  O342  1  -0.01271207  0.51770284  0.60249114  1
  O  O343  1  0.50793533  0.00099699  0.11718626  1
  O  O344  1  0.51211872  -0.00249627  0.62227940  1
  O  O345  1  0.50632737  0.50581021  0.11864070  1
  O  O346  1  0.50074984  0.51578047  0.62980233  1
  O  O347  1  0.24062401  0.36904450  0.23622056  1
  O  O348  1  0.23342807  0.38359822  0.79373254  1
  O  O349  1  0.25313875  0.87590849  0.23679831  1
  O  O350  1  0.24481415  0.87909832  0.74557406  1
  O  O351  1  0.75752462  0.37130891  0.23705479  1
  O  O352  1  0.73830702  0.38247115  0.75404780  1
  O  O353  1  0.74388163  0.87987307  0.24750784  1
  O  O354  1  0.74752639  0.88471524  0.74285896  1
  O  O355  1  0.25983284  0.12214410  0.26256363  1
  O  O356  1  0.25674486  0.11655014  0.75813932  1
  O  O357  1  0.25152146  0.63108057  0.25821828  1
  O  O358  1  0.25136532  0.62578135  0.74751446  1
  O  O359  1  0.75707938  0.11628681  0.25843687  1
  O  O360  1  0.74166096  0.10647747  0.75998654  1
  O  O361  1  0.76540541  0.63302984  0.25050401  1
  O  O362  1  0.76251764  0.62118743  0.75182648  1
  O  O363  1  0.37097979  0.12300679  0.37159399  1
  O  O364  1  0.36764367  0.12047357  0.86766824  1
  O  O365  1  0.36872932  0.61089373  0.37567404  1
  O  O366  1  0.38074760  0.61839430  0.87579792  1
  O  O367  1  0.86285066  0.13235213  0.37230522  1
  O  O368  1  0.87552083  0.10991199  0.87519032  1
  O  O369  1  0.87007349  0.61576257  0.36415484  1
  O  O370  1  0.87606192  0.62377054  0.86369707  1
  O  O371  1  0.13380923  0.37183246  0.12897854  1
  O  O372  1  0.13359056  0.37158112  0.61380683  1
  O  O373  1  0.13608211  0.88411884  0.11325931  1
  O  O374  1  0.13073027  0.87530921  0.63169718  1
  O  O375  1  0.63918771  0.37898429  0.12440859  1
  O  O376  1  0.61978504  0.37560974  0.64190844  1
  O  O377  1  0.63439211  0.88494392  0.13432073  1
  O  O378  1  0.63157603  0.88512286  0.62597309  1
  O  O379  1  0.12225687  0.25337925  0.25654651  1
  O  O380  1  0.12577643  0.24989384  0.76218768  1
  O  O381  1  0.11585159  0.75158963  0.25289386  1
  O  O382  1  0.12643540  0.76057245  0.75717060  1
  O  O383  1  0.62830541  0.24059394  0.26358583  1
  O  O384  1  0.62296039  0.25909090  0.75366843  1
  O  O385  1  0.61351707  0.76060186  0.24806085  1
  O  O386  1  0.61969278  0.75009262  0.75926093  1
  O  O387  1  0.36996429  0.24165071  0.24031265  1
  O  O388  1  0.38441859  0.24392832  0.74788453  1
  O  O389  1  0.38217415  0.75746911  0.23482289  1
  O  O390  1  0.38316263  0.75326208  0.73822526  1
  O  O391  1  0.88306047  0.24382879  0.24341139  1
  O  O392  1  0.83245528  0.23707542  0.74394248  1
  O  O393  1  0.87949956  0.74232928  0.25735044  1
  O  O394  1  0.87435901  0.74410546  0.74140675  1
  O  O395  1  0.38726130  0.49118871  0.48494511  1
  O  O396  1  0.38381506  0.49705161  0.99216878  1
  O  O397  1  0.38169674  0.99534073  0.49546233  1
  O  O398  1  0.38327625  0.99605482  0.99482849  1
  O  O399  1  0.87822614  0.49454832  0.48576343  1
  O  O400  1  0.87024765  0.48866950  1.00203108  1
  O  O401  1  0.88244749  0.99212234  0.50417513  1
  O  O402  1  0.88051617  0.99174330  0.99461717  1
  O  O403  1  0.12005123  0.00698852  0.00641734  1
  O  O404  1  0.11959706  0.01543937  0.50093895  1
  O  O405  1  0.13880678  0.50460812  -0.01787223  1
  O  O406  1  0.11662682  0.50972753  0.49881714  1
  O  O407  1  0.61607058  -0.00664913  0.01139283  1
  O  O408  1  0.61967163  0.00687022  0.50670327  1
  O  O409  1  0.62078224  0.50091594  0.00353031  1
  O  O410  1  0.61912610  0.49415893  0.50273103  1
  O  O411  1  0.36843435  0.37017781  0.11557538  1
  O  O412  1  0.37868186  0.36875250  0.61410926  1
  O  O413  1  0.36824790  0.86950625  0.11834252  1
  O  O414  1  0.37210414  0.86685343  0.62066814  1
  O  O415  1  0.86905663  0.36893349  0.12177918  1
  O  O416  1  0.88495445  0.38698969  0.60966544  1
  O  O417  1  0.85866293  0.88076773  0.12052915  1
  O  O418  1  0.86952221  0.87090543  0.61694201  1
  O  O419  1  0.13394200  0.13147712  0.38175543  1
  O  O420  1  0.12897364  0.12467644  0.88176646  1
  O  O421  1  0.14211128  0.61851913  0.37640607  1
  O  O422  1  0.12249424  0.62724626  0.86893300  1
  O  O423  1  0.63453552  0.13155453  0.38453394  1
  O  O424  1  0.62227046  0.14475100  0.87167492  1
  O  O425  1  0.62710666  0.63455137  0.36988504  1
  O  O426  1  0.62651244  0.63461925  0.88230856  1
