# generated using pymatgen
data_V85Zn86O256
_symmetry_space_group_name_H-M   'P 1'
_cell_length_a   16.93509060
_cell_length_b   16.94038907
_cell_length_c   16.92781862
_cell_angle_alpha   90.04251146
_cell_angle_beta   89.96667848
_cell_angle_gamma   89.99045789
_symmetry_Int_Tables_number   1
_chemical_formula_structural   V85Zn86O256
_chemical_formula_sum   'V85 Zn86 O256'
_cell_volume   4856.36927728
_cell_formula_units_Z   1
loop_
 _symmetry_equiv_pos_site_id
 _symmetry_equiv_pos_as_xyz
  1  'x, y, z'
loop_
 _atom_site_type_symbol
 _atom_site_label
 _atom_site_symmetry_multiplicity
 _atom_site_fract_x
 _atom_site_fract_y
 _atom_site_fract_z
 _atom_site_occupancy
  V  V0  1  0.37359375  0.50196674  0.37466478  1
  V  V1  1  0.49586957  0.62686149  0.12545364  1
  V  V2  1  0.24881355  0.37843635  0.63080113  1
  V  V3  1  -0.00331767  0.62677829  0.12391481  1
  V  V4  1  0.76115032  0.87163671  0.13102281  1
  V  V5  1  0.75054194  0.11834717  0.36822416  1
  V  V6  1  0.37143176  0.49878252  0.86506598  1
  V  V7  1  0.87959983  0.64081758  0.75495273  1
  V  V8  1  -0.00677464  0.48390298  0.50000140  1
  V  V9  1  0.12498450  0.25446880  0.87331064  1
  V  V10  1  0.12498241  0.12538434  0.00054056  1
  V  V11  1  0.24820459  0.61961807  0.87416210  1
  V  V12  1  0.25218207  0.00353903  0.24380940  1
  V  V13  1  -0.01367222  0.49439221  -0.00356325  1
  V  V14  1  -0.01013204  0.63577240  0.62237800  1
  V  V15  1  0.12126066  0.49753092  0.62876774  1
  V  V16  1  0.63089153  0.87802166  0.25417386  1
  V  V17  1  0.50418426  0.51203544  0.50079833  1
  V  V18  1  0.62281561  0.50007733  0.12324369  1
  V  V19  1  0.62618409  0.12766899  0.50022437  1
  V  V20  1  0.76748985  0.25534689  0.50207103  1
  V  V21  1  0.62627214  0.25301428  0.37631058  1
  V  V22  1  0.12140361  0.75239500  0.87653368  1
  V  V23  1  0.00240239  0.26232436  0.25533691  1
  V  V24  1  0.62876591  -0.00070509  0.13086834  1
  V  V25  1  0.37399353  -0.00548085  0.87610746  1
  V  V26  1  0.37439325  0.37635275  0.50143683  1
  V  V27  1  0.87106732  0.12382928  0.74841146  1
  V  V28  1  0.25238968  0.25100172  0.00216719  1
  V  V29  1  0.00006234  -0.00437361  0.00078131  1
  V  V30  1  0.24241702  0.49406492  0.25327266  1
  V  V31  1  -0.00194001  0.11535576  0.61538415  1
  V  V32  1  0.37584278  0.63721838  0.74451092  1
  V  V33  1  0.18291631  0.82237343  0.69253819  1
  V  V34  1  0.13091166  0.11639096  0.48930628  1
  V  V35  1  0.87617502  0.88195698  0.50554379  1
  V  V36  1  -0.00121662  0.88501712  0.37487403  1
  V  V37  1  0.49553831  0.50058099  -0.00189243  1
  V  V38  1  0.75677490  0.24952141  -0.00682996  1
  V  V39  1  0.12430016  0.75042723  0.37685836  1
  V  V40  1  0.87652269  0.48572860  0.37817869  1
  V  V41  1  0.00199564  0.12382199  0.12736185  1
  V  V42  1  0.24787291  0.62677760  0.37823869  1
  V  V43  1  0.00122803  0.24993688  0.73745282  1
  V  V44  1  0.75656422  0.74924815  0.50642453  1
  V  V45  1  -0.00538284  0.75051455  0.24955627  1
  V  V46  1  0.50002794  0.37697320  0.37483938  1
  V  V47  1  0.50152257  0.25203635  0.75006577  1
  V  V48  1  0.36644388  0.87101403  0.51290182  1
  V  V49  1  0.37734995  0.25078954  0.12633067  1
  V  V50  1  0.63444044  0.25032523  0.87115114  1
  V  V51  1  0.87330339  0.62586090  0.24877367  1
  V  V52  1  0.49896481  0.87604469  0.37820949  1
  V  V53  1  0.12122588  0.49120216  0.12816153  1
  V  V54  1  0.75981486  0.50263807  0.75371159  1
  V  V55  1  0.87727839  0.25346175  0.12249233  1
  V  V56  1  0.74792906  0.62779330  0.87420616  1
  V  V57  1  0.25021652  0.12533490  0.87385860  1
  V  V58  1  0.74829486  0.62266567  0.38168328  1
  V  V59  1  0.63338110  -0.00624271  0.62895559  1
  V  V60  1  0.00159322  0.87189991  0.86017035  1
  V  V61  1  0.49875041  -0.00092350  0.50161961  1
  V  V62  1  0.50145609  0.12139392  0.12469221  1
  V  V63  1  -0.01697489  0.37488302  0.87564201  1
  V  V64  1  0.12310534  0.62068067  -0.00079460  1
  V  V65  1  0.62103946  0.63439822  -0.00599553  1
  V  V66  1  0.75074252  0.37516761  0.11700722  1
  V  V67  1  0.49945406  0.74982249  0.25242055  1
  V  V68  1  0.13279913  0.87194320  0.24183858  1
  V  V69  1  0.52447130  0.77374537  0.75698048  1
  V  V70  1  0.62397525  0.74584132  0.38680945  1
  V  V71  1  0.13013479  0.26338227  0.37269725  1
  V  V72  1  0.75990055  0.74522145  0.00653879  1
  V  V73  1  0.62508547  0.38058593  0.74823293  1
  V  V74  1  0.36389209  0.87922749  0.00869679  1
  V  V75  1  0.87518299  0.00223436  0.87530263  1
  V  V76  1  0.50095294  0.12630637  0.62334902  1
  V  V77  1  0.24035375  -0.00015856  0.74452494  1
  V  V78  1  0.62710768  0.12749287  -0.00483910  1
  V  V79  1  0.37380467  0.12385953  0.74943752  1
  V  V80  1  0.54753496  -0.05498502  -0.05639806  1
  V  V81  1  0.37353620  0.25073345  0.62428481  1
  V  V82  1  0.36885775  0.00512629  0.37666339  1
  V  V83  1  0.62596665  0.51018982  0.62386510  1
  V  V84  1  0.74984774  0.49828646  0.24937384  1
  Zn  Zn85  1  0.24873365  0.75150301  0.51182223  1
  Zn  Zn86  1  0.13183063  -0.00631324  0.11995240  1
  Zn  Zn87  1  0.88320641  0.86417185  0.00502378  1
  Zn  Zn88  1  0.49823707  0.37341411  0.87732861  1
  Zn  Zn89  1  0.25132629  0.24680247  0.49519984  1
  Zn  Zn90  1  0.87194042  0.11986338  0.24628133  1
  Zn  Zn91  1  0.49930678  0.25001729  0.25089915  1
  Zn  Zn92  1  0.76073939  0.38030024  0.61252125  1
  Zn  Zn93  1  0.87223120  -0.00143535  0.36846138  1
  Zn  Zn94  1  0.74670875  -0.00194003  0.75942330  1
  Zn  Zn95  1  0.12815080  0.38058926  0.75391044  1
  Zn  Zn96  1  0.11904758  0.62392644  0.49987720  1
  Zn  Zn97  1  0.75408026  0.86247478  0.63973983  1
  Zn  Zn98  1  0.12607203  -0.00557822  0.61841120  1
  Zn  Zn99  1  0.37429115  0.37699190  0.00027389  1
  Zn  Zn100  1  0.24639297  0.37211207  0.13025577  1
  Zn  Zn101  1  0.36603960  0.75807375  0.13182250  1
  Zn  Zn102  1  0.49686595  0.63742414  0.62467673  1
  Zn  Zn103  1  0.37048730  0.62744198  0.24958145  1
  Zn  Zn104  1  0.37217327  0.12858584  0.25551593  1
  Zn  Zn105  1  0.24664916  0.75023396  0.00927910  1
  Zn  Zn106  1  0.62349635  0.37509637  0.24751947  1
  Zn  Zn107  1  0.18636076  0.18541349  0.19080465  1
  Zn  Zn108  1  0.18467046  0.18617813  0.68159339  1
  Zn  Zn109  1  0.18538771  0.68260685  0.18849599  1
  Zn  Zn110  1  0.18345476  0.65942754  0.69338842  1
  Zn  Zn111  1  0.68538895  0.19107963  0.18711870  1
  Zn  Zn112  1  0.69091559  0.18733065  0.68380295  1
  Zn  Zn113  1  0.68434031  0.68868464  0.18984445  1
  Zn  Zn114  1  0.68353407  0.68955081  0.69129466  1
  Zn  Zn115  1  0.31184854  0.31323252  0.31196374  1
  Zn  Zn116  1  0.31295317  0.31451100  0.81187101  1
  Zn  Zn117  1  0.31247675  0.81677743  0.31637730  1
  Zn  Zn118  1  0.31478886  0.80940984  0.82485651  1
  Zn  Zn119  1  0.81046111  0.30755287  0.30656854  1
  Zn  Zn120  1  0.82793025  0.32548144  0.77275589  1
  Zn  Zn121  1  0.81297339  0.81123393  0.31726564  1
  Zn  Zn122  1  0.80690944  0.81568964  0.81914730  1
  Zn  Zn123  1  0.18549674  0.43788921  0.44521272  1
  Zn  Zn124  1  0.18649796  0.43683330  0.94184778  1
  Zn  Zn125  1  0.18956476  0.93673937  0.43189478  1
  Zn  Zn126  1  0.18606145  0.93702622  0.93336833  1
  Zn  Zn127  1  0.68681199  0.43776549  0.43938016  1
  Zn  Zn128  1  0.68693624  0.43942540  0.93390751  1
  Zn  Zn129  1  0.68769110  0.93597970  0.44452616  1
  Zn  Zn130  1  0.70927310  0.93722773  0.94441343  1
  Zn  Zn131  1  0.31502423  0.06246640  0.06307996  1
  Zn  Zn132  1  0.30867563  0.06058633  0.56278153  1
  Zn  Zn133  1  0.31013560  0.56506945  0.06375321  1
  Zn  Zn134  1  0.30981471  0.56200774  0.56260126  1
  Zn  Zn135  1  0.81234323  0.06338382  0.06318360  1
  Zn  Zn136  1  0.81488099  0.06609650  0.55715196  1
  Zn  Zn137  1  0.81199808  0.56358714  0.06286699  1
  Zn  Zn138  1  0.81486967  0.56225762  0.56453664  1
  Zn  Zn139  1  0.43238527  0.43811272  0.18911186  1
  Zn  Zn140  1  0.43918928  0.44109318  0.68670006  1
  Zn  Zn141  1  0.44220714  0.94039655  0.18796318  1
  Zn  Zn142  1  0.43946442  0.93844439  0.68998603  1
  Zn  Zn143  1  0.93348948  0.43757656  0.18519351  1
  Zn  Zn144  1  0.93724168  0.43824851  0.68545095  1
  Zn  Zn145  1  0.93893194  0.94219223  0.19279690  1
  Zn  Zn146  1  0.93629001  0.93875287  0.68605092  1
  Zn  Zn147  1  0.06673756  0.06372309  0.30805620  1
  Zn  Zn148  1  0.05809659  0.06472901  0.81162799  1
  Zn  Zn149  1  0.06007311  0.55907216  0.31569762  1
  Zn  Zn150  1  0.05604818  0.56045878  0.81181933  1
  Zn  Zn151  1  0.56179335  0.06285196  0.31178116  1
  Zn  Zn152  1  0.56571463  0.06903969  0.80740697  1
  Zn  Zn153  1  0.56451584  0.56342734  0.31196985  1
  Zn  Zn154  1  0.55977549  0.56690316  0.81306217  1
  Zn  Zn155  1  0.43825723  0.18854336  0.43788863  1
  Zn  Zn156  1  0.44173469  0.18488630  0.93761671  1
  Zn  Zn157  1  0.43166739  0.69070013  0.43976909  1
  Zn  Zn158  1  0.43571807  0.69508962  0.93270411  1
  Zn  Zn159  1  0.93986762  0.18655261  0.43376469  1
  Zn  Zn160  1  0.93823891  0.18749471  0.93456625  1
  Zn  Zn161  1  0.93425782  0.68705747  0.43659861  1
  Zn  Zn162  1  0.93751368  0.68571903  0.93429099  1
  Zn  Zn163  1  0.06045471  0.31311457  0.05897257  1
  Zn  Zn164  1  0.06586452  0.30877799  0.55839807  1
  Zn  Zn165  1  0.06225899  0.80844717  0.06229056  1
  Zn  Zn166  1  0.05432906  0.81031296  0.55569179  1
  Zn  Zn167  1  0.56247308  0.31280925  0.06019604  1
  Zn  Zn168  1  0.56583954  0.31873659  0.56272725  1
  Zn  Zn169  1  0.56552932  0.80948221  0.06839538  1
  Zn  Zn170  1  0.55817374  0.81285347  0.56885758  1
  O  O171  1  0.11862940  0.12330899  0.11750619  1
  O  O172  1  0.11565781  0.12408913  0.61015879  1
  O  O173  1  0.11317215  0.61336359  0.12116298  1
  O  O174  1  0.10815636  0.61542031  0.62210870  1
  O  O175  1  0.62242222  0.11830177  0.12055637  1
  O  O176  1  0.61924565  0.12143767  0.61765297  1
  O  O177  1  0.61325416  0.62043175  0.11976985  1
  O  O178  1  0.62013432  0.61342404  0.63054676  1
  O  O179  1  0.38126945  0.38107583  0.38059974  1
  O  O180  1  0.37682725  0.38390997  0.87785020  1
  O  O181  1  0.38209248  0.88543194  0.38285627  1
  O  O182  1  0.37323799  0.88803542  0.88584298  1
  O  O183  1  0.86885164  0.38726433  0.36585299  1
  O  O184  1  0.88520488  0.36978794  0.86958779  1
  O  O185  1  0.88294029  0.87642244  0.38039210  1
  O  O186  1  0.88579507  0.88125740  0.88325428  1
  O  O187  1  0.25957901  -0.00307784  0.36228336  1
  O  O188  1  0.25680071  0.00622453  0.86918125  1
  O  O189  1  0.25029273  0.50608078  0.37301599  1
  O  O190  1  0.25899950  0.50592074  0.88289471  1
  O  O191  1  0.74223374  0.01690404  0.37969147  1
  O  O192  1  0.76937664  0.00530946  0.87946903  1
  O  O193  1  0.75402285  0.50644834  0.37140125  1
  O  O194  1  0.74527807  0.51532350  0.86855446  1
  O  O195  1  0.23989940  0.50136792  0.13415272  1
  O  O196  1  0.23512148  0.49192093  0.61659001  1
  O  O197  1  0.25119163  1.00007716  0.13782306  1
  O  O198  1  0.24438709  1.00142503  0.63622161  1
  O  O199  1  0.74512359  0.49249926  0.12664404  1
  O  O200  1  0.74297671  0.50055547  0.63246213  1
  O  O201  1  0.73691552  0.98959290  0.11519530  1
  O  O202  1  0.73705265  1.00533483  0.61954574  1
  O  O203  1  -0.00110710  0.36038324  0.24266708  1
  O  O204  1  0.00500452  0.36707975  0.76143477  1
  O  O205  1  0.00595608  0.86546300  0.25497902  1
  O  O206  1  -0.00193292  0.87727218  0.76084901  1
  O  O207  1  0.49984380  0.37759425  0.26381107  1
  O  O208  1  0.51060315  0.37128583  0.75010899  1
  O  O209  1  0.50979122  0.86871323  0.25616350  1
  O  O210  1  0.50460788  0.87308523  0.75431871  1
  O  O211  1  0.49930512  0.12727649  0.23749955  1
  O  O212  1  0.49327945  0.13254765  0.74256119  1
  O  O213  1  0.49935228  0.63296056  0.24337216  1
  O  O214  1  0.48279797  0.62382939  0.74851675  1
  O  O215  1  1.00330036  0.13235190  0.23621984  1
  O  O216  1  0.99943436  0.13055374  0.73525033  1
  O  O217  1  0.99281387  0.62921909  0.24513112  1
  O  O218  1  0.98585288  0.62114603  0.74143668  1
  O  O219  1  0.36852395  0.24894869  0.00619743  1
  O  O220  1  0.37428738  0.25765088  0.50537315  1
  O  O221  1  0.37387737  0.76839792  -0.00167579  1
  O  O222  1  0.37022730  0.76512369  0.50138130  1
  O  O223  1  0.86351828  0.24437968  0.00372148  1
  O  O224  1  0.86602976  0.24971777  0.49686129  1
  O  O225  1  0.86507154  0.74273861  0.00510957  1
  O  O226  1  0.86567156  0.76236881  0.49192178  1
  O  O227  1  0.12470680  0.24146391  0.48546335  1
  O  O228  1  0.13276042  0.24564944  0.99408346  1
  O  O229  1  0.12671538  0.74933488  0.48785315  1
  O  O230  1  0.12399876  0.73909296  0.99265956  1
  O  O231  1  0.62362089  0.24638082  0.48830467  1
  O  O232  1  0.63329023  0.24493757  0.99264288  1
  O  O233  1  0.62908345  0.75661806  0.49015312  1
  O  O234  1  0.63322713  0.73811517  1.00661921  1
  O  O235  1  0.49414389  0.24485037  0.12694984  1
  O  O236  1  0.49534683  0.24805962  0.62973174  1
  O  O237  1  0.49775535  0.74351254  0.13563974  1
  O  O238  1  0.50682059  0.75050067  0.64770516  1
  O  O239  1  0.99524680  0.24511630  0.12890368  1
  O  O240  1  1.00696455  0.24214757  0.63383210  1
  O  O241  1  1.00358231  0.73499675  0.13310713  1
  O  O242  1  1.00094622  0.73400491  0.62349370  1
  O  O243  1  0.00597703  0.24799973  0.36069658  1
  O  O244  1  0.00870666  0.25949669  0.87215204  1
  O  O245  1  0.00685204  0.75392847  0.36774824  1
  O  O246  1  0.01156095  0.75547495  0.87781703  1
  O  O247  1  0.50645536  0.25998541  0.37447632  1
  O  O248  1  0.50974390  0.25057666  0.86713620  1
  O  O249  1  0.50620302  0.75314094  0.37211757  1
  O  O250  1  0.49638346  0.74562926  0.85222387  1
  O  O251  1  0.23462717  0.12803100  0.50195365  1
  O  O252  1  0.24654124  0.13337543  0.99495251  1
  O  O253  1  0.24607574  0.62927630  0.49070600  1
  O  O254  1  0.24169464  0.62307625  0.98974087  1
  O  O255  1  0.74555170  0.13674105  0.48972856  1
  O  O256  1  0.73722016  0.13519302  1.00593945  1
  O  O257  1  0.75900874  0.63105902  0.48851770  1
  O  O258  1  0.74172110  0.62758039  0.99682490  1
  O  O259  1  0.25190733  0.36133780  0.00406025  1
  O  O260  1  0.25771320  0.37249165  0.50997448  1
  O  O261  1  0.26069194  0.87631354  0.00014559  1
  O  O262  1  0.26173478  0.87329436  0.49704879  1
  O  O263  1  0.74352436  0.36702710  0.00892419  1
  O  O264  1  0.74955564  0.36074338  0.49665341  1
  O  O265  1  0.75750675  0.86185133  0.01183236  1
  O  O266  1  0.76125726  0.86641691  0.50017033  1
  O  O267  1  0.12940412  0.50404065  0.24227854  1
  O  O268  1  0.11736105  0.49901184  0.73483759  1
  O  O269  1  0.13698232  0.99156007  0.24808266  1
  O  O270  1  0.13748119  1.00415510  0.75264197  1
  O  O271  1  0.63260655  0.49935034  0.24200160  1
  O  O272  1  0.62821355  0.49693969  0.74418479  1
  O  O273  1  0.62447276  0.98995501  0.24421983  1
  O  O274  1  0.62932299  1.01057448  0.73344414  1
  O  O275  1  0.36674968  -0.00111649  0.25588426  1
  O  O276  1  0.36713902  0.00449317  0.75762189  1
  O  O277  1  0.36558180  0.50435124  0.25829725  1
  O  O278  1  0.37804870  0.50562405  0.76223913  1
  O  O279  1  0.87400770  0.00698480  0.25450033  1
  O  O280  1  0.87947225  0.00835386  0.75853000  1
  O  O281  1  0.86935211  0.50609348  0.25600513  1
  O  O282  1  0.86166682  0.51157118  0.74888670  1
  O  O283  1  0.12336644  0.36207324  0.38099892  1
  O  O284  1  0.12660088  0.36325183  0.87407984  1
  O  O285  1  0.11817098  0.86727440  0.36662790  1
  O  O286  1  0.11658005  0.86402378  0.87941113  1
  O  O287  1  0.61730384  0.36984282  0.37382855  1
  O  O288  1  0.61903945  0.36823339  0.86909181  1
  O  O289  1  0.62099496  0.86894936  0.37099738  1
  O  O290  1  0.61386998  0.89342378  0.89216927  1
  O  O291  1  0.38488333  0.13369671  0.12420840  1
  O  O292  1  0.38064622  0.12967906  0.62821970  1
  O  O293  1  0.38726582  0.62603977  0.12726879  1
  O  O294  1  0.37159633  0.62034927  0.64086371  1
  O  O295  1  0.88209544  0.13630956  0.12362794  1
  O  O296  1  0.88971151  0.11950333  0.62920473  1
  O  O297  1  0.88101303  0.61828932  0.13979866  1
  O  O298  1  0.88336698  0.62379152  0.63614450  1
  O  O299  1  0.25674672  0.24783345  0.11933488  1
  O  O300  1  0.25683016  0.25700528  0.62159912  1
  O  O301  1  0.25470329  0.73862552  0.12294036  1
  O  O302  1  0.23245864  0.75473116  0.63339479  1
  O  O303  1  0.75661064  0.25613130  0.11801870  1
  O  O304  1  0.74420482  0.24997258  0.60361184  1
  O  O305  1  0.74413632  0.75862830  0.12041884  1
  O  O306  1  0.74251502  0.74701245  0.61006901  1
  O  O307  1  0.23537654  0.25178448  0.37316031  1
  O  O308  1  0.24559347  0.24476010  0.88098720  1
  O  O309  1  0.24104676  0.74260116  0.37319663  1
  O  O310  1  0.23789262  0.74105672  0.88148911  1
  O  O311  1  0.74349578  0.24524612  0.38258077  1
  O  O312  1  0.73936565  0.25613554  0.88074250  1
  O  O313  1  0.74236089  0.74173546  0.38244392  1
  O  O314  1  0.75333460  0.73747245  0.88935253  1
  O  O315  1  0.00507556  0.12035812  0.00882895  1
  O  O316  1  0.00680971  0.12977817  0.51033933  1
  O  O317  1  0.00211913  0.61691917  0.00640599  1
  O  O318  1  -0.00595119  0.61939448  0.51223645  1
  O  O319  1  0.51440055  0.13151952  0.01283448  1
  O  O320  1  0.50582250  0.11935294  0.50458733  1
  O  O321  1  0.50348958  0.62437421  0.00539963  1
  O  O322  1  0.49289771  0.61589707  0.50390356  1
  O  O323  1  0.49525548  0.38403601  0.49046286  1
  O  O324  1  0.49765705  0.38712517  0.99935891  1
  O  O325  1  0.49057151  0.87980008  0.49732345  1
  O  O326  1  0.49534254  0.87750436  1.00075522  1
  O  O327  1  0.99613376  0.38522522  0.50622477  1
  O  O328  1  1.00005400  0.37879832  0.98504851  1
  O  O329  1  0.98587588  0.87168755  0.48957847  1
  O  O330  1  0.99993532  0.88303922  0.99885275  1
  O  O331  1  0.49713465  0.49656896  0.38166197  1
  O  O332  1  0.49077728  0.50105649  0.88321769  1
  O  O333  1  0.49622379  0.99422038  0.38206788  1
  O  O334  1  0.49386169  1.00550187  0.87688316  1
  O  O335  1  0.99134885  0.50323682  0.39048031  1
  O  O336  1  1.00353644  0.48332413  0.88118674  1
  O  O337  1  1.00322416  0.98703461  0.36837270  1
  O  O338  1  0.99785762  0.99144115  0.88216639  1
  O  O339  1  0.00439209  0.00751563  0.11798710  1
  O  O340  1  0.00690101  0.01240253  0.62643459  1
  O  O341  1  0.00286519  0.50519900  0.11944073  1
  O  O342  1  -0.00004037  0.50436190  0.61546095  1
  O  O343  1  0.51484711  0.00781532  0.12663110  1
  O  O344  1  0.50929591  0.00618871  0.62051907  1
  O  O345  1  0.50121078  0.50710284  0.11944742  1
  O  O346  1  0.50761575  0.50094942  0.61557499  1
  O  O347  1  0.25172611  0.38942288  0.24957130  1
  O  O348  1  0.24851689  0.37235361  0.73579017  1
  O  O349  1  0.24236694  0.88424828  0.25386579  1
  O  O350  1  0.24937639  0.87888349  0.75046912  1
  O  O351  1  0.74836810  0.37906905  0.23571615  1
  O  O352  1  0.73307572  0.38938487  0.76367724  1
  O  O353  1  0.73840472  0.86529524  0.24641420  1
  O  O354  1  0.75807915  0.88540540  0.74912887  1
  O  O355  1  0.25176138  0.10902241  0.24926580  1
  O  O356  1  0.25462609  0.11953149  0.75446651  1
  O  O357  1  0.24842687  0.61470352  0.26377934  1
  O  O358  1  0.26140695  0.61991825  0.76420116  1
  O  O359  1  0.74927990  0.13482484  0.26503139  1
  O  O360  1  0.76729331  0.12371460  0.74321964  1
  O  O361  1  0.75578236  0.62089948  0.25682028  1
  O  O362  1  0.75695301  0.62385590  0.75676448  1
  O  O363  1  0.38292705  0.11029742  0.37413398  1
  O  O364  1  0.37123344  0.11509909  0.87212637  1
  O  O365  1  0.36505718  0.62019295  0.37467140  1
  O  O366  1  0.36628477  0.61956143  0.87039453  1
  O  O367  1  0.86100742  0.12439217  0.37501563  1
  O  O368  1  0.89160650  0.11265764  0.86238553  1
  O  O369  1  0.86806613  0.61705773  0.36477609  1
  O  O370  1  0.86963517  0.62558846  0.86187875  1
  O  O371  1  0.12500993  0.38709662  0.12027700  1
  O  O372  1  0.13151834  0.37933632  0.62512388  1
  O  O373  1  0.11985427  0.87383599  0.13822656  1
  O  O374  1  0.11892006  0.87411534  0.62968079  1
  O  O375  1  0.63123890  0.38143140  0.12539757  1
  O  O376  1  0.63091785  0.38538616  0.63361499  1
  O  O377  1  0.63109830  0.88108737  0.13478282  1
  O  O378  1  0.63073723  0.89171873  0.61680157  1
  O  O379  1  0.11542169  0.24708414  0.26112536  1
  O  O380  1  0.11831494  0.24944775  0.75772881  1
  O  O381  1  0.11634069  0.75345340  0.25794382  1
  O  O382  1  0.13349464  0.75514449  0.75401850  1
  O  O383  1  0.62258131  0.25385701  0.26300362  1
  O  O384  1  0.62482423  0.25741567  0.75410869  1
  O  O385  1  0.61493288  0.75558631  0.26024573  1
  O  O386  1  0.62467487  0.75947664  0.75765493  1
  O  O387  1  0.37627357  0.24708890  0.24193778  1
  O  O388  1  0.38007092  0.24409535  0.74497702  1
  O  O389  1  0.38807123  0.75130792  0.25375021  1
  O  O390  1  0.36931382  0.73733534  0.75264975  1
  O  O391  1  0.88745220  0.24471931  0.24221622  1
  O  O392  1  0.89363893  0.23340057  0.76259340  1
  O  O393  1  0.88665487  0.74195131  0.25657099  1
  O  O394  1  0.87143194  0.73896367  0.75279164  1
  O  O395  1  0.38182316  0.49510878  0.49470648  1
  O  O396  1  0.38444360  0.50255162  0.99513499  1
  O  O397  1  0.37710097  0.99379850  0.49384823  1
  O  O398  1  0.37473000  0.99038099  0.99339204  1
  O  O399  1  0.88372880  0.49908389  0.49415448  1
  O  O400  1  0.88697659  0.50167862  1.00299988  1
  O  O401  1  0.86821977  0.98572748  0.49047981  1
  O  O402  1  0.88835014  1.00291596  0.99536489  1
  O  O403  1  0.11650882  0.00539277  -0.00067216  1
  O  O404  1  0.12820332  0.01175866  0.49659267  1
  O  O405  1  0.11504065  0.50380134  0.00740170  1
  O  O406  1  0.10881017  0.50130489  0.50743146  1
  O  O407  1  0.61913085  0.00405760  0.00180111  1
  O  O408  1  0.61930689  0.00778486  0.50796026  1
  O  O409  1  0.61264606  0.51007115  0.00338655  1
  O  O410  1  0.61570171  0.49701739  0.50878063  1
  O  O411  1  0.37272460  0.36256922  0.12299940  1
  O  O412  1  0.36921336  0.37307894  0.62123265  1
  O  O413  1  0.38122364  0.87787921  0.11178625  1
  O  O414  1  0.37553443  0.88375497  0.61091447  1
  O  O415  1  0.86784765  0.36200763  0.12465512  1
  O  O416  1  0.85829221  0.36428395  0.66628625  1
  O  O417  1  0.86386157  0.87823330  0.12756251  1
  O  O418  1  0.87471528  0.87855999  0.60974532  1
  O  O419  1  0.11688347  0.13187653  0.38694046  1
  O  O420  1  0.12774303  0.13633770  0.88001237  1
  O  O421  1  0.12888226  0.63255437  0.37738065  1
  O  O422  1  0.12863346  0.62806366  0.87581689  1
  O  O423  1  0.63168524  0.13305799  0.37884612  1
  O  O424  1  0.62248533  0.13486428  0.88336687  1
  O  O425  1  0.63575188  0.63366155  0.37140930  1
  O  O426  1  0.63156802  0.62336393  0.88452129  1
