# generated using pymatgen
data_V85Zn86O256
_symmetry_space_group_name_H-M   'P 1'
_cell_length_a   16.93720025
_cell_length_b   16.94081392
_cell_length_c   16.93090950
_cell_angle_alpha   90.03817191
_cell_angle_beta   90.05020024
_cell_angle_gamma   90.00144648
_symmetry_Int_Tables_number   1
_chemical_formula_structural   V85Zn86O256
_chemical_formula_sum   'V85 Zn86 O256'
_cell_volume   4857.98220242
_cell_formula_units_Z   1
loop_
 _symmetry_equiv_pos_site_id
 _symmetry_equiv_pos_as_xyz
  1  'x, y, z'
loop_
 _atom_site_type_symbol
 _atom_site_label
 _atom_site_symmetry_multiplicity
 _atom_site_fract_x
 _atom_site_fract_y
 _atom_site_fract_z
 _atom_site_occupancy
  V  V0  1  0.24973209  0.74845142  0.49972471  1
  V  V1  1  0.74794961  0.12349604  0.87372345  1
  V  V2  1  -0.00044821  0.87482972  0.87663518  1
  V  V3  1  0.60203366  0.25086352  0.37096027  1
  V  V4  1  -0.01030028  0.37299043  0.87936518  1
  V  V5  1  0.87326832  0.12643942  0.74601396  1
  V  V6  1  0.86885218  0.87767715  0.50465273  1
  V  V7  1  0.37600837  0.62549219  0.75233847  1
  V  V8  1  0.62326504  0.62991980  0.50506071  1
  V  V9  1  0.88245670  0.75099794  0.12835818  1
  V  V10  1  0.37072571  0.37488370  0.00258990  1
  V  V11  1  0.25074591  0.87453414  0.62421981  1
  V  V12  1  0.24844193  0.25263819  0.01086272  1
  V  V13  1  0.76405548  0.25031325  0.00662712  1
  V  V14  1  0.62600347  0.87812096  0.73490458  1
  V  V15  1  0.75296610  0.75143315  -0.00001530  1
  V  V16  1  0.86398648  0.75390628  0.62615537  1
  V  V17  1  0.88414205  0.62808055  0.25183465  1
  V  V18  1  0.01178709  0.25348539  0.25005788  1
  V  V19  1  0.85979146  0.25050680  0.61802914  1
  V  V20  1  0.49970405  0.50159091  0.00331893  1
  V  V21  1  0.50710962  -0.00499097  0.49933733  1
  V  V22  1  0.38088393  0.49259899  0.37332392  1
  V  V23  1  0.25105181  0.62088850  0.37211393  1
  V  V24  1  0.12480439  -0.00100104  0.62541601  1
  V  V25  1  0.24624865  0.75208105  -0.00008581  1
  V  V26  1  0.74961657  -0.00382379  0.25204644  1
  V  V27  1  0.25075987  0.12620590  0.87501790  1
  V  V28  1  0.53113751  0.66110642  0.15419420  1
  V  V29  1  0.87480585  -0.00073225  0.87413189  1
  V  V30  1  0.75333161  0.14347134  0.37285444  1
  V  V31  1  0.51733747  0.86338283  0.36078638  1
  V  V32  1  0.37195531  0.62422030  0.24706106  1
  V  V33  1  0.13276378  0.00221392  0.13181378  1
  V  V34  1  0.37395811  0.49996786  0.87562619  1
  V  V35  1  0.87027364  0.50016334  0.88439230  1
  V  V36  1  0.87008147  0.62011472  0.74898369  1
  V  V37  1  0.38482632  0.25226901  0.13256493  1
  V  V38  1  0.50414764  0.49469737  0.50545642  1
  V  V39  1  0.61119139  0.37080951  0.25362855  1
  V  V40  1  0.37876502  0.87365626  0.49717109  1
  V  V41  1  0.37623860  0.74829893  0.62681544  1
  V  V42  1  0.50258428  0.37368591  0.87471746  1
  V  V43  1  0.12022830  0.74540248  0.88037836  1
  V  V44  1  0.24347626  0.62189004  0.88012436  1
  V  V45  1  0.62369675  0.37423755  0.72767444  1
  V  V46  1  0.74751658  -0.00346802  0.73569157  1
  V  V47  1  0.62675963  -0.00178906  0.13079465  1
  V  V48  1  0.50328369  0.11630654  0.62392521  1
  V  V49  1  0.37988937  -0.00671210  0.87635611  1
  V  V50  1  0.24729290  0.49916175  0.74298180  1
  V  V51  1  0.00316282  0.00215279  0.49859142  1
  V  V52  1  0.00221580  0.00089381  0.00127266  1
  V  V53  1  0.00801250  0.37634011  0.37422546  1
  V  V54  1  0.12311282  0.62327040  0.50245535  1
  V  V55  1  0.62300529  0.49325452  0.12583295  1
  V  V56  1  0.13616991  0.25516280  0.38510496  1
  V  V57  1  0.86159052  0.36530659  0.49342657  1
  V  V58  1  0.37613644  -0.00544744  0.36327798  1
  V  V59  1  0.87894189  0.12783561  0.24643313  1
  V  V60  1  0.18628420  0.43882299  0.18424106  1
  V  V61  1  0.25171445  0.11905610  0.37517669  1
  V  V62  1  0.62267434  0.76249803  0.87871454  1
  V  V63  1  0.01260960  0.49817416  0.00463335  1
  V  V64  1  0.01038390  0.62203823  0.12278554  1
  V  V65  1  0.87627781  0.00263642  0.37546061  1
  V  V66  1  0.74989624  0.49616503  0.25046439  1
  V  V67  1  -0.00151950  0.74937981  0.74774909  1
  V  V68  1  0.50355837  -0.01066594  -0.00054992  1
  V  V69  1  0.37475728  0.12546172  0.74435101  1
  V  V70  1  0.74402433  0.63263499  0.37628221  1
  V  V71  1  0.12481138  0.25134737  0.87497020  1
  V  V72  1  0.49979231  0.75401776  0.75714596  1
  V  V73  1  0.13119604  0.86959276  0.25049045  1
  V  V74  1  0.25276574  0.35660600  0.61961424  1
  V  V75  1  0.87543423  0.50004794  0.37782331  1
  V  V76  1  0.00131807  0.13093901  0.12544797  1
  V  V77  1  0.62156264  0.12764740  0.00100772  1
  V  V78  1  -0.00414220  0.25585237  0.74424211  1
  V  V79  1  0.37039967  0.75025299  0.12813466  1
  V  V80  1  0.25015246  -0.00124930  0.75103484  1
  V  V81  1  0.62297854  0.62285868  -0.00432977  1
  V  V82  1  0.63135729  0.12817708  0.50170228  1
  V  V83  1  0.49564298  0.24683235  0.74992518  1
  V  V84  1  0.00043895  0.86897346  0.36933202  1
  Zn  Zn85  1  0.50228234  0.12566677  0.13262898  1
  Zn  Zn86  1  0.74643128  0.62356153  0.87191714  1
  Zn  Zn87  1  -0.00129645  0.62372690  0.62274063  1
  Zn  Zn88  1  0.37018379  0.36163762  0.49740564  1
  Zn  Zn89  1  0.87534266  0.87566553  0.00331634  1
  Zn  Zn90  1  0.73477638  0.49805779  0.74061471  1
  Zn  Zn91  1  -0.00135072  0.49936446  0.50268762  1
  Zn  Zn92  1  0.12184983  0.37638703  0.74677259  1
  Zn  Zn93  1  0.50684433  0.62044297  0.63108491  1
  Zn  Zn94  1  0.75383689  0.87520508  0.13118311  1
  Zn  Zn95  1  0.37940736  0.87172959  -0.00023752  1
  Zn  Zn96  1  0.74131912  0.76146277  0.49722071  1
  Zn  Zn97  1  0.12054880  0.74478873  0.37141284  1
  Zn  Zn98  1  0.11782726  0.49772518  0.62686938  1
  Zn  Zn99  1  0.00123935  0.12940009  0.62105543  1
  Zn  Zn100  1  0.12465865  0.87397233  0.75102497  1
  Zn  Zn101  1  0.12737364  0.12587330  0.00207475  1
  Zn  Zn102  1  0.25524566  0.88292789  0.12878550  1
  Zn  Zn103  1  0.62741426  0.25171721  0.87527488  1
  Zn  Zn104  1  0.76289026  0.37539464  0.11408485  1
  Zn  Zn105  1  0.37788990  0.12658614  0.25118242  1
  Zn  Zn106  1  0.13685179  0.12896850  0.50494452  1
  Zn  Zn107  1  0.19140952  0.18759483  0.19372904  1
  Zn  Zn108  1  0.18389143  0.18555098  0.68981271  1
  Zn  Zn109  1  0.18806986  0.68682100  0.19079493  1
  Zn  Zn110  1  0.18596242  0.68599192  0.68941133  1
  Zn  Zn111  1  0.68672986  0.18682653  0.18922825  1
  Zn  Zn112  1  0.68094685  0.18936354  0.68804242  1
  Zn  Zn113  1  0.69979712  0.68508382  0.18582040  1
  Zn  Zn114  1  0.68660556  0.68869162  0.68640540  1
  Zn  Zn115  1  0.30535214  0.31576180  0.31051287  1
  Zn  Zn116  1  0.31136340  0.31339439  0.81028422  1
  Zn  Zn117  1  0.31336273  0.80986122  0.31295189  1
  Zn  Zn118  1  0.30995739  0.81319717  0.81462493  1
  Zn  Zn119  1  0.82601572  0.32309723  0.28180352  1
  Zn  Zn120  1  0.80739808  0.31329936  0.80989414  1
  Zn  Zn121  1  0.81613716  0.81268318  0.31397988  1
  Zn  Zn122  1  0.80972829  0.81335017  0.81359911  1
  Zn  Zn123  1  0.19203756  0.44019009  0.43900952  1
  Zn  Zn124  1  0.18556780  0.43409077  0.93640457  1
  Zn  Zn125  1  0.18937876  0.93793853  0.43567637  1
  Zn  Zn126  1  0.18630396  0.93589353  0.93842602  1
  Zn  Zn127  1  0.68049135  0.43702106  0.43360649  1
  Zn  Zn128  1  0.69037898  0.43442296  0.93401678  1
  Zn  Zn129  1  0.68775597  0.94350730  0.43218438  1
  Zn  Zn130  1  0.68879514  0.93814901  0.93912791  1
  Zn  Zn131  1  0.31576066  0.06662646  0.06048279  1
  Zn  Zn132  1  0.31590173  0.06214812  0.55761173  1
  Zn  Zn133  1  0.30780755  0.56426972  0.06425982  1
  Zn  Zn134  1  0.31647969  0.56164856  0.56073235  1
  Zn  Zn135  1  0.81451427  0.06579914  0.06375947  1
  Zn  Zn136  1  0.81252063  0.06749984  0.55893146  1
  Zn  Zn137  1  0.81281595  0.56453650  0.06429628  1
  Zn  Zn138  1  0.80599789  0.56218726  0.56297144  1
  Zn  Zn139  1  0.43039597  0.43995322  0.18595543  1
  Zn  Zn140  1  0.43506622  0.43585530  0.68499729  1
  Zn  Zn141  1  0.44257534  0.93504559  0.18619243  1
  Zn  Zn142  1  0.44036088  0.93619629  0.68792001  1
  Zn  Zn143  1  0.94042662  0.43537327  0.18711207  1
  Zn  Zn144  1  0.90451831  0.45511878  0.66735489  1
  Zn  Zn145  1  0.94195082  0.93933122  0.18826971  1
  Zn  Zn146  1  0.93722571  0.93745119  0.68715842  1
  Zn  Zn147  1  0.06873869  0.06082872  0.31305410  1
  Zn  Zn148  1  0.06135433  0.06679003  0.81045798  1
  Zn  Zn149  1  0.06536570  0.55918539  0.31172421  1
  Zn  Zn150  1  0.05842912  0.56101555  0.81279459  1
  Zn  Zn151  1  0.55996952  0.06318528  0.31298195  1
  Zn  Zn152  1  0.56309851  0.05663018  0.81432582  1
  Zn  Zn153  1  0.56316503  0.56226142  0.31779507  1
  Zn  Zn154  1  0.56275319  0.55958159  0.81160820  1
  Zn  Zn155  1  0.43039238  0.18307330  0.43949217  1
  Zn  Zn156  1  0.43705210  0.18421310  0.93825384  1
  Zn  Zn157  1  0.44084830  0.68695526  0.43528842  1
  Zn  Zn158  1  0.43750497  0.68796434  0.94101669  1
  Zn  Zn159  1  0.94259348  0.18947021  0.43436426  1
  Zn  Zn160  1  0.93802167  0.18415877  0.93603129  1
  Zn  Zn161  1  0.93483190  0.68967624  0.44009504  1
  Zn  Zn162  1  0.93724782  0.68193933  0.94017624  1
  Zn  Zn163  1  0.06095223  0.31665455  0.06214021  1
  Zn  Zn164  1  0.06052636  0.31796599  0.56131011  1
  Zn  Zn165  1  0.06300167  0.81271677  0.06495080  1
  Zn  Zn166  1  0.05953367  0.81244553  0.56086094  1
  Zn  Zn167  1  0.56524259  0.31348347  0.06157711  1
  Zn  Zn168  1  0.52735584  0.29200253  0.54795874  1
  Zn  Zn169  1  0.56984376  0.81132980  0.07891443  1
  Zn  Zn170  1  0.55938327  0.80783351  0.56232500  1
  O  O171  1  0.12063785  0.11841063  0.12649935  1
  O  O172  1  0.12333780  0.11254353  0.62351457  1
  O  O173  1  0.10908398  0.63342623  0.12865731  1
  O  O174  1  0.12189967  0.62456348  0.61651047  1
  O  O175  1  0.62606999  0.11696329  0.11660961  1
  O  O176  1  0.61793631  0.12728152  0.61321122  1
  O  O177  1  0.62752436  0.60849478  0.11654063  1
  O  O178  1  0.62712230  0.62314167  0.61120971  1
  O  O179  1  0.36856480  0.38996606  0.37760191  1
  O  O180  1  0.38453676  0.37947844  0.87870418  1
  O  O181  1  0.37786353  0.87954359  0.38149471  1
  O  O182  1  0.36929318  0.88891796  0.87806453  1
  O  O183  1  0.88210378  0.38102998  0.37743108  1
  O  O184  1  0.88310555  0.38215792  0.86855665  1
  O  O185  1  0.88414238  0.88272382  0.38004166  1
  O  O186  1  0.88129132  0.88163224  0.87772913  1
  O  O187  1  0.26019995  0.00861320  0.37878597  1
  O  O188  1  0.25390027  0.00658793  0.87123544  1
  O  O189  1  0.26587569  0.51408551  0.38516224  1
  O  O190  1  0.25206444  0.50557760  0.86832903  1
  O  O191  1  0.75692834  0.01246722  0.36715375  1
  O  O192  1  0.75506011  0.00948940  0.87186676  1
  O  O193  1  0.75556176  0.51092087  0.37026223  1
  O  O194  1  0.75720091  0.49953208  0.86614734  1
  O  O195  1  0.24469221  0.49214340  0.11853686  1
  O  O196  1  0.24918326  0.50477941  0.63820457  1
  O  O197  1  0.23672428  1.00064735  0.11394160  1
  O  O198  1  0.24405337  0.99471051  0.62855427  1
  O  O199  1  0.74381125  0.49731665  0.13252280  1
  O  O200  1  0.79495774  0.49124977  0.64604783  1
  O  O201  1  0.74722997  1.00269826  0.13413700  1
  O  O202  1  0.75474741  1.00471701  0.63684662  1
  O  O203  1  0.00038397  0.36542112  0.26332370  1
  O  O204  1  -0.00155042  0.36308162  0.75892181  1
  O  O205  1  0.01142385  0.88083014  0.26012259  1
  O  O206  1  -0.00155866  0.86416477  0.75754571  1
  O  O207  1  0.51248276  0.38323568  0.24484244  1
  O  O208  1  0.50191029  0.36556963  0.75439949  1
  O  O209  1  0.50472849  0.87630555  0.26150894  1
  O  O210  1  0.51392275  0.86832314  0.74905351  1
  O  O211  1  0.49090891  0.11710459  0.24528896  1
  O  O212  1  0.49491830  0.12511046  0.74725637  1
  O  O213  1  0.49385729  0.62284196  0.24503023  1
  O  O214  1  0.49439073  0.63260463  0.75087083  1
  O  O215  1  0.99926025  0.12722592  0.24362530  1
  O  O216  1  0.99078635  0.13807990  0.74996847  1
  O  O217  1  0.98878623  0.61915102  0.24388685  1
  O  O218  1  0.99269845  0.63862950  0.75250648  1
  O  O219  1  0.36878739  0.25700729  0.00460144  1
  O  O220  1  0.41855109  0.26196494  0.51373196  1
  O  O221  1  0.36195812  0.75134168  0.00155330  1
  O  O222  1  0.37049190  0.75312149  0.50687942  1
  O  O223  1  0.86281890  0.24279754  -0.00010676  1
  O  O224  1  0.87538444  0.25754731  0.50029103  1
  O  O225  1  0.86724780  0.74892348  0.00567811  1
  O  O226  1  0.87315921  0.76025155  0.50946204  1
  O  O227  1  0.11639150  0.24470765  0.48844957  1
  O  O228  1  0.13254589  0.25100156  0.99296935  1
  O  O229  1  0.13121826  0.74178049  0.49829158  1
  O  O230  1  0.12891510  0.75256631  0.98862933  1
  O  O231  1  0.61390273  0.23950270  0.48318332  1
  O  O232  1  0.62826071  0.23787289  0.99692985  1
  O  O233  1  0.62619715  0.73609717  0.50213774  1
  O  O234  1  0.62995002  0.74383912  0.99570432  1
  O  O235  1  0.48772832  0.24902667  0.11857738  1
  O  O236  1  0.50329941  0.23019134  0.64441587  1
  O  O237  1  0.47723057  0.74380640  0.10290193  1
  O  O238  1  0.49425344  0.74624196  0.63906564  1
  O  O239  1  1.00908511  0.23892331  0.13308148  1
  O  O240  1  0.99428865  0.24976424  0.63160385  1
  O  O241  1  0.98837872  0.74012928  0.11533137  1
  O  O242  1  0.99181386  0.75086818  0.63454759  1
  O  O243  1  0.01186821  0.25683435  0.36937404  1
  O  O244  1  0.00329148  0.25610274  0.87202926  1
  O  O245  1  0.00075852  0.76529070  0.38096997  1
  O  O246  1  0.00418595  0.75274293  0.87199429  1
  O  O247  1  0.50501348  0.24203135  0.36425189  1
  O  O248  1  0.49936740  0.25550539  0.86757751  1
  O  O249  1  0.49736743  0.76554907  0.37662086  1
  O  O250  1  0.50645128  0.74687456  0.86562083  1
  O  O251  1  0.25417246  0.12524357  0.48517316  1
  O  O252  1  0.24911979  0.13538593  0.99141233  1
  O  O253  1  0.24450741  0.63146591  0.49627525  1
  O  O254  1  0.25314798  0.63381313  0.98682028  1
  O  O255  1  0.73911487  0.12229618  0.48876060  1
  O  O256  1  0.74454954  0.13074244  0.99280250  1
  O  O257  1  0.73925616  0.62454404  0.49393338  1
  O  O258  1  0.73942946  0.63482476  1.00088129  1
  O  O259  1  0.26326076  0.36633898  -0.01182920  1
  O  O260  1  0.25270209  0.37617686  0.51497893  1
  O  O261  1  0.24935869  0.86201694  0.00216518  1
  O  O262  1  0.25645590  0.86809337  0.50438872  1
  O  O263  1  0.74773675  0.35586619  -0.00257759  1
  O  O264  1  0.76329533  0.37650229  0.48766762  1
  O  O265  1  0.75285274  0.86278491  0.00154250  1
  O  O266  1  0.76449129  0.87899035  0.49118594  1
  O  O267  1  0.12810072  0.50236852  0.23974058  1
  O  O268  1  0.13275413  0.49789958  0.75074638  1
  O  O269  1  0.12368807  0.98918942  0.24076288  1
  O  O270  1  0.12997077  0.99907117  0.74310229  1
  O  O271  1  0.62907477  0.49817730  0.24257216  1
  O  O272  1  0.61741353  0.48159223  0.74590136  1
  O  O273  1  0.63852539  1.01005110  0.24299218  1
  O  O274  1  0.63092869  0.98557397  0.75277546  1
  O  O275  1  0.37473287  -0.00645775  0.26112595  1
  O  O276  1  0.37101771  0.00353235  0.75750059  1
  O  O277  1  0.38049593  0.50849988  0.26380177  1
  O  O278  1  0.36821471  0.50460847  0.75749218  1
  O  O279  1  0.87407899  0.01029863  0.25580909  1
  O  O280  1  0.86800687  0.00451371  0.75450957  1
  O  O281  1  0.86783181  0.50866592  0.26087206  1
  O  O282  1  0.89282961  0.51759670  0.76831625  1
  O  O283  1  0.12136656  0.36818559  0.38216228  1
  O  O284  1  0.11331469  0.36424922  0.87336252  1
  O  O285  1  0.12003985  0.87538028  0.36514328  1
  O  O286  1  0.11699051  0.86660964  0.87249635  1
  O  O287  1  0.62040732  0.35814254  0.37120891  1
  O  O288  1  0.60944737  0.37340952  0.87618782  1
  O  O289  1  0.61681699  0.87363754  0.37705108  1
  O  O290  1  0.62668647  0.86449643  0.87172106  1
  O  O291  1  0.37554878  0.14128268  0.12395390  1
  O  O292  1  0.38237372  0.11464993  0.63848151  1
  O  O293  1  0.37351336  0.62895942  0.13720086  1
  O  O294  1  0.37354791  0.63368264  0.63522858  1
  O  O295  1  0.88883066  0.12005799  0.13442865  1
  O  O296  1  0.87901404  0.13295048  0.62820869  1
  O  O297  1  0.88030992  0.63052283  0.13432756  1
  O  O298  1  0.87781552  0.63749229  0.63316979  1
  O  O299  1  0.25665715  0.24616917  0.11357098  1
  O  O300  1  0.24815137  0.25776209  0.62866940  1
  O  O301  1  0.25534291  0.74842549  0.11567530  1
  O  O302  1  0.25504044  0.75573576  0.62177179  1
  O  O303  1  0.74719119  0.24559903  0.10882577  1
  O  O304  1  0.76069198  0.24372084  0.62613359  1
  O  O305  1  0.76461267  0.75209369  0.11766643  1
  O  O306  1  0.76080322  0.75166765  0.62226210  1
  O  O307  1  0.24452432  0.24163978  0.37517635  1
  O  O308  1  0.24136355  0.24665808  0.87919292  1
  O  O309  1  0.24994066  0.73902218  0.38368016  1
  O  O310  1  0.24037706  0.74349565  0.87934577  1
  O  O311  1  0.75817378  0.24221717  0.36130264  1
  O  O312  1  0.74989224  0.23751620  0.88180887  1
  O  O313  1  0.75739127  0.73688173  0.37742552  1
  O  O314  1  0.74125611  0.74785428  0.88342903  1
  O  O315  1  0.00359831  0.11997873  0.00801774  1
  O  O316  1  0.00193200  0.11092623  0.49889347  1
  O  O317  1  -0.00361076  0.60864754  0.00794776  1
  O  O318  1  0.00979290  0.62509076  0.49849606  1
  O  O319  1  0.50882402  0.11660549  0.00260687  1
  O  O320  1  0.50638406  0.11392947  0.50784826  1
  O  O321  1  0.51301147  0.62153477  0.00456056  1
  O  O322  1  0.51091584  0.62125748  0.50240333  1
  O  O323  1  0.50445493  0.39512441  0.49872493  1
  O  O324  1  0.49135251  0.37870369  0.99276253  1
  O  O325  1  0.49730248  0.88025113  0.49708913  1
  O  O326  1  0.50447153  0.88655356  1.00502112  1
  O  O327  1  0.99080019  0.37648613  0.48587371  1
  O  O328  1  0.99652190  0.38527980  0.99388768  1
  O  O329  1  0.99312875  0.88562458  0.49364622  1
  O  O330  1  0.99906448  0.88434743  0.99519571  1
  O  O331  1  0.48689459  0.50727038  0.38535915  1
  O  O332  1  0.49411989  0.49312238  0.88206037  1
  O  O333  1  0.49442540  0.98867714  0.38233220  1
  O  O334  1  0.49105588  1.00290025  0.88502759  1
  O  O335  1  0.99256765  0.49313966  0.37529822  1
  O  O336  1  0.99502637  0.49247888  0.88695849  1
  O  O337  1  0.99784075  0.99338394  0.38218345  1
  O  O338  1  0.99689946  0.99749226  0.88151919  1
  O  O339  1  0.00987979  0.00826075  0.11782631  1
  O  O340  1  0.00878020  0.00050132  0.61887936  1
  O  O341  1  -0.00777416  0.50413415  0.11184375  1
  O  O342  1  -0.00148124  0.50355584  0.62139483  1
  O  O343  1  0.50968166  0.00142907  0.11722633  1
  O  O344  1  0.49982274  0.00756303  0.61814359  1
  O  O345  1  0.50968092  0.50000504  0.11802566  1
  O  O346  1  0.49117936  0.50506566  0.61049689  1
  O  O347  1  0.24738085  0.38622749  0.24659715  1
  O  O348  1  0.24671448  0.38233253  0.74201508  1
  O  O349  1  0.23615131  0.87314033  0.24964939  1
  O  O350  1  0.24797052  0.88116498  0.74271620  1
  O  O351  1  0.73211302  0.39338430  0.26524365  1
  O  O352  1  0.72622669  0.36958474  0.75077357  1
  O  O353  1  0.75850456  0.89164386  0.25271276  1
  O  O354  1  0.73668625  0.88257836  0.75442115  1
  O  O355  1  0.25909760  0.12848841  0.26756415  1
  O  O356  1  0.25719857  0.11898075  0.75421918  1
  O  O357  1  0.25849021  0.62819236  0.26031109  1
  O  O358  1  0.25482281  0.62007868  0.76115748  1
  O  O359  1  0.76214766  0.12044297  0.25373566  1
  O  O360  1  0.75079108  0.11859159  0.75680950  1
  O  O361  1  0.75660158  0.61620192  0.25702213  1
  O  O362  1  0.75668457  0.62333746  0.75147275  1
  O  O363  1  0.36917523  0.11302154  0.37581793  1
  O  O364  1  0.37052418  0.11436468  0.86699605  1
  O  O365  1  0.37104325  0.62176355  0.36552007  1
  O  O366  1  0.36790930  0.61954208  0.87126200  1
  O  O367  1  0.87144053  0.11952209  0.37099993  1
  O  O368  1  0.86807043  0.11928681  0.86659615  1
  O  O369  1  0.87159142  0.61880161  0.37005989  1
  O  O370  1  0.86891367  0.61959686  0.87005349  1
  O  O371  1  0.12721036  0.37326188  0.13180513  1
  O  O372  1  0.13748297  0.37785921  0.62624656  1
  O  O373  1  0.12515699  0.88122205  0.13628903  1
  O  O374  1  0.12886597  0.88455296  0.62622858  1
  O  O375  1  0.63187019  0.38087167  0.13077832  1
  O  O376  1  0.61280101  0.36235460  0.63148279  1
  O  O377  1  0.63567205  0.89419429  0.12130710  1
  O  O378  1  0.62625019  0.86984136  0.63640622  1
  O  O379  1  0.11711913  0.24248911  0.26442776  1
  O  O380  1  0.11450102  0.25047469  0.75769713  1
  O  O381  1  0.12414342  0.76457720  0.25188338  1
  O  O382  1  0.11559527  0.75105562  0.75969398  1
  O  O383  1  0.62876448  0.25665559  0.26154096  1
  O  O384  1  0.61440328  0.25767637  0.75590199  1
  O  O385  1  0.60000617  0.73887616  0.18346683  1
  O  O386  1  0.62062226  0.75884711  0.75693623  1
  O  O387  1  0.37100068  0.25660142  0.23363021  1
  O  O388  1  0.38120746  0.23648955  0.75801107  1
  O  O389  1  0.37077411  0.74155318  0.23861300  1
  O  O390  1  0.38258224  0.74805105  0.74978315  1
  O  O391  1  0.89633610  0.23204236  0.26085303  1
  O  O392  1  0.87762918  0.24809111  0.73990289  1
  O  O393  1  0.87171331  0.74003269  0.24186235  1
  O  O394  1  0.87843457  0.74398243  0.74624874  1
  O  O395  1  0.38683968  0.50346998  0.48945778  1
  O  O396  1  0.37882333  0.49355780  0.99595316  1
  O  O397  1  0.38803186  0.99230428  0.49342103  1
  O  O398  1  0.38517689  0.99873430  0.99453731  1
  O  O399  1  0.87405446  0.49240303  0.48669035  1
  O  O400  1  0.87646874  0.50347197  0.98834198  1
  O  O401  1  0.88277876  0.99574603  0.49652836  1
  O  O402  1  0.88693899  1.00161742  0.99520057  1
  O  O403  1  0.11436733  0.00197248  0.00470982  1
  O  O404  1  0.11930121  -0.00061543  0.50786411  1
  O  O405  1  0.11135984  0.49762510  -0.00303359  1
  O  O406  1  0.12511579  0.51325411  0.50155698  1
  O  O407  1  0.62177027  0.00949491  0.00421073  1
  O  O408  1  0.61416337  0.01130860  0.49161284  1
  O  O409  1  0.62325708  0.50418358  0.00449112  1
  O  O410  1  0.61194327  0.51082878  0.49319448  1
  O  O411  1  0.37868082  0.36497910  0.11337278  1
  O  O412  1  0.35558758  0.37873099  0.62628455  1
  O  O413  1  0.37173122  0.86643756  0.12261813  1
  O  O414  1  0.37185675  0.86855865  0.61875491  1
  O  O415  1  0.85662937  0.36405654  0.17415914  1
  O  O416  1  0.88061660  0.36218797  0.60060766  1
  O  O417  1  0.87703297  0.86675737  0.12474986  1
  O  O418  1  0.87981272  0.86860958  0.61546935  1
  O  O419  1  0.13871261  0.12737322  0.37858833  1
  O  O420  1  0.12832946  0.13748705  0.87625730  1
  O  O421  1  0.13369566  0.62545988  0.38094186  1
  O  O422  1  0.13153908  0.63302526  0.87100533  1
  O  O423  1  0.63328548  0.13718511  0.37657249  1
  O  O424  1  0.63291615  0.12413002  0.88162216  1
  O  O425  1  0.63350391  0.62403008  0.38566444  1
  O  O426  1  0.62554866  0.63198241  0.88176230  1
