# generated using pymatgen
data_V85Zn86O256
_symmetry_space_group_name_H-M   'P 1'
_cell_length_a   16.92882014
_cell_length_b   16.91283711
_cell_length_c   16.92666787
_cell_angle_alpha   90.06004121
_cell_angle_beta   89.96721580
_cell_angle_gamma   89.96238671
_symmetry_Int_Tables_number   1
_chemical_formula_structural   V85Zn86O256
_chemical_formula_sum   'V85 Zn86 O256'
_cell_volume   4846.34387167
_cell_formula_units_Z   1
loop_
 _symmetry_equiv_pos_site_id
 _symmetry_equiv_pos_as_xyz
  1  'x, y, z'
loop_
 _atom_site_type_symbol
 _atom_site_label
 _atom_site_symmetry_multiplicity
 _atom_site_fract_x
 _atom_site_fract_y
 _atom_site_fract_z
 _atom_site_occupancy
  V  V0  1  0.87393182  0.74354241  0.13647342  1
  V  V1  1  0.25544809  0.11835150  0.87654157  1
  V  V2  1  0.25645144  0.24456098  0.49280355  1
  V  V3  1  0.75486491  0.24738960  0.49295857  1
  V  V4  1  0.12673395  0.37340015  0.24478713  1
  V  V5  1  0.50219983  0.61827606  0.11369334  1
  V  V6  1  0.37520886  0.75881228  0.62163051  1
  V  V7  1  0.62680611  0.50638085  0.62248619  1
  V  V8  1  0.12570409  0.62150427  0.49865487  1
  V  V9  1  0.74893125  0.75074970  0.00130535  1
  V  V10  1  0.87432232  0.25428038  0.62777560  1
  V  V11  1  -0.00892786  0.87476755  0.37694390  1
  V  V12  1  0.62702651  0.37769416  0.74916387  1
  V  V13  1  0.37606749  0.37997747  0.00455470  1
  V  V14  1  0.25681757  0.36741594  0.62396676  1
  V  V15  1  0.25145738  0.87868498  0.12489613  1
  V  V16  1  0.49766450  0.12164289  0.12629621  1
  V  V17  1  0.23732978  0.74613748  -0.00057287  1
  V  V18  1  0.61991691  0.87619858  0.25418967  1
  V  V19  1  0.12204144  0.49355838  0.62296922  1
  V  V20  1  0.87961568  0.50034752  0.36492235  1
  V  V21  1  0.88283183  0.50511169  0.87860317  1
  V  V22  1  0.49455184  -0.00295933  -0.01292868  1
  V  V23  1  0.25409182  0.74886830  0.49725985  1
  V  V24  1  0.13125696  0.23792888  0.37323029  1
  V  V25  1  0.86726591  0.12368157  0.25359941  1
  V  V26  1  0.87314885  0.13050581  0.74632626  1
  V  V27  1  0.37856543  0.50359462  0.87559240  1
  V  V28  1  0.25155765  0.25269058  0.00248472  1
  V  V29  1  0.00275641  0.23985678  0.24342003  1
  V  V30  1  0.62905506  0.87403216  0.74307534  1
  V  V31  1  0.49923722  0.62745630  0.61986398  1
  V  V32  1  0.23894887  0.88056304  0.62777023  1
  V  V33  1  0.49716790  0.75751785  0.75299263  1
  V  V34  1  0.62477541  0.25886953  0.37703772  1
  V  V35  1  0.88365506  0.37735055  0.50088030  1
  V  V36  1  0.63059604  0.49011204  0.11550656  1
  V  V37  1  0.24903354  0.62030217  0.37297403  1
  V  V38  1  0.37873490  0.11431957  0.75242161  1
  V  V39  1  -0.00369953  0.00796849  0.51794091  1
  V  V40  1  0.12815785  0.50205936  0.11126846  1
  V  V41  1  -0.00208422  0.00480950  0.00388925  1
  V  V42  1  0.87904927  -0.01205380  0.86666860  1
  V  V43  1  0.25014754  0.49125120  0.24480823  1
  V  V44  1  0.50919121  0.50139860  0.49307847  1
  V  V45  1  0.62582218  0.73994806  0.37795014  1
  V  V46  1  0.62429657  0.24941332  0.87341531  1
  V  V47  1  0.75154520  0.12265473  0.87614663  1
  V  V48  1  0.38122999  0.49355102  0.37315810  1
  V  V49  1  0.12415635  0.12456175  0.00454633  1
  V  V50  1  0.37164734  0.25092127  0.12701454  1
  V  V51  1  0.00107087  0.63868903  0.62663618  1
  V  V52  1  0.49151210  0.25176946  0.74511458  1
  V  V53  1  0.87302883  0.87606437  0.00607783  1
  V  V54  1  0.32820046  0.93317782  0.44218887  1
  V  V55  1  0.00029249  0.24999423  0.75266847  1
  V  V56  1  0.37591398  0.62065164  0.24676047  1
  V  V57  1  0.38359300  0.37244958  0.50127644  1
  V  V58  1  0.23251029  0.00007515  0.74730764  1
  V  V59  1  0.37111581  0.11615484  0.26330508  1
  V  V60  1  0.74803794  -0.00131144  0.73988863  1
  V  V61  1  -0.00467033  0.61491616  0.12052488  1
  V  V62  1  0.75258306  0.62905652  0.87189038  1
  V  V63  1  0.37534101  0.74982339  0.12093339  1
  V  V64  1  0.49980367  0.25568313  0.25571894  1
  V  V65  1  0.50058894  -0.00615200  0.49479684  1
  V  V66  1  0.75009804  0.74362948  0.51082924  1
  V  V67  1  0.12011271  0.74854850  0.85496736  1
  V  V68  1  0.74691653  0.87768631  0.13191262  1
  V  V69  1  0.87109239  0.24995023  0.12060107  1
  V  V70  1  0.88211001  0.63551727  0.74434061  1
  V  V71  1  0.50173529  0.38134756  0.87886205  1
  V  V72  1  0.62592508  0.12165673  0.00116240  1
  V  V73  1  0.37598300  0.87751391  -0.01558836  1
  V  V74  1  0.00141221  0.38034007  0.88524331  1
  V  V75  1  0.75734779  0.62435507  0.36582564  1
  V  V76  1  0.63104766  0.12225119  0.49401370  1
  V  V77  1  0.49943652  0.74699379  0.24915745  1
  V  V78  1  0.49926292  0.12772334  0.62176292  1
  V  V79  1  0.12218078  0.00339551  0.12808636  1
  V  V80  1  0.86906332  0.86888857  0.51689488  1
  V  V81  1  0.12542823  0.25031031  0.87810286  1
  V  V82  1  0.62310488  0.75689812  0.87544105  1
  V  V83  1  0.12016741  0.87203603  0.25025604  1
  V  V84  1  0.25141564  0.50057962  0.74775448  1
  Zn  Zn85  1  0.75449186  0.49306778  0.24167790  1
  Zn  Zn86  1  0.01260013  0.87370388  0.87059263  1
  Zn  Zn87  1  0.62549478  -0.00440154  0.62042400  1
  Zn  Zn88  1  0.25008708  -0.00012584  0.26832884  1
  Zn  Zn89  1  0.75429641  0.50197874  0.74730007  1
  Zn  Zn90  1  0.62093587  0.62186114  -0.00608941  1
  Zn  Zn91  1  0.49545853  0.87150137  0.37957490  1
  Zn  Zn92  1  0.24422642  0.62104011  0.88049499  1
  Zn  Zn93  1  0.62431514  0.00071264  0.12720445  1
  Zn  Zn94  1  0.00054803  0.49943560  0.49913370  1
  Zn  Zn95  1  0.74122656  0.00762979  0.25928128  1
  Zn  Zn96  1  0.62911684  0.37542023  0.24873036  1
  Zn  Zn97  1  0.86890336  0.00680634  0.38266943  1
  Zn  Zn98  1  0.74464196  0.25748359  0.00612954  1
  Zn  Zn99  1  0.00464524  0.37299495  0.37505908  1
  Zn  Zn100  1  0.87058796  0.38729982  0.00888474  1
  Zn  Zn101  1  0.75009469  0.37905338  0.62278966  1
  Zn  Zn102  1  0.12590679  0.37403174  0.75080147  1
  Zn  Zn103  1  -0.00543015  0.74122556  0.25456021  1
  Zn  Zn104  1  0.37428484  0.62802749  0.75018124  1
  Zn  Zn105  1  0.13174947  0.11685540  0.51137651  1
  Zn  Zn106  1  0.12105359  0.74542393  0.37393221  1
  Zn  Zn107  1  0.19339317  0.18348061  0.18960950  1
  Zn  Zn108  1  0.18797166  0.18507539  0.68705338  1
  Zn  Zn109  1  0.18354761  0.68313342  0.18453938  1
  Zn  Zn110  1  0.18982932  0.68364208  0.68311194  1
  Zn  Zn111  1  0.68825899  0.19191789  0.18780990  1
  Zn  Zn112  1  0.68602141  0.18938162  0.68318814  1
  Zn  Zn113  1  0.68536228  0.68337685  0.18775075  1
  Zn  Zn114  1  0.68657263  0.68467694  0.69059337  1
  Zn  Zn115  1  0.31506808  0.31316750  0.31303587  1
  Zn  Zn116  1  0.31373621  0.31227464  0.81409196  1
  Zn  Zn117  1  0.30605151  0.80579530  0.30467823  1
  Zn  Zn118  1  0.30483154  0.81374162  0.81004636  1
  Zn  Zn119  1  0.81381250  0.31508584  0.31150645  1
  Zn  Zn120  1  0.80850299  0.31858794  0.82687005  1
  Zn  Zn121  1  0.80825865  0.81588137  0.31745315  1
  Zn  Zn122  1  0.82484570  0.82079621  0.80602674  1
  Zn  Zn123  1  0.18942087  0.42993619  0.43538119  1
  Zn  Zn124  1  0.19281140  0.43394974  0.93452809  1
  Zn  Zn125  1  0.16441419  0.93428891  0.44377601  1
  Zn  Zn126  1  0.18670559  0.93416283  0.93571638  1
  Zn  Zn127  1  0.69541017  0.43575793  0.43533014  1
  Zn  Zn128  1  0.69240733  0.44159464  0.93878005  1
  Zn  Zn129  1  0.69094265  0.93416580  0.43553712  1
  Zn  Zn130  1  0.68942303  0.93714766  0.93587317  1
  Zn  Zn131  1  0.31376812  0.06107358  0.06439429  1
  Zn  Zn132  1  0.31392284  0.06909040  0.57367757  1
  Zn  Zn133  1  0.31069043  0.56195561  0.06215641  1
  Zn  Zn134  1  0.31591783  0.56140492  0.56263240  1
  Zn  Zn135  1  0.81408871  0.06581171  0.07053865  1
  Zn  Zn136  1  0.81553319  0.06388858  0.56289854  1
  Zn  Zn137  1  0.81106023  0.56603534  0.05994520  1
  Zn  Zn138  1  0.81411914  0.56445798  0.55907832  1
  Zn  Zn139  1  0.44448761  0.43751853  0.18354133  1
  Zn  Zn140  1  0.43964953  0.43916336  0.68660824  1
  Zn  Zn141  1  0.43789595  0.93777173  0.18566902  1
  Zn  Zn142  1  0.43767165  0.93760928  0.68394579  1
  Zn  Zn143  1  0.94329555  0.43172436  0.18705936  1
  Zn  Zn144  1  0.93865315  0.43845064  0.69417743  1
  Zn  Zn145  1  0.93762140  0.93888180  0.18879690  1
  Zn  Zn146  1  0.93512418  0.93406870  0.69210752  1
  Zn  Zn147  1  0.05723529  0.05941752  0.31944416  1
  Zn  Zn148  1  0.05966629  0.06786592  0.81742831  1
  Zn  Zn149  1  0.05991448  0.56111682  0.30757506  1
  Zn  Zn150  1  0.06535010  0.56560023  0.81331708  1
  Zn  Zn151  1  0.55928166  0.06479310  0.31684973  1
  Zn  Zn152  1  0.56358158  0.06095076  0.81159806  1
  Zn  Zn153  1  0.56716632  0.56128543  0.30541813  1
  Zn  Zn154  1  0.56201507  0.56769771  0.80859007  1
  Zn  Zn155  1  0.44139116  0.18772597  0.43850657  1
  Zn  Zn156  1  0.43889691  0.18808451  0.93604242  1
  Zn  Zn157  1  0.43696851  0.68390911  0.43646016  1
  Zn  Zn158  1  0.43412025  0.69199552  0.93540013  1
  Zn  Zn159  1  0.94149218  0.19002420  0.43405310  1
  Zn  Zn160  1  0.93847066  0.18358786  0.93670624  1
  Zn  Zn161  1  0.93618606  0.68624770  0.43946888  1
  Zn  Zn162  1  0.94272270  0.68993317  0.94087383  1
  Zn  Zn163  1  0.06062304  0.31414901  0.06618686  1
  Zn  Zn164  1  0.07731610  0.28164049  0.57599833  1
  Zn  Zn165  1  0.05561972  0.81279509  0.06470409  1
  Zn  Zn166  1  0.06265194  0.81262160  0.55807933  1
  Zn  Zn167  1  0.55864246  0.30889842  0.06096875  1
  Zn  Zn168  1  0.56460029  0.31406697  0.56257337  1
  Zn  Zn169  1  0.56054028  0.81304588  0.06194361  1
  Zn  Zn170  1  0.56628828  0.81241925  0.56050325  1
  O  O171  1  0.13332371  0.10996905  0.12241230  1
  O  O172  1  0.11282529  0.17241855  0.60748190  1
  O  O173  1  0.11913473  0.60860265  0.12406669  1
  O  O174  1  0.12032860  0.61471485  0.61858190  1
  O  O175  1  0.61740772  0.12601201  0.11810022  1
  O  O176  1  0.61535583  0.12440682  0.61451567  1
  O  O177  1  0.61634944  0.61799373  0.12052888  1
  O  O178  1  0.61640802  0.61419278  0.62874907  1
  O  O179  1  0.37522192  0.38737617  0.38150558  1
  O  O180  1  0.38200887  0.38390781  0.88018124  1
  O  O181  1  0.37490235  0.86969446  0.37476256  1
  O  O182  1  0.37089301  0.87137192  0.88538718  1
  O  O183  1  0.88027825  0.38116484  0.38368188  1
  O  O184  1  0.88753105  0.38853073  0.87094650  1
  O  O185  1  0.88365589  0.87365051  0.38176970  1
  O  O186  1  0.83764516  0.88246733  0.90677342  1
  O  O187  1  0.25490118  -0.01480568  0.38761115  1
  O  O188  1  0.24462213  0.01265594  0.86943151  1
  O  O189  1  0.25873207  0.50195990  0.36644267  1
  O  O190  1  0.25792921  0.50012722  0.86552123  1
  O  O191  1  0.75699487  -0.00528367  0.37012784  1
  O  O192  1  0.75256592  0.01010777  0.86562562  1
  O  O193  1  0.76035010  0.50994632  0.37769080  1
  O  O194  1  0.75605122  0.51739895  0.87130154  1
  O  O195  1  0.23879349  0.50301680  0.13162409  1
  O  O196  1  0.24332097  0.49274457  0.62894635  1
  O  O197  1  0.24301143  0.98788520  0.12349819  1
  O  O198  1  0.25164647  0.99397734  0.63394861  1
  O  O199  1  0.73564583  0.50594107  0.12298085  1
  O  O200  1  0.74072402  0.50083198  0.62487650  1
  O  O201  1  0.74602872  0.99175273  0.13358795  1
  O  O202  1  0.74523913  1.00642982  0.63618457  1
  O  O203  1  0.01066261  0.36063502  0.25130033  1
  O  O204  1  0.00236850  0.36432710  0.76110723  1
  O  O205  1  0.00443778  0.87296385  0.25770426  1
  O  O206  1  -0.07082165  0.89159187  0.79500401  1
  O  O207  1  0.50346710  0.35900345  0.24444593  1
  O  O208  1  0.50725063  0.36969381  0.75563740  1
  O  O209  1  0.50430744  0.86670082  0.25193873  1
  O  O210  1  0.50673918  0.86407466  0.74510765  1
  O  O211  1  0.49136402  0.13108245  0.24331175  1
  O  O212  1  0.49660860  0.13125344  0.74536574  1
  O  O213  1  0.49389223  0.62925823  0.23977707  1
  O  O214  1  0.49819645  0.63752588  0.73745352  1
  O  O215  1  0.99700455  0.13575921  0.25255370  1
  O  O216  1  0.98764798  0.14048864  0.76034303  1
  O  O217  1  1.00886146  0.62851344  0.23085347  1
  O  O218  1  0.98997291  0.62134792  0.74220973  1
  O  O219  1  0.37082640  0.25512219  0.00689778  1
  O  O220  1  0.37178300  0.26182752  0.49223794  1
  O  O221  1  0.36639379  0.75904747  0.00410546  1
  O  O222  1  0.36285213  0.74397966  0.50518838  1
  O  O223  1  0.87725296  0.24097977  0.01563366  1
  O  O224  1  0.87157657  0.25312082  0.50788974  1
  O  O225  1  0.86856283  0.75801054  0.01083470  1
  O  O226  1  0.86394448  0.75941080  0.49776386  1
  O  O227  1  0.14261640  0.26722754  0.48137898  1
  O  O228  1  0.13441268  0.24659464  1.00110248  1
  O  O229  1  0.13883407  0.74329024  0.49784595  1
  O  O230  1  0.13692904  0.75633757  1.00317964  1
  O  O231  1  0.63345996  0.24501382  0.49628126  1
  O  O232  1  0.62369780  0.23757392  0.99356231  1
  O  O233  1  0.63968200  0.75609790  0.49053461  1
  O  O234  1  0.62952013  0.75026421  0.99119572  1
  O  O235  1  0.49109647  0.23911402  0.12949264  1
  O  O236  1  0.50683275  0.24308841  0.63414822  1
  O  O237  1  0.49413686  0.74287840  0.12993347  1
  O  O238  1  0.49379594  0.74550391  0.62647097  1
  O  O239  1  0.99541031  0.24790519  0.13739370  1
  O  O240  1  0.98149636  0.26094698  0.63919985  1
  O  O241  1  0.98919281  0.74411053  0.12961137  1
  O  O242  1  1.00654624  0.73821733  0.62382039  1
  O  O243  1  0.01175645  0.25181080  0.36392063  1
  O  O244  1  0.00452606  0.25654113  0.87216900  1
  O  O245  1  0.00093078  0.75603819  0.37324714  1
  O  O246  1  0.01594294  0.75168702  0.87578604  1
  O  O247  1  0.50949601  0.24629421  0.36640736  1
  O  O248  1  0.50619998  0.25814135  0.86700015  1
  O  O249  1  0.50730891  0.74732922  0.36981573  1
  O  O250  1  0.50892668  0.74471771  0.86425194  1
  O  O251  1  0.25304315  0.14099128  0.50715803  1
  O  O252  1  0.24870934  0.13230483  0.99403614  1
  O  O253  1  0.24602567  0.62941490  0.49548440  1
  O  O254  1  0.25478890  0.64256859  1.00049382  1
  O  O255  1  0.74264249  0.13355900  0.50683644  1
  O  O256  1  0.74200251  0.12347040  0.99412783  1
  O  O257  1  0.75623045  0.63849307  0.48944728  1
  O  O258  1  0.74789285  0.63509612  0.98942335  1
  O  O259  1  0.26155294  0.36036593  -0.00611664  1
  O  O260  1  0.26424864  0.37121620  0.50528151  1
  O  O261  1  0.25643460  0.86808392  0.00659607  1
  O  O262  1  0.25514157  0.87131177  0.50073935  1
  O  O263  1  0.76357067  0.36399052  -0.02671350  1
  O  O264  1  0.76346083  0.36567320  0.50144624  1
  O  O265  1  0.74474183  0.87143093  0.01991741  1
  O  O266  1  0.76209824  0.86308212  0.49878431  1
  O  O267  1  0.13363722  0.49069050  0.24406607  1
  O  O268  1  0.13478128  0.49692152  0.74242409  1
  O  O269  1  0.12567941  0.99138295  0.24704618  1
  O  O270  1  0.13287943  1.01149384  0.74983313  1
  O  O271  1  0.62548598  0.49635875  0.23267327  1
  O  O272  1  0.62471672  0.49392349  0.74145675  1
  O  O273  1  0.61989541  0.99100130  0.25011260  1
  O  O274  1  0.63056842  0.99197202  0.74915038  1
  O  O275  1  0.37434768  0.01187724  0.24856221  1
  O  O276  1  0.37164688  0.01187270  0.74750944  1
  O  O277  1  0.37130350  0.49924804  0.25341767  1
  O  O278  1  0.36999670  0.50093572  0.75750781  1
  O  O279  1  0.87822012  0.01729401  0.24745647  1
  O  O280  1  0.86381667  0.01600195  0.74816208  1
  O  O281  1  0.87709526  0.49251042  0.26113667  1
  O  O282  1  0.87362815  0.50996360  0.76116260  1
  O  O283  1  0.12731695  0.36812087  0.35846616  1
  O  O284  1  0.11967255  0.36845289  0.87397288  1
  O  O285  1  0.11042226  0.87024314  0.36738936  1
  O  O286  1  0.12688807  0.85797457  0.87524857  1
  O  O287  1  0.62409935  0.36192830  0.38004414  1
  O  O288  1  0.61681107  0.37434933  0.86826796  1
  O  O289  1  0.62359998  0.86276321  0.36480581  1
  O  O290  1  0.63053984  0.86313011  0.86585878  1
  O  O291  1  0.38125953  0.13157149  0.13095646  1
  O  O292  1  0.39072066  0.12838408  0.63577638  1
  O  O293  1  0.38222113  0.62689753  0.12814304  1
  O  O294  1  0.38184811  0.63563912  0.62621549  1
  O  O295  1  0.87752145  0.13727226  0.13891063  1
  O  O296  1  0.86910252  0.13706525  0.63911917  1
  O  O297  1  0.88412166  0.62938756  0.12503679  1
  O  O298  1  0.88588555  0.61705982  0.63633946  1
  O  O299  1  0.26315199  0.24511358  0.11824715  1
  O  O300  1  0.25492544  0.26410798  0.61864057  1
  O  O301  1  0.25176356  0.75791403  0.11646413  1
  O  O302  1  0.25670087  0.75571558  0.61730614  1
  O  O303  1  0.76506068  0.24880740  0.12329558  1
  O  O304  1  0.75872479  0.25508504  0.61764028  1
  O  O305  1  0.75462335  0.75368320  0.12232940  1
  O  O306  1  0.74464816  0.74119354  0.60965476  1
  O  O307  1  0.24626594  0.25098484  0.38011697  1
  O  O308  1  0.24665751  0.24145588  0.88180250  1
  O  O309  1  0.24848381  0.73995928  0.38087362  1
  O  O310  1  0.24067618  0.74836859  0.88459527  1
  O  O311  1  0.74524352  0.24968314  0.38748517  1
  O  O312  1  0.74257902  0.23430654  0.87262964  1
  O  O313  1  0.74423435  0.74219990  0.37974576  1
  O  O314  1  0.74528654  0.74316361  0.87680807  1
  O  O315  1  0.01011220  0.11602480  -0.00180846  1
  O  O316  1  -0.01300838  0.10889788  0.50205227  1
  O  O317  1  0.00197443  0.63244031  0.02078303  1
  O  O318  1  0.00782473  0.62223516  0.50836086  1
  O  O319  1  0.50491714  0.12015714  0.00672752  1
  O  O320  1  0.50573249  0.11890875  0.50683408  1
  O  O321  1  0.49917291  0.63193182  0.01038553  1
  O  O322  1  0.49740504  0.61696273  0.51113308  1
  O  O323  1  0.49141620  0.38494937  0.50522943  1
  O  O324  1  0.49096957  0.36850500  0.98616804  1
  O  O325  1  0.50114297  0.88429700  0.49937985  1
  O  O326  1  0.48860030  0.88464243  1.00643942  1
  O  O327  1  0.98922725  0.37030030  0.50145970  1
  O  O328  1  0.99499544  0.36962001  0.98848745  1
  O  O329  1  0.98842039  0.87828595  0.49631625  1
  O  O330  1  0.98651040  0.88073639  0.99679103  1
  O  O331  1  0.49508081  0.50820204  0.38204606  1
  O  O332  1  0.49284119  0.49260176  0.86807872  1
  O  O333  1  0.49931535  0.99737543  0.38930331  1
  O  O334  1  0.49935569  1.00544501  0.88770543  1
  O  O335  1  0.99463394  0.49559323  0.37741757  1
  O  O336  1  0.99649727  0.49308025  0.87107520  1
  O  O337  1  0.99194726  0.99053404  0.38652661  1
  O  O338  1  0.99821602  0.99886170  0.88892238  1
  O  O339  1  0.00901526  -0.00649628  0.11435313  1
  O  O340  1  -0.00642965  -0.00448971  0.61754366  1
  O  O341  1  0.01013852  0.50625959  0.12550504  1
  O  O342  1  0.01437462  0.49987657  0.62613115  1
  O  O343  1  0.50043206  0.01204014  0.11867935  1
  O  O344  1  0.50252473  0.00796730  0.61547147  1
  O  O345  1  0.51137118  0.50876066  0.12372683  1
  O  O346  1  0.50559990  0.50893055  0.61821787  1
  O  O347  1  0.24733267  0.38418955  0.24866896  1
  O  O348  1  0.25334987  0.38312260  0.74246703  1
  O  O349  1  0.24155027  0.87961617  0.24233506  1
  O  O350  1  0.25186178  0.88863589  0.74112710  1
  O  O351  1  0.74263658  0.37963722  0.25778838  1
  O  O352  1  0.73614761  0.37762029  0.75244777  1
  O  O353  1  0.73953528  0.87279366  0.24274502  1
  O  O354  1  0.74346652  0.88713956  0.75354044  1
  O  O355  1  0.26535410  0.11836809  0.25096251  1
  O  O356  1  0.25837303  0.12178259  0.75503002  1
  O  O357  1  0.25510840  0.61336853  0.25179778  1
  O  O358  1  0.25429823  0.61108673  0.74792195  1
  O  O359  1  0.76322047  0.12707718  0.24847630  1
  O  O360  1  0.75208515  0.12194298  0.75662167  1
  O  O361  1  0.74849506  0.61994748  0.26208629  1
  O  O362  1  0.76222899  0.62493026  0.75465935  1
  O  O363  1  0.38044278  0.12582087  0.36131286  1
  O  O364  1  0.36658289  0.13063370  0.86666921  1
  O  O365  1  0.36996244  0.61312405  0.36760331  1
  O  O366  1  0.37304668  0.61350364  0.87425693  1
  O  O367  1  0.87995312  0.12812969  0.35806954  1
  O  O368  1  0.86769320  0.11685512  0.86733014  1
  O  O369  1  0.87013341  0.61413099  0.37742478  1
  O  O370  1  0.87368487  0.62546594  0.86682790  1
  O  O371  1  0.12078559  0.38641184  0.13467583  1
  O  O372  1  0.13564208  0.37822663  0.62706852  1
  O  O373  1  0.12890078  0.88300074  0.13127900  1
  O  O374  1  0.13996877  0.87167583  0.61767329  1
  O  O375  1  0.61969366  0.38658212  0.11912872  1
  O  O376  1  0.62518573  0.38630378  0.63276794  1
  O  O377  1  0.62849217  0.87410481  0.13805078  1
  O  O378  1  0.62498547  0.87467310  0.63849964  1
  O  O379  1  0.12153179  0.25128119  0.25119025  1
  O  O380  1  0.11619121  0.25011065  0.76058241  1
  O  O381  1  0.12683057  0.76299643  0.24891220  1
  O  O382  1  0.12990587  0.74995250  0.75592644  1
  O  O383  1  0.61735216  0.24764153  0.25951749  1
  O  O384  1  0.61716765  0.25785979  0.75399584  1
  O  O385  1  0.61826537  0.75418990  0.25636450  1
  O  O386  1  0.61913234  0.75601333  0.75474951  1
  O  O387  1  0.38003880  0.24255564  0.24409803  1
  O  O388  1  0.38784876  0.24410653  0.75489606  1
  O  O389  1  0.37822307  0.74131438  0.24078166  1
  O  O390  1  0.38065490  0.75017931  0.74322040  1
  O  O391  1  0.88522664  0.24348313  0.24504539  1
  O  O392  1  0.87537885  0.24921568  0.74832409  1
  O  O393  1  0.87150206  0.75494123  0.23880197  1
  O  O394  1  0.87415934  0.73428278  0.74900580  1
  O  O395  1  0.38555755  0.49590119  0.49136395  1
  O  O396  1  0.36800613  0.48863010  0.99230509  1
  O  O397  1  0.38043077  1.00071229  0.50370170  1
  O  O398  1  0.38171807  0.99031019  1.00381044  1
  O  O399  1  0.87838037  0.49157140  0.49327977  1
  O  O400  1  0.87312197  0.50473990  0.98457971  1
  O  O401  1  0.87886473  0.98637441  0.50398737  1
  O  O402  1  0.88221673  0.99676178  1.00012754  1
  O  O403  1  0.11934333  0.00185401  0.00817212  1
  O  O404  1  0.10390333  0.00390913  0.50606171  1
  O  O405  1  0.13358302  0.49329572  0.01272266  1
  O  O406  1  0.12655040  0.50103316  0.50670246  1
  O  O407  1  0.61818796  0.00834650  0.00122854  1
  O  O408  1  0.62005107  0.00543691  0.50018826  1
  O  O409  1  0.62570738  0.50368067  0.00934366  1
  O  O410  1  0.61593212  0.49301732  0.50552281  1
  O  O411  1  0.38283592  0.36632094  0.11402422  1
  O  O412  1  0.36903572  0.38415287  0.61401703  1
  O  O413  1  0.36530917  0.86926507  0.12255470  1
  O  O414  1  0.36767294  0.86306565  0.62611361  1
  O  O415  1  0.88326007  0.35722947  0.12300676  1
  O  O416  1  0.87128567  0.37288238  0.62111866  1
  O  O417  1  0.86585528  0.87022002  0.12243841  1
  O  O418  1  0.87535091  0.86859302  0.61510463  1
  O  O419  1  0.12234880  0.13476965  0.38457425  1
  O  O420  1  0.13370948  0.13245070  0.88456905  1
  O  O421  1  0.13120958  0.62220966  0.38051766  1
  O  O422  1  0.12889672  0.64049216  0.87247987  1
  O  O423  1  0.62018894  0.13461703  0.38939591  1
  O  O424  1  0.63107298  0.12743916  0.88152454  1
  O  O425  1  0.63244847  0.63471947  0.37137948  1
  O  O426  1  0.63382343  0.63600330  0.87145946  1
