# generated using pymatgen
data_V85Zn86O256
_symmetry_space_group_name_H-M   'P 1'
_cell_length_a   16.91800520
_cell_length_b   16.91275739
_cell_length_c   16.91995987
_cell_angle_alpha   89.98219616
_cell_angle_beta   90.00765567
_cell_angle_gamma   89.94686969
_symmetry_Int_Tables_number   1
_chemical_formula_structural   V85Zn86O256
_chemical_formula_sum   'V85 Zn86 O256'
_cell_volume   4841.30774492
_cell_formula_units_Z   1
loop_
 _symmetry_equiv_pos_site_id
 _symmetry_equiv_pos_as_xyz
  1  'x, y, z'
loop_
 _atom_site_type_symbol
 _atom_site_label
 _atom_site_symmetry_multiplicity
 _atom_site_fract_x
 _atom_site_fract_y
 _atom_site_fract_z
 _atom_site_occupancy
  V  V0  1  0.51045388  0.75373959  0.24753550  1
  V  V1  1  0.13376866  0.49818240  0.62575181  1
  V  V2  1  0.49924082  0.74934612  0.74434656  1
  V  V3  1  0.13036128  0.75149949  0.38150730  1
  V  V4  1  0.61689370  0.12192366  0.00626565  1
  V  V5  1  0.12332605  0.87899097  0.24820496  1
  V  V6  1  0.87655139  0.62362200  0.24924430  1
  V  V7  1  0.12122652  0.37667308  0.25392693  1
  V  V8  1  -0.00038825  0.11887011  0.12949022  1
  V  V9  1  0.37529941  0.87672832  -0.00080591  1
  V  V10  1  0.37638183  0.12461537  0.74763543  1
  V  V11  1  0.13141755  0.62441032  -0.00337149  1
  V  V12  1  0.13076655  0.37347593  0.74675575  1
  V  V13  1  -0.01516857  0.88233421  0.37901829  1
  V  V14  1  0.74984199  0.63029324  0.37989528  1
  V  V15  1  0.50292793  0.24869449  0.24826136  1
  V  V16  1  0.49854589  0.50594036  0.50019722  1
  V  V17  1  0.36857496  0.37996902  0.50010463  1
  V  V18  1  0.37223359  0.74060367  0.61979939  1
  V  V19  1  0.49929824  0.00521995  0.01549556  1
  V  V20  1  -0.00293503  0.24802201  0.75123960  1
  V  V21  1  0.87141013  0.62730186  0.75055187  1
  V  V22  1  0.74251663  0.88667175  0.12931827  1
  V  V23  1  0.37614788  0.00077097  0.38255206  1
  V  V24  1  0.86974970  0.74944915  0.60922166  1
  V  V25  1  0.62879985  0.00055985  0.62969915  1
  V  V26  1  0.74304036  0.49779761  0.24297021  1
  V  V27  1  0.74936175  0.10711397  0.87295205  1
  V  V28  1  0.75148808  0.87214516  0.60773562  1
  V  V29  1  0.00126234  0.50107421  0.00124762  1
  V  V30  1  0.12541887  0.12050608  0.00822296  1
  V  V31  1  0.87372967  0.24565021  0.62831175  1
  V  V32  1  0.87284855  0.11078704  0.25447379  1
  V  V33  1  0.24877320  0.12295882  0.87570494  1
  V  V34  1  0.62384888  0.50133188  0.62490548  1
  V  V35  1  0.87498404  0.37324280  0.50086090  1
  V  V36  1  0.12225760  0.24767139  0.87841104  1
  V  V37  1  0.51585613  0.61543453  0.11766590  1
  V  V38  1  0.37904996  0.00236444  0.87383220  1
  V  V39  1  0.25513637  0.62734992  0.38066544  1
  V  V40  1  0.87859860  0.49303197  0.37404830  1
  V  V41  1  0.25116254  0.74883063  -0.00180579  1
  V  V42  1  0.87131943  0.10981623  0.75343926  1
  V  V43  1  0.49825562  0.11874211  0.62022863  1
  V  V44  1  -0.00377009  0.25153386  0.25455268  1
  V  V45  1  0.62318184  0.74412269  0.87780095  1
  V  V46  1  -0.00114615  0.75075645  0.74852345  1
  V  V47  1  0.50182259  0.25958012  0.74857813  1
  V  V48  1  0.50659670  0.49268777  -0.01687186  1
  V  V49  1  0.74968435  0.10455747  0.36933582  1
  V  V50  1  0.25620774  0.49969716  0.25305846  1
  V  V51  1  0.87103349  0.87629791  -0.00324015  1
  V  V52  1  0.00160749  0.75003047  0.25059968  1
  V  V53  1  0.00106001  0.62470899  0.62403922  1
  V  V54  1  0.37389745  0.87102721  0.50031891  1
  V  V55  1  0.37627786  0.25309715  0.12521076  1
  V  V56  1  0.12997590  0.74813929  0.87224064  1
  V  V57  1  0.62488449  0.63381852  0.50394478  1
  V  V58  1  0.37943219  0.62255025  0.25171555  1
  V  V59  1  0.74682137  0.74301665  0.00179100  1
  V  V60  1  0.12652859  0.50087642  0.12633774  1
  V  V61  1  0.36965766  0.25525049  0.62264150  1
  V  V62  1  -0.00733923  -0.00092037  0.50761191  1
  V  V63  1  0.37589366  0.12527701  0.24879827  1
  V  V64  1  0.12476459  0.88366561  0.74432616  1
  V  V65  1  0.62996625  0.25335710  0.37708668  1
  V  V66  1  -0.00323202  0.87941788  0.87410337  1
  V  V67  1  0.24574384  0.00094481  0.24732681  1
  V  V68  1  0.50295381  0.87972374  0.37640574  1
  V  V69  1  -0.00090879  -0.00145106  0.00231823  1
  V  V70  1  0.00351565  0.49607117  0.49743023  1
  V  V71  1  0.62796300  0.25501313  0.87393073  1
  V  V72  1  0.24772948  0.87743077  0.12539817  1
  V  V73  1  -0.00087897  0.37391408  0.87609838  1
  V  V74  1  0.87192435  0.37133211  0.00504974  1
  V  V75  1  0.87265223  0.50052147  0.87497265  1
  V  V76  1  0.25349568  0.50272784  0.76403729  1
  V  V77  1  0.63319512  0.87585843  0.75059666  1
  V  V78  1  0.37300815  0.62365818  0.76503727  1
  V  V79  1  0.24690835  0.87669337  0.61860467  1
  V  V80  1  0.12049948  0.25295623  0.37939870  1
  V  V81  1  0.24735471  0.12821309  0.37877972  1
  V  V82  1  0.62403735  0.12187317  0.50023645  1
  V  V83  1  0.37795007  0.74915170  0.12457074  1
  V  V84  1  0.49638632  0.38080820  0.37667130  1
  Zn  Zn85  1  0.24701730  0.00254877  0.74234636  1
  Zn  Zn86  1  0.63296522  0.75882213  0.37855541  1
  Zn  Zn87  1  0.25232387  0.37588443  0.12205073  1
  Zn  Zn88  1  0.75298685  0.24756255  0.49886247  1
  Zn  Zn89  1  0.37145790  0.39452865  -0.02901275  1
  Zn  Zn90  1  0.86962967  0.24711357  0.12833891  1
  Zn  Zn91  1  0.50136886  0.87697623  0.87438422  1
  Zn  Zn92  1  0.74866636  0.24535544  0.00357638  1
  Zn  Zn93  1  0.62716504  0.91395360  0.24588683  1
  Zn  Zn94  1  0.62590316  0.37969641  0.75139781  1
  Zn  Zn95  1  0.74843579  0.49811917  0.74933984  1
  Zn  Zn96  1  0.25167295  0.25392904  0.00166170  1
  Zn  Zn97  1  0.12699534  0.11104811  0.50783939  1
  Zn  Zn98  1  0.73652861  0.36950282  0.12130170  1
  Zn  Zn99  1  0.24496012  0.25477721  0.50532210  1
  Zn  Zn100  1  0.74802144  0.37390038  0.62752780  1
  Zn  Zn101  1  0.62005482  0.37935234  0.24628428  1
  Zn  Zn102  1  0.00653533  0.11630122  0.63067634  1
  Zn  Zn103  1  0.00180394  0.62763337  0.12450989  1
  Zn  Zn104  1  0.13139107  0.62810471  0.50296803  1
  Zn  Zn105  1  0.74465154  0.62220400  0.87942836  1
  Zn  Zn106  1  0.87376082  0.75113838  0.12489782  1
  Zn  Zn107  1  0.18733367  0.18939430  0.18943935  1
  Zn  Zn108  1  0.18690727  0.18578392  0.68741673  1
  Zn  Zn109  1  0.18931500  0.68752931  0.18809691  1
  Zn  Zn110  1  0.19176537  0.68927248  0.68669935  1
  Zn  Zn111  1  0.68641677  0.17957423  0.18851316  1
  Zn  Zn112  1  0.69097262  0.18672329  0.69011813  1
  Zn  Zn113  1  0.69157869  0.69012664  0.18759616  1
  Zn  Zn114  1  0.68743649  0.68763517  0.68577939  1
  Zn  Zn115  1  0.31191223  0.31482448  0.31432372  1
  Zn  Zn116  1  0.31060485  0.31185380  0.81068443  1
  Zn  Zn117  1  0.31497154  0.81065546  0.31190973  1
  Zn  Zn118  1  0.31099999  0.81448114  0.80970417  1
  Zn  Zn119  1  0.81418544  0.31167114  0.31204597  1
  Zn  Zn120  1  0.80757571  0.31108775  0.81316376  1
  Zn  Zn121  1  0.81029425  0.81258192  0.30767531  1
  Zn  Zn122  1  0.81016102  0.81243998  0.81215722  1
  Zn  Zn123  1  0.18886635  0.43969529  0.43336413  1
  Zn  Zn124  1  0.18834001  0.43427058  0.93813363  1
  Zn  Zn125  1  0.18512996  0.93644875  0.43725776  1
  Zn  Zn126  1  0.18553811  0.93863914  0.93587707  1
  Zn  Zn127  1  0.68903598  0.44081083  0.43660655  1
  Zn  Zn128  1  0.68460971  0.43879522  0.94214948  1
  Zn  Zn129  1  0.68077117  0.94077853  0.43981684  1
  Zn  Zn130  1  0.68284937  0.93415135  0.94130713  1
  Zn  Zn131  1  0.31426072  0.06539278  0.06415431  1
  Zn  Zn132  1  0.31081380  0.06112669  0.56149646  1
  Zn  Zn133  1  0.31741564  0.56154995  0.06263362  1
  Zn  Zn134  1  0.31348091  0.55998180  0.56533785  1
  Zn  Zn135  1  0.81463003  0.06458608  0.05832882  1
  Zn  Zn136  1  0.81441115  0.05886244  0.55942490  1
  Zn  Zn137  1  0.81334681  0.56241084  0.06417188  1
  Zn  Zn138  1  0.80958690  0.56233785  0.56203010  1
  Zn  Zn139  1  0.44085577  0.43665095  0.18458916  1
  Zn  Zn140  1  0.43807693  0.44250302  0.68433652  1
  Zn  Zn141  1  0.43465316  0.93688595  0.19147631  1
  Zn  Zn142  1  0.43962350  0.93596854  0.68631621  1
  Zn  Zn143  1  0.93883288  0.43693356  0.18679804  1
  Zn  Zn144  1  0.93898008  0.43663769  0.68622400  1
  Zn  Zn145  1  0.93557811  0.93550258  0.18322448  1
  Zn  Zn146  1  0.93203068  0.93276642  0.68295157  1
  Zn  Zn147  1  0.06222269  0.06137928  0.31839633  1
  Zn  Zn148  1  0.05861342  0.06148190  0.81483979  1
  Zn  Zn149  1  0.06501254  0.56340437  0.31572988  1
  Zn  Zn150  1  0.06208012  0.56295158  0.81254960  1
  Zn  Zn151  1  0.56009367  0.06380197  0.31071411  1
  Zn  Zn152  1  0.56196374  0.06625186  0.81207865  1
  Zn  Zn153  1  0.56263048  0.56645927  0.31630500  1
  Zn  Zn154  1  0.55762925  0.56486469  0.80864068  1
  Zn  Zn155  1  0.43953717  0.19139304  0.43757797  1
  Zn  Zn156  1  0.42984992  0.21404731  0.92606785  1
  Zn  Zn157  1  0.44063107  0.69082386  0.43483505  1
  Zn  Zn158  1  0.44275761  0.68604079  0.93876713  1
  Zn  Zn159  1  0.93572429  0.18083790  0.43762404  1
  Zn  Zn160  1  0.93334886  0.18372595  0.93704927  1
  Zn  Zn161  1  0.94320191  0.68288674  0.43295102  1
  Zn  Zn162  1  0.93922427  0.68974119  0.93797497  1
  Zn  Zn163  1  0.06119800  0.30995455  0.06739003  1
  Zn  Zn164  1  0.05845376  0.31149867  0.56586482  1
  Zn  Zn165  1  0.06332089  0.81232807  0.06422624  1
  Zn  Zn166  1  0.05944167  0.81481274  0.56029133  1
  Zn  Zn167  1  0.56015602  0.31527110  0.06202230  1
  Zn  Zn168  1  0.56066875  0.31320725  0.56282919  1
  Zn  Zn169  1  0.56372390  0.81565511  0.06241601  1
  Zn  Zn170  1  0.55699023  0.81565560  0.56265729  1
  O  O171  1  0.11918840  0.12839763  0.11518180  1
  O  O172  1  0.11848134  0.13456617  0.61865845  1
  O  O173  1  0.12388329  0.61916052  0.11813652  1
  O  O174  1  0.12082403  0.61884325  0.62396217  1
  O  O175  1  0.62553886  0.12887718  0.10471674  1
  O  O176  1  0.62220870  0.11883090  0.62135019  1
  O  O177  1  0.61354511  0.62888106  0.12787907  1
  O  O178  1  0.62879475  0.61817826  0.61512920  1
  O  O179  1  0.38600477  0.36935168  0.38496688  1
  O  O180  1  0.38583467  0.31856110  0.89058073  1
  O  O181  1  0.37878514  0.88163007  0.37952668  1
  O  O182  1  0.37394411  0.88558213  0.88038614  1
  O  O183  1  0.87408572  0.38587837  0.38213517  1
  O  O184  1  0.87961435  0.38115512  0.88371824  1
  O  O185  1  0.88739588  0.86877638  0.37111852  1
  O  O186  1  0.88205093  0.86903516  0.88620130  1
  O  O187  1  0.25544214  0.00652232  0.36694968  1
  O  O188  1  0.25845062  0.00916780  0.87440210  1
  O  O189  1  0.24545313  0.51081882  0.36043844  1
  O  O190  1  0.24637342  0.50086468  0.86375943  1
  O  O191  1  0.75342039  0.00666466  0.37940810  1
  O  O192  1  0.74662541  0.00810161  0.87688117  1
  O  O193  1  0.76016635  0.50953742  0.36783308  1
  O  O194  1  0.76214779  0.50252614  0.87602704  1
  O  O195  1  0.24324814  0.50147970  0.13601765  1
  O  O196  1  0.23699829  0.50322860  0.63329165  1
  O  O197  1  0.25598314  0.99572750  0.13976537  1
  O  O198  1  0.25461365  0.98410467  0.62521766  1
  O  O199  1  0.75547632  0.49861806  0.14047992  1
  O  O200  1  0.73783209  0.49873529  0.62532768  1
  O  O201  1  0.75394172  0.98426989  0.11409189  1
  O  O202  1  0.74275436  0.98526439  0.62071871  1
  O  O203  1  0.00822597  0.36460752  0.24588186  1
  O  O204  1  0.00596507  0.36872585  0.75745252  1
  O  O205  1  0.00523308  0.87063155  0.25658621  1
  O  O206  1  0.00396653  0.87065936  0.75546965  1
  O  O207  1  0.49709776  0.36572174  0.26003613  1
  O  O208  1  0.50125868  0.36277436  0.74445708  1
  O  O209  1  0.50682933  0.87113982  0.25383601  1
  O  O210  1  0.50939763  0.86751633  0.75099051  1
  O  O211  1  0.48695981  0.14002653  0.26461678  1
  O  O212  1  0.49397824  0.13074661  0.73954619  1
  O  O213  1  0.49574818  0.63178856  0.24434213  1
  O  O214  1  0.48346377  0.63436209  0.74971392  1
  O  O215  1  0.99556871  0.12801296  0.24600014  1
  O  O216  1  0.99051137  0.13099507  0.75351567  1
  O  O217  1  0.99463837  0.63296434  0.25216415  1
  O  O218  1  0.99106922  0.62974177  0.74459320  1
  O  O219  1  0.37196367  0.22728479  0.02523751  1
  O  O220  1  0.37440213  0.25895933  0.50678886  1
  O  O221  1  0.37125031  0.75526672  0.00404826  1
  O  O222  1  0.37958768  0.75649303  0.50882634  1
  O  O223  1  0.87511475  0.25869483  0.00184743  1
  O  O224  1  0.87842161  0.25694863  0.50753990  1
  O  O225  1  0.86837287  0.75746925  0.00158029  1
  O  O226  1  0.88017699  0.73976568  0.51058312  1
  O  O227  1  0.12410311  0.25903702  0.48714965  1
  O  O228  1  0.12441829  0.24056626  0.99523543  1
  O  O229  1  0.12023854  0.74856833  0.48571426  1
  O  O230  1  0.12871767  0.74405313  0.99327184  1
  O  O231  1  0.62717632  0.24110400  0.49535719  1
  O  O232  1  0.62067096  0.23913477  0.98702220  1
  O  O233  1  0.61410513  0.73794176  0.49821128  1
  O  O234  1  0.63279223  0.75692171  0.98942233  1
  O  O235  1  0.48850225  0.24953188  0.13681485  1
  O  O236  1  0.49453093  0.23975020  0.63072248  1
  O  O237  1  0.49672459  0.74392513  0.12922082  1
  O  O238  1  0.48846197  0.75674579  0.63693544  1
  O  O239  1  0.99986268  0.23712865  0.13754525  1
  O  O240  1  0.98735187  0.24938837  0.63382304  1
  O  O241  1  0.99941992  0.75023436  0.13895829  1
  O  O242  1  0.99238041  0.74535578  0.62936201  1
  O  O243  1  0.00664769  0.24259439  0.36415944  1
  O  O244  1  0.00411041  0.25244732  0.87076708  1
  O  O245  1  0.00694132  0.75760212  0.36630674  1
  O  O246  1  0.00875593  0.76067681  0.87115859  1
  O  O247  1  0.51060323  0.25968453  0.37257778  1
  O  O248  1  0.52066265  0.23239157  0.85871812  1
  O  O249  1  0.49963840  0.76475242  0.36475150  1
  O  O250  1  0.50556602  0.75343527  0.86589911  1
  O  O251  1  0.24782404  0.12777502  0.48910812  1
  O  O252  1  0.24018560  0.12282078  0.99457264  1
  O  O253  1  0.25212243  0.61781824  0.48461258  1
  O  O254  1  0.23885569  0.63129221  1.00527738  1
  O  O255  1  0.74472688  0.12554947  0.48842073  1
  O  O256  1  0.74085575  0.12316579  0.98841335  1
  O  O257  1  0.74003839  0.62100601  0.49075970  1
  O  O258  1  0.75580429  0.63822348  0.99992349  1
  O  O259  1  0.25706002  0.37212223  0.00285603  1
  O  O260  1  0.26405604  0.37678631  0.49437871  1
  O  O261  1  0.25364891  0.87163884  0.00564332  1
  O  O262  1  0.26216777  0.87684807  0.50279789  1
  O  O263  1  0.75915398  0.37254629  0.00082879  1
  O  O264  1  0.76417982  0.37481797  0.50086233  1
  O  O265  1  0.75580335  0.86737079  0.00474660  1
  O  O266  1  0.74237680  0.87000010  0.50909411  1
  O  O267  1  0.12906716  0.49412202  0.24578396  1
  O  O268  1  0.13087886  0.49422637  0.74585086  1
  O  O269  1  0.13355832  0.99176501  0.25649686  1
  O  O270  1  0.12434413  0.98705504  0.75455904  1
  O  O271  1  0.64115598  0.50238377  0.25746476  1
  O  O272  1  0.62409380  0.50135708  0.73998822  1
  O  O273  1  0.64321775  1.02367402  0.25618414  1
  O  O274  1  0.61923085  0.99244372  0.73805166  1
  O  O275  1  0.36810712  0.00664145  0.26137015  1
  O  O276  1  0.37398620  0.00575301  0.75720274  1
  O  O277  1  0.36821129  0.50942658  0.24488399  1
  O  O278  1  0.36890616  0.51399908  0.74456243  1
  O  O279  1  0.87994181  0.01147039  0.24874876  1
  O  O280  1  0.88076594  0.01045628  0.74912936  1
  O  O281  1  0.87231117  0.50476433  0.25718059  1
  O  O282  1  0.87724445  0.50785091  0.75815413  1
  O  O283  1  0.12760174  0.36997340  0.36227950  1
  O  O284  1  0.11835444  0.36957811  0.86762715  1
  O  O285  1  0.12067847  0.86699298  0.36368565  1
  O  O286  1  0.11799545  0.86829038  0.86747939  1
  O  O287  1  0.61836802  0.36912407  0.37279793  1
  O  O288  1  0.62862557  0.35831467  0.87456949  1
  O  O289  1  0.61704120  0.87655754  0.37081111  1
  O  O290  1  0.62360131  0.86659338  0.86593109  1
  O  O291  1  0.36870811  0.12949596  0.14463755  1
  O  O292  1  0.38208472  0.12931199  0.62556471  1
  O  O293  1  0.38057045  0.63368159  0.13594179  1
  O  O294  1  0.36992923  0.63831447  0.62912522  1
  O  O295  1  0.88301822  0.12510532  0.13268690  1
  O  O296  1  0.87687448  0.12937982  0.63424547  1
  O  O297  1  0.87968842  0.62532935  0.13815861  1
  O  O298  1  0.87848232  0.62939956  0.63228190  1
  O  O299  1  0.26124609  0.25201646  0.12832662  1
  O  O300  1  0.26538069  0.24722270  0.62440633  1
  O  O301  1  0.25682816  0.75648610  0.11959954  1
  O  O302  1  0.26118712  0.76278465  0.62832811  1
  O  O303  1  0.75292003  0.24982097  0.12272196  1
  O  O304  1  0.76234541  0.24885471  0.62168125  1
  O  O305  1  0.75193729  0.75826403  0.11665435  1
  O  O306  1  0.75583495  0.76126545  0.62630903  1
  O  O307  1  0.24132358  0.24300448  0.37580572  1
  O  O308  1  0.23916413  0.23494214  0.87671035  1
  O  O309  1  0.24189009  0.74117557  0.36720139  1
  O  O310  1  0.23705656  0.75733752  0.88078255  1
  O  O311  1  0.73766425  0.25151996  0.37645042  1
  O  O312  1  0.73777807  0.24016926  0.87747640  1
  O  O313  1  0.75031910  0.73544211  0.36762707  1
  O  O314  1  0.74216530  0.74928844  0.88325279  1
  O  O315  1  0.00340985  0.11774056  0.00716040  1
  O  O316  1  0.00033821  0.11005605  0.50070766  1
  O  O317  1  0.01129219  0.62043225  0.00167639  1
  O  O318  1  0.00413832  0.61273125  0.50581529  1
  O  O319  1  0.51137114  0.11930289  -0.00900630  1
  O  O320  1  0.50972502  0.13077891  0.50794528  1
  O  O321  1  0.49856763  0.61910436  0.01317161  1
  O  O322  1  0.50685074  0.61294937  0.48965684  1
  O  O323  1  0.49377642  0.38346815  0.49346909  1
  O  O324  1  0.49504488  0.38898830  1.00058377  1
  O  O325  1  0.48696148  0.87419868  0.49010287  1
  O  O326  1  0.49311179  0.88587783  0.99789480  1
  O  O327  1  0.98954429  0.38750809  0.50606363  1
  O  O328  1  0.99602619  0.38054341  0.99543785  1
  O  O329  1  0.99982619  0.87999111  0.48564179  1
  O  O330  1  0.99530982  0.87902330  0.99548121  1
  O  O331  1  0.50509803  0.48848803  0.38099702  1
  O  O332  1  0.49777628  0.50256578  0.88301835  1
  O  O333  1  0.48978304  0.98959305  0.36965274  1
  O  O334  1  0.48752086  1.00171620  0.87810271  1
  O  O335  1  0.99219332  0.50503565  0.38500271  1
  O  O336  1  0.99069204  0.49559122  0.88026788  1
  O  O337  1  0.99644756  0.98567972  0.37579362  1
  O  O338  1  1.00244469  0.98570720  0.88291499  1
  O  O339  1  0.00123009  0.01051465  0.11980161  1
  O  O340  1  -0.00083363  -0.00577658  0.61256255  1
  O  O341  1  0.00960213  0.50202994  0.11910706  1
  O  O342  1  0.01031045  0.50570966  0.62051397  1
  O  O343  1  0.48931646  0.00312398  0.11515681  1
  O  O344  1  0.50683049  0.01169025  0.62647343  1
  O  O345  1  0.50215343  0.51428327  0.12787598  1
  O  O346  1  0.51230619  0.49909545  0.61367128  1
  O  O347  1  0.24365093  0.38450348  0.24967393  1
  O  O348  1  0.24125956  0.38298022  0.75398570  1
  O  O349  1  0.24371238  0.88222306  0.24792247  1
  O  O350  1  0.24023254  0.87741749  0.74165874  1
  O  O351  1  0.75257251  0.39084928  0.25276413  1
  O  O352  1  0.74672280  0.37967612  0.74684315  1
  O  O353  1  0.74954916  0.87311128  0.23319677  1
  O  O354  1  0.73648337  0.86998185  0.74225268  1
  O  O355  1  0.25232969  0.11937846  0.26121578  1
  O  O356  1  0.25602214  0.12233713  0.75819815  1
  O  O357  1  0.25941105  0.62031818  0.25540113  1
  O  O358  1  0.26290541  0.61903154  0.74754084  1
  O  O359  1  0.75947761  0.12997865  0.26368785  1
  O  O360  1  0.75643172  0.12349497  0.76285650  1
  O  O361  1  0.75852422  0.61586793  0.25412939  1
  O  O362  1  0.76281934  0.62433216  0.75251979  1
  O  O363  1  0.36746429  0.12056375  0.37166122  1
  O  O364  1  0.36623507  0.12163425  0.87086798  1
  O  O365  1  0.37022590  0.63385406  0.36044249  1
  O  O366  1  0.37198511  0.63232553  0.86333283  1
  O  O367  1  0.85807278  0.12783016  0.36977341  1
  O  O368  1  0.85902009  0.12634582  0.86931113  1
  O  O369  1  0.87127010  0.61645840  0.36634169  1
  O  O370  1  0.87680210  0.61788348  0.86793665  1
  O  O371  1  0.12778031  0.38080229  0.13553985  1
  O  O372  1  0.11891526  0.38153584  0.63885681  1
  O  O373  1  0.13069582  0.86995316  0.13962387  1
  O  O374  1  0.13304145  0.86594457  0.63273313  1
  O  O375  1  0.62374738  0.37090961  0.13394089  1
  O  O376  1  0.62694994  0.38468330  0.62383655  1
  O  O377  1  0.63735634  0.87656449  0.12724570  1
  O  O378  1  0.63160588  0.88082152  0.62739164  1
  O  O379  1  0.11947815  0.25673974  0.25940167  1
  O  O380  1  0.12050230  0.25745108  0.75742379  1
  O  O381  1  0.11870711  0.75527053  0.25709488  1
  O  O382  1  0.11956194  0.75533886  0.75664708  1
  O  O383  1  0.61598819  0.24576225  0.25996450  1
  O  O384  1  0.62054275  0.25119061  0.75591113  1
  O  O385  1  0.61441576  0.74676923  0.25395353  1
  O  O386  1  0.61615788  0.75562590  0.75192474  1
  O  O387  1  0.37858018  0.24376979  0.24615833  1
  O  O388  1  0.38299261  0.24327237  0.73959421  1
  O  O389  1  0.38721288  0.74667466  0.24283565  1
  O  O390  1  0.37866169  0.74321048  0.74501531  1
  O  O391  1  0.88386716  0.24272031  0.25084043  1
  O  O392  1  0.87815737  0.24293679  0.74519144  1
  O  O393  1  0.88375687  0.74063018  0.24928900  1
  O  O394  1  0.88051319  0.74319003  0.74520414  1
  O  O395  1  0.38584145  0.49314330  0.50724191  1
  O  O396  1  0.39154745  0.50159742  1.00435536  1
  O  O397  1  0.37200932  0.99449503  0.48744153  1
  O  O398  1  0.37997043  0.99879533  0.99298098  1
  O  O399  1  0.88198378  0.49495414  0.49437520  1
  O  O400  1  0.88079838  0.49517161  0.99383096  1
  O  O401  1  0.89106720  0.99824581  0.49820382  1
  O  O402  1  0.88934599  0.99240120  1.00139203  1
  O  O403  1  0.11223620  0.00672517  -0.00297231  1
  O  O404  1  0.10509996  -0.00246123  0.48727712  1
  O  O405  1  0.12288244  0.50696075  0.00437449  1
  O  O406  1  0.11989130  0.49797172  0.50762554  1
  O  O407  1  0.61272250  0.01081895  -0.00629557  1
  O  O408  1  0.62491405  0.01323870  0.51177183  1
  O  O409  1  0.60867147  0.50295022  -0.00413984  1
  O  O410  1  0.61836806  0.50798288  0.50393888  1
  O  O411  1  0.37383427  0.35890741  0.12962100  1
  O  O412  1  0.38287469  0.36587325  0.61470521  1
  O  O413  1  0.36878453  0.86878040  0.12020405  1
  O  O414  1  0.37103286  0.86844373  0.61674140  1
  O  O415  1  0.87587815  0.37435456  0.11272310  1
  O  O416  1  0.87412357  0.36715416  0.61834772  1
  O  O417  1  0.86877095  0.87230201  0.11276747  1
  O  O418  1  0.85941284  0.86555560  0.62534376  1
  O  O419  1  0.13192007  0.13489449  0.37782403  1
  O  O420  1  0.12918497  0.12571331  0.88493263  1
  O  O421  1  0.13556739  0.63401868  0.37507489  1
  O  O422  1  0.11972137  0.63569164  0.88292000  1
  O  O423  1  0.63435444  0.13185239  0.38471733  1
  O  O424  1  0.63667211  0.12799928  0.87731248  1
  O  O425  1  0.63411050  0.62781410  0.38371286  1
  O  O426  1  0.62674839  0.63996207  0.86537067  1
