# generated using pymatgen
data_V85Zn86O256
_symmetry_space_group_name_H-M   'P 1'
_cell_length_a   16.90477163
_cell_length_b   16.91335779
_cell_length_c   16.91559541
_cell_angle_alpha   89.96542021
_cell_angle_beta   89.99419846
_cell_angle_gamma   89.97980608
_symmetry_Int_Tables_number   1
_chemical_formula_structural   V85Zn86O256
_chemical_formula_sum   'V85 Zn86 O256'
_cell_volume   4836.44579991
_cell_formula_units_Z   1
loop_
 _symmetry_equiv_pos_site_id
 _symmetry_equiv_pos_as_xyz
  1  'x, y, z'
loop_
 _atom_site_type_symbol
 _atom_site_label
 _atom_site_symmetry_multiplicity
 _atom_site_fract_x
 _atom_site_fract_y
 _atom_site_fract_z
 _atom_site_occupancy
  V  V0  1  0.37313603  0.87497140  0.00123397  1
  V  V1  1  0.48418871  0.37612688  0.87646944  1
  V  V2  1  -0.00579222  0.72961464  0.24673134  1
  V  V3  1  0.49768902  0.74948763  0.24857712  1
  V  V4  1  0.36213747  0.25090853  0.62906365  1
  V  V5  1  0.50349132  0.00121409  0.00680132  1
  V  V6  1  0.87290882  0.49948250  0.37082666  1
  V  V7  1  0.00186560  0.62659493  0.62661861  1
  V  V8  1  0.74896435  0.36995453  0.63159225  1
  V  V9  1  0.11435894  0.49920027  0.12812046  1
  V  V10  1  0.00259902  0.50047526  0.50155110  1
  V  V11  1  0.50117377  0.00116002  0.49924069  1
  V  V12  1  0.24578507  0.37265289  0.11131725  1
  V  V13  1  0.75557102  0.12227251  0.37684723  1
  V  V14  1  0.49929406  0.37087258  0.36875594  1
  V  V15  1  0.24533748  0.49264896  0.24955330  1
  V  V16  1  0.12490864  0.00233407  0.12818580  1
  V  V17  1  0.75225359  0.12529218  0.87359425  1
  V  V18  1  0.37013150  0.37506047  0.50617531  1
  V  V19  1  0.74870633  0.87864684  0.12427808  1
  V  V20  1  0.62123191  0.88280682  0.24456833  1
  V  V21  1  0.13250624  0.13359180  -0.00546825  1
  V  V22  1  0.37429906  0.00157092  0.87456789  1
  V  V23  1  0.00455577  0.37470069  0.37360991  1
  V  V24  1  0.24769480  0.75285099  0.50036097  1
  V  V25  1  0.37164459  0.74987450  0.12409836  1
  V  V26  1  0.74939857  0.00187615  0.25026958  1
  V  V27  1  0.49919035  0.62392833  0.62767704  1
  V  V28  1  0.24968071  0.12745824  0.37745326  1
  V  V29  1  0.37492337  0.49987193  0.37499724  1
  V  V30  1  0.50282171  0.13047226  0.13135582  1
  V  V31  1  0.24998770  -0.00132335  0.25088092  1
  V  V32  1  0.62711983  0.49470025  0.12995634  1
  V  V33  1  0.00112689  0.87825563  0.36292487  1
  V  V34  1  0.75080620  0.61845917  0.37206623  1
  V  V35  1  0.87949290  0.74790628  0.61912715  1
  V  V36  1  0.74806033  0.75183482  0.49682233  1
  V  V37  1  0.87681562  0.12340989  0.24951189  1
  V  V38  1  0.88012690  0.87324458  0.00394830  1
  V  V39  1  -0.00187252  0.00173972  0.49693709  1
  V  V40  1  0.62338344  0.62439975  0.50304102  1
  V  V41  1  0.63187403  0.87380852  0.75139057  1
  V  V42  1  0.62700256  0.12309953  0.00397134  1
  V  V43  1  0.11935521  0.63162335  0.00095302  1
  V  V44  1  0.76370557  0.49923326  0.75118794  1
  V  V45  1  0.87651343  0.37209332  0.50784529  1
  V  V46  1  0.37053357  0.75266786  0.62675012  1
  V  V47  1  0.74929235  0.61813324  0.87330971  1
  V  V48  1  0.48646155  0.49325179  -0.00220944  1
  V  V49  1  0.12550277  0.25194096  0.37257614  1
  V  V50  1  0.49746670  0.62134675  0.12396826  1
  V  V51  1  0.62238169  0.74901639  0.37329188  1
  V  V52  1  -0.00056152  0.25281676  0.24622660  1
  V  V53  1  0.13145518  0.48681213  0.62826556  1
  V  V54  1  0.12663655  0.26976610  0.86729407  1
  V  V55  1  0.62696346  0.74897297  0.87588811  1
  V  V56  1  0.87592148  0.87994255  0.49160849  1
  V  V57  1  0.75712212  0.25111221  0.00585000  1
  V  V58  1  -0.00232893  0.26180334  0.74722765  1
  V  V59  1  0.62624818  0.00091799  0.62665398  1
  V  V60  1  0.37237110  0.87781895  0.50299088  1
  V  V61  1  0.37268086  0.62300339  0.75699000  1
  V  V62  1  0.12504141  0.75224542  0.36805609  1
  V  V63  1  0.75312254  0.24800067  0.50407037  1
  V  V64  1  0.87799502  -0.00240110  0.87293263  1
  V  V65  1  -0.00060283  0.50032637  -0.01807594  1
  V  V66  1  0.50256756  0.87588089  0.87634706  1
  V  V67  1  0.24391879  0.87307683  0.12836296  1
  V  V68  1  0.62554460  0.49558451  0.63207660  1
  V  V69  1  0.89014767  0.64829849  0.77675662  1
  V  V70  1  0.00308010  -0.00189128  -0.00555030  1
  V  V71  1  0.62118483  0.62103826  -0.00100401  1
  V  V72  1  0.13046784  -0.00813181  0.62190573  1
  V  V73  1  0.24966627  -0.00810965  0.74828114  1
  V  V74  1  0.37521298  0.25634001  0.10948184  1
  V  V75  1  0.37603390  0.13664689  0.25090224  1
  V  V76  1  0.76050544  0.37343369  0.13247593  1
  V  V77  1  0.25132047  0.48996791  0.75271103  1
  V  V78  1  0.88361352  0.37207819  -0.01165396  1
  V  V79  1  0.62742201  0.26064513  0.87292768  1
  V  V80  1  0.10895916  0.86648372  0.76369973  1
  V  V81  1  -0.00455795  0.13031162  0.12121282  1
  V  V82  1  0.50387194  0.25246688  0.74692520  1
  V  V83  1  0.62335358  0.24909419  0.36956090  1
  V  V84  1  0.24283645  0.63166117  0.87309247  1
  Zn  Zn85  1  0.75449049  0.00061468  0.74805047  1
  Zn  Zn86  1  0.62530664  0.12564979  0.50142486  1
  Zn  Zn87  1  0.80686955  0.55892870  0.20690344  1
  Zn  Zn88  1  0.24850797  0.62414700  0.37317194  1
  Zn  Zn89  1  0.49989281  0.49731721  0.50200098  1
  Zn  Zn90  1  0.37683940  0.00221023  0.37449722  1
  Zn  Zn91  1  0.12703914  0.62715932  0.50180284  1
  Zn  Zn92  1  0.24016681  0.75349679  -0.00446051  1
  Zn  Zn93  1  0.87911765  0.12874010  0.74324932  1
  Zn  Zn94  1  0.62770106  0.37431834  0.25049480  1
  Zn  Zn95  1  0.50038111  0.74933839  0.75120877  1
  Zn  Zn96  1  0.24503741  0.25374436  0.50637656  1
  Zn  Zn97  1  0.12449143  0.12589640  0.50347987  1
  Zn  Zn98  1  0.49855617  0.87682751  0.37361342  1
  Zn  Zn99  1  0.37367192  0.12393403  0.74905080  1
  Zn  Zn100  1  0.37184748  0.62270698  0.24934219  1
  Zn  Zn101  1  0.25099001  0.12815147  0.87505564  1
  Zn  Zn102  1  -0.00315841  0.12821844  0.62675466  1
  Zn  Zn103  1  0.87454446  0.73499474  0.13031381  1
  Zn  Zn104  1  0.75248948  0.87451593  0.62438305  1
  Zn  Zn105  1  0.75222648  0.74843041  0.00337694  1
  Zn  Zn106  1  0.50053732  0.12811513  0.62667278  1
  Zn  Zn107  1  0.18694257  0.19144845  0.18738515  1
  Zn  Zn108  1  0.18113633  0.17893034  0.69373648  1
  Zn  Zn109  1  0.18327622  0.68181973  0.18921175  1
  Zn  Zn110  1  0.18625694  0.69104644  0.68777969  1
  Zn  Zn111  1  0.68819727  0.19024034  0.18742612  1
  Zn  Zn112  1  0.68754864  0.18674230  0.68941113  1
  Zn  Zn113  1  0.68534639  0.69119748  0.18352579  1
  Zn  Zn114  1  0.69295266  0.68734042  0.68881010  1
  Zn  Zn115  1  0.31114341  0.31574568  0.30893791  1
  Zn  Zn116  1  0.30941389  0.30727397  0.81516561  1
  Zn  Zn117  1  0.31321864  0.81575939  0.31524674  1
  Zn  Zn118  1  0.30877935  0.81360743  0.81131534  1
  Zn  Zn119  1  0.81731491  0.30921707  0.31507501  1
  Zn  Zn120  1  0.81566713  0.31238680  0.81332724  1
  Zn  Zn121  1  0.81388917  0.81228915  0.31167374  1
  Zn  Zn122  1  0.82660682  0.80659896  0.81964965  1
  Zn  Zn123  1  0.18809568  0.43751638  0.44039016  1
  Zn  Zn124  1  0.19140648  0.44649711  0.93725740  1
  Zn  Zn125  1  0.18641753  0.93417157  0.43526890  1
  Zn  Zn126  1  0.18570525  0.93741319  0.93691756  1
  Zn  Zn127  1  0.68624413  0.43602796  0.44207666  1
  Zn  Zn128  1  0.68785678  0.43659660  0.94133884  1
  Zn  Zn129  1  0.68573269  0.93772701  0.43284952  1
  Zn  Zn130  1  0.69033112  0.93993164  0.93878290  1
  Zn  Zn131  1  0.31464407  0.06434934  0.06384682  1
  Zn  Zn132  1  0.31229355  0.06546078  0.56549567  1
  Zn  Zn133  1  0.30582983  0.56310762  0.06271786  1
  Zn  Zn134  1  0.31149479  0.56526740  0.56340670  1
  Zn  Zn135  1  0.81446280  0.06089178  0.06453500  1
  Zn  Zn136  1  0.81550696  0.06152487  0.56476103  1
  Zn  Zn137  1  0.81381152  0.55646673  0.04594400  1
  Zn  Zn138  1  0.81436130  0.56093364  0.56091829  1
  Zn  Zn139  1  0.43564728  0.43391778  0.18843019  1
  Zn  Zn140  1  0.43594438  0.43486690  0.69104924  1
  Zn  Zn141  1  0.43360938  0.94197507  0.18715952  1
  Zn  Zn142  1  0.44125909  0.93557843  0.68789082  1
  Zn  Zn143  1  0.93896479  0.43058893  0.18466488  1
  Zn  Zn144  1  0.93917689  0.43986637  0.69067534  1
  Zn  Zn145  1  0.93539681  0.94183406  0.18533017  1
  Zn  Zn146  1  0.93917069  0.93748341  0.68287892  1
  Zn  Zn147  1  0.06383876  0.06363524  0.31329797  1
  Zn  Zn148  1  0.06148025  0.06202415  0.80753188  1
  Zn  Zn149  1  0.06669725  0.56195559  0.31476745  1
  Zn  Zn150  1  0.06806157  0.56308451  0.80967793  1
  Zn  Zn151  1  0.56404298  0.06438876  0.31362347  1
  Zn  Zn152  1  0.56387993  0.06614209  0.81375831  1
  Zn  Zn153  1  0.56094499  0.56087596  0.31232136  1
  Zn  Zn154  1  0.56262728  0.55590932  0.81060715  1
  Zn  Zn155  1  0.43687403  0.18886164  0.44168619  1
  Zn  Zn156  1  0.44008195  0.18710047  0.93605079  1
  Zn  Zn157  1  0.43643962  0.68574284  0.43866226  1
  Zn  Zn158  1  0.43529617  0.68816042  0.93675203  1
  Zn  Zn159  1  0.93593256  0.18605440  0.43899343  1
  Zn  Zn160  1  0.94352702  0.18924716  0.92947162  1
  Zn  Zn161  1  0.93840526  0.68584677  0.43475693  1
  Zn  Zn162  1  0.93321110  0.68362359  0.94436959  1
  Zn  Zn163  1  0.06438300  0.31325848  0.05969484  1
  Zn  Zn164  1  0.06348121  0.31014273  0.56327495  1
  Zn  Zn165  1  0.05974892  0.81319023  0.07073265  1
  Zn  Zn166  1  0.06252522  0.81599229  0.56244635  1
  Zn  Zn167  1  0.56377006  0.31147947  0.06084832  1
  Zn  Zn168  1  0.56216017  0.31395716  0.55871017  1
  Zn  Zn169  1  0.56413917  0.81160207  0.06371484  1
  Zn  Zn170  1  0.55955044  0.81391482  0.56521519  1
  O  O171  1  0.11855506  0.12312195  0.11482810  1
  O  O172  1  0.12042237  0.10846769  0.62270013  1
  O  O173  1  0.13168390  0.60998772  0.11376224  1
  O  O174  1  0.11280823  0.62326269  0.62527441  1
  O  O175  1  0.61493912  0.13382392  0.11776244  1
  O  O176  1  0.62321468  0.11522515  0.62333779  1
  O  O177  1  0.61966548  0.61778917  0.11669575  1
  O  O178  1  0.61986601  0.62141458  0.62178188  1
  O  O179  1  0.38052452  0.38220097  0.37953871  1
  O  O180  1  0.38575020  0.36985020  0.87796691  1
  O  O181  1  0.37821182  0.87887612  0.38838774  1
  O  O182  1  0.38102581  0.88378906  0.88046008  1
  O  O183  1  0.88386784  0.37823080  0.38594562  1
  O  O184  1  0.86691947  0.38121560  0.89070715  1
  O  O185  1  0.88364682  0.87031077  0.38412445  1
  O  O186  1  0.86763561  0.88890671  0.89077791  1
  O  O187  1  0.24954160  0.00744024  0.36666518  1
  O  O188  1  0.26036468  0.00000486  0.87064532  1
  O  O189  1  0.25587353  0.49863339  0.36795579  1
  O  O190  1  0.24665212  0.51216717  0.85953856  1
  O  O191  1  0.74592323  0.00867130  0.36213732  1
  O  O192  1  0.75782892  0.01007903  0.87555658  1
  O  O193  1  0.75812634  0.50587871  0.38198539  1
  O  O194  1  0.73471589  0.50535160  0.86136907  1
  O  O195  1  0.24419911  0.48922294  0.12992723  1
  O  O196  1  0.23791060  0.50767662  0.63386720  1
  O  O197  1  0.24492075  0.99614509  0.13108925  1
  O  O198  1  0.23890245  1.00046743  0.62996041  1
  O  O199  1  0.74380258  0.48953158  0.12473820  1
  O  O200  1  0.74626280  0.49377065  0.63108092  1
  O  O201  1  0.75210420  0.99213837  0.13714131  1
  O  O202  1  0.73819946  0.99477368  0.62523835  1
  O  O203  1  -0.00489236  0.36328681  0.25997578  1
  O  O204  1  -0.00249550  0.36284334  0.74945280  1
  O  O205  1  -0.00431980  0.87936202  0.26109865  1
  O  O206  1  0.00912925  0.87694081  0.75058524  1
  O  O207  1  0.50177603  0.37545483  0.26436402  1
  O  O208  1  0.49775954  0.36611207  0.76440973  1
  O  O209  1  0.50467834  0.87104629  0.24766991  1
  O  O210  1  0.51359705  0.87420586  0.75856764  1
  O  O211  1  0.49295171  0.12019188  0.23848015  1
  O  O212  1  0.49749558  0.13883522  0.75226390  1
  O  O213  1  0.49818965  0.63306829  0.24247542  1
  O  O214  1  0.49194905  0.62432938  0.74502945  1
  O  O215  1  0.99453177  0.12851564  0.24340911  1
  O  O216  1  1.00043931  0.13649388  0.75000658  1
  O  O217  1  0.99497211  0.63067727  0.25409021  1
  O  O218  1  0.98931532  0.61808832  0.74287313  1
  O  O219  1  0.37170810  0.24391873  0.01110967  1
  O  O220  1  0.37251637  0.25669004  0.51111022  1
  O  O221  1  0.37305001  0.75768613  0.00756467  1
  O  O222  1  0.37075309  0.75711953  0.50543931  1
  O  O223  1  0.87156153  0.26040425  -0.00682407  1
  O  O224  1  0.86270028  0.25785143  0.49504480  1
  O  O225  1  0.87345415  0.75960237  0.00860141  1
  O  O226  1  0.86688737  0.75440091  0.50175268  1
  O  O227  1  0.12656001  0.24767647  0.48826056  1
  O  O228  1  0.11945380  0.23864923  0.98781340  1
  O  O229  1  0.13337333  0.75168669  0.49414151  1
  O  O230  1  0.11934901  0.73635575  1.00787172  1
  O  O231  1  0.63729445  0.24934059  0.49158447  1
  O  O232  1  0.63367319  0.24097601  0.99361768  1
  O  O233  1  0.62936273  0.74715629  0.49441455  1
  O  O234  1  0.62590671  0.73911201  0.99554372  1
  O  O235  1  0.48669813  0.24493571  0.12038317  1
  O  O236  1  0.49747643  0.25191957  0.63433297  1
  O  O237  1  0.49449842  0.74411410  0.13075791  1
  O  O238  1  0.48962878  0.74285623  0.62714963  1
  O  O239  1  1.00821541  0.24305884  0.13441698  1
  O  O240  1  1.01010239  0.24877718  0.64179798  1
  O  O241  1  0.99699590  0.75036764  0.14344809  1
  O  O242  1  0.99058733  0.74148876  0.61648704  1
  O  O243  1  0.00541406  0.25560915  0.37043218  1
  O  O244  1  0.01771743  0.24895315  0.86597913  1
  O  O245  1  0.00479314  0.75515047  0.36522470  1
  O  O246  1  -0.07449766  0.72987444  0.84097068  1
  O  O247  1  0.51061002  0.25658222  0.38284650  1
  O  O248  1  0.50669267  0.25885697  0.87192774  1
  O  O249  1  0.50378583  0.75057456  0.36596927  1
  O  O250  1  0.50808118  0.75759597  0.87512333  1
  O  O251  1  0.25095641  0.12746695  0.48653639  1
  O  O252  1  0.23498722  0.12147557  1.00182093  1
  O  O253  1  0.25122173  0.63947400  0.49592624  1
  O  O254  1  0.23875110  0.62474949  0.99074480  1
  O  O255  1  0.75024324  0.13013868  0.49237201  1
  O  O256  1  0.74695175  0.13059614  0.99600122  1
  O  O257  1  0.74387447  0.63154715  0.49210424  1
  O  O258  1  0.73410212  0.62066301  0.99062709  1
  O  O259  1  0.25385136  0.38359488  0.01273341  1
  O  O260  1  0.26488960  0.37132177  0.49480043  1
  O  O261  1  0.25407830  0.87415034  0.00914197  1
  O  O262  1  0.25867393  0.86400120  0.49615311  1
  O  O263  1  0.75964507  0.36886423  0.00712505  1
  O  O264  1  0.75723719  0.36785168  0.50845258  1
  O  O265  1  0.75553704  0.87680693  0.01012148  1
  O  O266  1  0.75667225  0.86786665  0.49502962  1
  O  O267  1  0.13121564  0.50192492  0.24104944  1
  O  O268  1  0.13665862  0.50248604  0.73783257  1
  O  O269  1  0.13351216  1.01009517  0.23586757  1
  O  O270  1  0.12956918  0.99144201  0.74083895  1
  O  O271  1  0.61969118  0.49740043  0.23487864  1
  O  O272  1  0.63767928  0.50741693  0.73625800  1
  O  O273  1  0.63214313  0.99265605  0.25161966  1
  O  O274  1  0.62708723  0.99350802  0.74454828  1
  O  O275  1  0.36611333  0.01388907  0.24995719  1
  O  O276  1  0.37079255  -0.00255760  0.75733452  1
  O  O277  1  0.36891366  0.49947013  0.25853713  1
  O  O278  1  0.36053624  0.51009498  0.74010281  1
  O  O279  1  0.86802457  0.01419513  0.24782949  1
  O  O280  1  0.87434046  -0.00248776  0.76034786  1
  O  O281  1  0.87687755  0.48953739  0.26519422  1
  O  O282  1  0.86609061  0.51166487  0.74591796  1
  O  O283  1  0.11253973  0.36962491  0.38032643  1
  O  O284  1  0.13008028  0.36768480  0.87888962  1
  O  O285  1  0.11582663  0.86203615  0.37670752  1
  O  O286  1  0.12209625  0.87827200  0.86433539  1
  O  O287  1  0.61829304  0.36921148  0.37571072  1
  O  O288  1  0.62252254  0.36253379  0.88016797  1
  O  O289  1  0.62297576  0.86693636  0.36125789  1
  O  O290  1  0.62353943  0.87002826  0.87150541  1
  O  O291  1  0.37972096  0.13638686  0.12962371  1
  O  O292  1  0.38023007  0.13527598  0.62760483  1
  O  O293  1  0.37963043  0.63195490  0.12555983  1
  O  O294  1  0.38061414  0.63219499  0.63292658  1
  O  O295  1  0.88822133  0.12364333  0.12985027  1
  O  O296  1  0.88161510  0.12073817  0.62918360  1
  O  O297  1  0.84840624  0.62457556  0.12688920  1
  O  O298  1  0.88737803  0.63020815  0.62070515  1
  O  O299  1  0.25685328  0.26351334  0.12700814  1
  O  O300  1  0.25830742  0.24374245  0.62863871  1
  O  O301  1  0.25153884  0.75871256  0.12746181  1
  O  O302  1  0.26257950  0.74645989  0.61657169  1
  O  O303  1  0.74905237  0.25486652  0.11181533  1
  O  O304  1  0.74426019  0.25868850  0.61810137  1
  O  O305  1  0.74982097  0.76673007  0.12610813  1
  O  O306  1  0.75082684  0.75019404  0.60659907  1
  O  O307  1  0.24203562  0.24494379  0.37202382  1
  O  O308  1  0.23326428  0.24444732  0.87118893  1
  O  O309  1  0.24218408  0.74984343  0.37831494  1
  O  O310  1  0.25469798  0.73728568  0.87795393  1
  O  O311  1  0.74530954  0.24349984  0.38276291  1
  O  O312  1  0.74567082  0.24491056  0.88409322  1
  O  O313  1  0.74445686  0.74353259  0.38172751  1
  O  O314  1  0.74344712  0.73863890  0.87920459  1
  O  O315  1  0.00766928  0.12012723  0.00603992  1
  O  O316  1  0.00287176  0.11486654  0.49758756  1
  O  O317  1  0.00338906  0.61051415  -0.00350538  1
  O  O318  1  0.00139698  0.61622096  0.50644277  1
  O  O319  1  0.50816143  0.12112796  0.00738040  1
  O  O320  1  0.50219634  0.11254477  0.50205152  1
  O  O321  1  0.50711874  0.61759718  0.00162538  1
  O  O322  1  0.50459908  0.62225829  0.51038494  1
  O  O323  1  0.48948769  0.37678913  0.48970357  1
  O  O324  1  0.50308810  0.37947168  0.98727460  1
  O  O325  1  0.49453212  0.88559537  0.49878178  1
  O  O326  1  0.49750826  0.88411902  0.99807511  1
  O  O327  1  0.99343959  0.37853707  0.49593335  1
  O  O328  1  0.99059101  0.38056307  0.99988895  1
  O  O329  1  0.99308138  0.87966028  0.48948316  1
  O  O330  1  0.99256159  0.88529521  1.00872125  1
  O  O331  1  0.49256767  0.49244262  0.37811257  1
  O  O332  1  0.50461591  0.48354624  0.88034671  1
  O  O333  1  0.49875057  0.99888444  0.38401660  1
  O  O334  1  0.49571161  0.99717052  0.88564879  1
  O  O335  1  0.99623916  0.49235113  0.38091904  1
  O  O336  1  1.00486503  0.49729194  0.88358882  1
  O  O337  1  1.01063570  0.99138414  0.38588367  1
  O  O338  1  0.99386696  1.00485389  0.88753685  1
  O  O339  1  0.00809814  0.00874981  0.11819505  1
  O  O340  1  0.00974437  -0.00318569  0.61034947  1
  O  O341  1  0.01195220  0.49133561  0.11989084  1
  O  O342  1  0.01190161  0.50490465  0.62232121  1
  O  O343  1  0.49323086  0.01092794  0.11289561  1
  O  O344  1  0.51111891  0.00034046  0.61944553  1
  O  O345  1  0.50448054  0.50079181  0.11782542  1
  O  O346  1  0.50829966  0.50434900  0.62729120  1
  O  O347  1  0.25373270  0.38674875  0.23841655  1
  O  O348  1  0.25774700  0.39163180  0.75379784  1
  O  O349  1  0.25616864  0.88974200  0.24405868  1
  O  O350  1  0.24325714  0.88726031  0.75385365  1
  O  O351  1  0.75209409  0.36538627  0.23718139  1
  O  O352  1  0.75862948  0.38116869  0.73902115  1
  O  O353  1  0.74430137  0.88297842  0.24680997  1
  O  O354  1  0.74066878  0.87475018  0.75222512  1
  O  O355  1  0.25552834  0.12018664  0.25698159  1
  O  O356  1  0.25190383  0.10816274  0.75496181  1
  O  O357  1  0.25260202  0.61087097  0.25143350  1
  O  O358  1  0.25476409  0.62209590  0.75459061  1
  O  O359  1  0.75646235  0.12110454  0.25290643  1
  O  O360  1  0.75308029  0.12496726  0.76392864  1
  O  O361  1  0.73547391  0.62737048  0.26748085  1
  O  O362  1  0.76194983  0.62143817  0.75809231  1
  O  O363  1  0.36868731  0.12668113  0.36767170  1
  O  O364  1  0.37494568  0.11248625  0.87593232  1
  O  O365  1  0.37501594  0.61080596  0.37422755  1
  O  O366  1  0.37051626  0.62783938  0.86182374  1
  O  O367  1  0.86290796  0.12803174  0.36733047  1
  O  O368  1  0.86806201  0.11428911  0.87809288  1
  O  O369  1  0.86414336  0.61312643  0.38073679  1
  O  O370  1  0.85575510  0.60798078  0.88119527  1
  O  O371  1  0.13813653  0.38024427  0.11993292  1
  O  O372  1  0.12815320  0.38855357  0.62052074  1
  O  O373  1  0.13630304  0.88572172  0.12250005  1
  O  O374  1  0.12186729  0.88779811  0.63158312  1
  O  O375  1  0.63479887  0.37901597  0.12501951  1
  O  O376  1  0.63589390  0.38396986  0.61899419  1
  O  O377  1  0.63070651  0.87424379  0.13601285  1
  O  O378  1  0.62677334  0.87979044  0.63478004  1
  O  O379  1  0.11414532  0.24388591  0.26267719  1
  O  O380  1  0.11937074  0.25138557  0.76137808  1
  O  O381  1  0.11084987  0.74458515  0.25689865  1
  O  O382  1  0.12773935  0.76827348  0.74570799  1
  O  O383  1  0.62954657  0.25227582  0.26491764  1
  O  O384  1  0.61776128  0.24635132  0.76095291  1
  O  O385  1  0.61231367  0.75696404  0.25098412  1
  O  O386  1  0.62507867  0.75623315  0.75635519  1
  O  O387  1  0.37038672  0.23987814  0.24071991  1
  O  O388  1  0.38170959  0.24926818  0.74398249  1
  O  O389  1  0.38491000  0.75108249  0.24594371  1
  O  O390  1  0.37590550  0.74538711  0.74214406  1
  O  O391  1  0.88718841  0.23697554  0.25412751  1
  O  O392  1  0.89273768  0.24712510  0.76248485  1
  O  O393  1  0.88951212  0.75098398  0.25187005  1
  O  O394  1  0.85073584  0.74389037  0.72130045  1
  O  O395  1  0.37467543  0.49367177  0.49453798  1
  O  O396  1  0.38769674  0.50601878  1.00346253  1
  O  O397  1  0.38133636  0.99380339  0.50177030  1
  O  O398  1  0.38190560  0.99563793  0.99459964  1
  O  O399  1  0.88135105  0.49109908  0.49193551  1
  O  O400  1  0.89217006  0.48823009  1.00075229  1
  O  O401  1  0.88341070  0.99000319  0.49936948  1
  O  O402  1  0.88449173  0.99542524  0.99689637  1
  O  O403  1  0.11999562  0.00776932  0.00961358  1
  O  O404  1  0.12228714  -0.00227413  0.50879481  1
  O  O405  1  0.11281920  0.50437281  0.00460179  1
  O  O406  1  0.12322725  0.50387781  0.51165526  1
  O  O407  1  0.61882419  0.01361200  -0.00322082  1
  O  O408  1  0.61845017  -0.00177387  0.50714886  1
  O  O409  1  0.61701855  0.50432819  0.00982651  1
  O  O410  1  0.62502138  0.50753173  0.51273196  1
  O  O411  1  0.36862114  0.36207862  0.12591685  1
  O  O412  1  0.38005228  0.36587177  0.61700357  1
  O  O413  1  0.36401914  0.87213027  0.12112387  1
  O  O414  1  0.38160655  0.86693007  0.61376403  1
  O  O415  1  0.86697245  0.37653342  0.11220867  1
  O  O416  1  0.86811307  0.38164219  0.61374958  1
  O  O417  1  0.86673621  0.87775579  0.11701620  1
  O  O418  1  0.87380286  0.86730846  0.61099676  1
  O  O419  1  0.13374300  0.13279332  0.37677596  1
  O  O420  1  0.12646846  0.11747044  0.89055724  1
  O  O421  1  0.12575360  0.63737972  0.38058243  1
  O  O422  1  0.13089119  0.62406675  0.88418303  1
  O  O423  1  0.63628895  0.13170534  0.37684500  1
  O  O424  1  0.63368905  0.13285301  0.88367398  1
  O  O425  1  0.62682179  0.62853718  0.38406149  1
  O  O426  1  0.62688097  0.62824467  0.88001589  1
