# generated using pymatgen
data_V85Zn86O256
_symmetry_space_group_name_H-M   'P 1'
_cell_length_a   16.92830027
_cell_length_b   16.92688900
_cell_length_c   16.92811318
_cell_angle_alpha   90.03424808
_cell_angle_beta   90.09092666
_cell_angle_gamma   90.04205612
_symmetry_Int_Tables_number   1
_chemical_formula_structural   V85Zn86O256
_chemical_formula_sum   'V85 Zn86 O256'
_cell_volume   4850.63183187
_cell_formula_units_Z   1
loop_
 _symmetry_equiv_pos_site_id
 _symmetry_equiv_pos_as_xyz
  1  'x, y, z'
loop_
 _atom_site_type_symbol
 _atom_site_label
 _atom_site_symmetry_multiplicity
 _atom_site_fract_x
 _atom_site_fract_y
 _atom_site_fract_z
 _atom_site_occupancy
  V  V0  1  0.50114990  0.12383919  0.62516869  1
  V  V1  1  0.37337677  0.50100083  0.37477262  1
  V  V2  1  0.56874261  -0.04600937  0.06734953  1
  V  V3  1  0.12392032  0.25340411  0.86981504  1
  V  V4  1  0.88028048  0.87464795  -0.00716472  1
  V  V5  1  0.75192213  0.74647127  0.48739695  1
  V  V6  1  0.37776339  0.63403966  0.25188353  1
  V  V7  1  -0.00245226  0.25299121  0.24878237  1
  V  V8  1  0.24865599  0.87589052  0.62812172  1
  V  V9  1  0.23430204  -0.00297874  0.25409712  1
  V  V10  1  0.88267790  0.87892552  0.49805280  1
  V  V11  1  0.75082114  0.12641995  0.37338023  1
  V  V12  1  0.38257870  -0.00206993  0.88692964  1
  V  V13  1  0.50805537  0.12883522  0.10911563  1
  V  V14  1  -0.01221302  0.13030914  0.62762696  1
  V  V15  1  0.75116383  0.49240330  0.76040345  1
  V  V16  1  0.12330017  0.87657146  0.75218685  1
  V  V17  1  0.74721408  0.00948790  0.74712088  1
  V  V18  1  0.61786790  0.87484172  0.25345551  1
  V  V19  1  0.24423563  0.88450875  0.12349721  1
  V  V20  1  0.87576361  0.74991333  0.62608259  1
  V  V21  1  0.37588008  0.62205201  0.74855702  1
  V  V22  1  0.87471707  0.61966999  0.75887588  1
  V  V23  1  0.37887664  0.75056905  0.62831377  1
  V  V24  1  0.24651241  0.25105243  0.00122300  1
  V  V25  1  0.87472787  0.12595847  0.24642135  1
  V  V26  1  0.12247107  0.62627250  0.00262659  1
  V  V27  1  0.62613015  0.36229677  0.74772031  1
  V  V28  1  0.24957065  0.50138821  0.24995369  1
  V  V29  1  0.88085036  0.74419384  0.12068328  1
  V  V30  1  0.75468950  0.12917453  0.88749947  1
  V  V31  1  0.12098606  0.50245393  0.63071253  1
  V  V32  1  0.38310690  0.00369445  0.37635388  1
  V  V33  1  0.25111802  0.00182172  0.75252583  1
  V  V34  1  0.87997603  0.00063206  0.86623410  1
  V  V35  1  0.24982671  0.62166554  0.87028527  1
  V  V36  1  0.24953235  0.75009383  0.50052870  1
  V  V37  1  0.61714898  0.86220569  0.75486845  1
  V  V38  1  0.11687582  0.00264818  0.62287810  1
  V  V39  1  0.50100773  0.49841564  0.50230953  1
  V  V40  1  0.75960638  0.25011407  0.50503227  1
  V  V41  1  0.75841030  0.36973253  0.11369909  1
  V  V42  1  0.74715616  0.00160674  0.24157568  1
  V  V43  1  0.62240267  0.62443468  -0.01067793  1
  V  V44  1  -0.01328256  0.38045286  0.87750240  1
  V  V45  1  0.49997164  0.37326222  0.37511361  1
  V  V46  1  0.87606742  0.62746494  0.25343411  1
  V  V47  1  0.37073641  0.49697809  0.86836650  1
  V  V48  1  0.11778756  0.50475190  0.12419032  1
  V  V49  1  0.24777180  0.37533858  0.12531723  1
  V  V50  1  0.62672917  0.24798080  0.37681077  1
  V  V51  1  0.74776825  0.74896158  -0.00928507  1
  V  V52  1  0.12199996  0.37677393  0.25043157  1
  V  V53  1  0.74740226  0.87529887  0.62507139  1
  V  V54  1  0.00535810  0.75558981  0.24377042  1
  V  V55  1  0.25946449  0.75285881  0.00481927  1
  V  V56  1  -0.00664921  0.38991133  0.38049982  1
  V  V57  1  0.75214481  0.87796389  0.12117621  1
  V  V58  1  0.75357841  0.50391443  0.25279020  1
  V  V59  1  0.38056677  0.12985580  0.74915912  1
  V  V60  1  0.49738512  0.24533850  0.25027163  1
  V  V61  1  0.50362776  0.62665285  0.62895313  1
  V  V62  1  0.62125337  0.11454800  0.49896585  1
  V  V63  1  0.88132569  0.00101286  0.37513261  1
  V  V64  1  0.11735167  0.62142538  0.49832190  1
  V  V65  1  0.62014756  0.23812333  0.88669447  1
  V  V66  1  -0.00071763  0.75377274  0.75462838  1
  V  V67  1  0.62893327  0.37448817  0.24575223  1
  V  V68  1  0.24808216  0.25143081  0.50171524  1
  V  V69  1  0.37508227  0.37492810  0.00080156  1
  V  V70  1  0.37435135  0.37466730  0.50165695  1
  V  V71  1  -0.01928075  0.25036830  0.74781271  1
  V  V72  1  0.63036013  0.62166767  0.49394538  1
  V  V73  1  0.50049560  0.62433116  0.13091489  1
  V  V74  1  0.38399081  0.88085134  0.50205400  1
  V  V75  1  0.12741339  0.12133717  0.00096239  1
  V  V76  1  0.50033328  0.36964405  0.86819645  1
  V  V77  1  0.76154701  0.36990609  0.63092650  1
  V  V78  1  0.25042053  0.38210977  0.63265547  1
  V  V79  1  -0.01112586  0.50116948  -0.00237205  1
  V  V80  1  0.12596109  0.75935675  0.37166298  1
  V  V81  1  0.00241478  0.11922022  0.12337181  1
  V  V82  1  0.00682682  -0.00550130  -0.00507936  1
  V  V83  1  0.11890931  0.12608953  0.50177032  1
  V  V84  1  0.12703421  0.75654298  0.87559316  1
  Zn  Zn85  1  0.25200741  0.12770335  0.87433028  1
  Zn  Zn86  1  0.12230588  0.25263352  0.37680778  1
  Zn  Zn87  1  0.82029826  0.55661689  0.41910154  1
  Zn  Zn88  1  -0.00657075  0.61775518  0.62125973  1
  Zn  Zn89  1  0.50656056  0.87123062  0.89199568  1
  Zn  Zn90  1  0.62537127  0.50005276  0.12254163  1
  Zn  Zn91  1  0.74773317  0.62362430  0.87342483  1
  Zn  Zn92  1  0.24839112  0.12616961  0.37505652  1
  Zn  Zn93  1  0.37074259  0.12452226  0.24903773  1
  Zn  Zn94  1  0.62037906  0.74056231  0.36291922  1
  Zn  Zn95  1  0.37883182  0.76050610  0.13097854  1
  Zn  Zn96  1  0.87492785  0.24934894  0.10742467  1
  Zn  Zn97  1  0.49959826  0.87064968  0.37700485  1
  Zn  Zn98  1  0.49962352  0.49872765  0.00052851  1
  Zn  Zn99  1  0.00716788  0.88248688  0.37034313  1
  Zn  Zn100  1  0.38030064  0.25268284  0.62934060  1
  Zn  Zn101  1  0.24854081  0.62625769  0.37460639  1
  Zn  Zn102  1  0.61664108  -0.00542965  0.62232625  1
  Zn  Zn103  1  0.87718079  0.38879324  0.50012962  1
  Zn  Zn104  1  0.12632399  0.38122359  0.75398782  1
  Zn  Zn105  1  0.62439935  0.49450996  0.62846983  1
  Zn  Zn106  1  0.37335429  0.24776639  0.12626404  1
  Zn  Zn107  1  0.18487170  0.18555768  0.18773069  1
  Zn  Zn108  1  0.18819045  0.18874970  0.68560501  1
  Zn  Zn109  1  0.18932091  0.68922033  0.18718277  1
  Zn  Zn110  1  0.18895522  0.68565049  0.68870594  1
  Zn  Zn111  1  0.68569394  0.18949250  0.18234906  1
  Zn  Zn112  1  0.68707657  0.18773662  0.68765915  1
  Zn  Zn113  1  0.69108384  0.68855835  0.18097213  1
  Zn  Zn114  1  0.69022983  0.68477954  0.68503940  1
  Zn  Zn115  1  0.31085704  0.31203361  0.31453473  1
  Zn  Zn116  1  0.31014730  0.31036955  0.81216068  1
  Zn  Zn117  1  0.30977083  0.81949049  0.31359342  1
  Zn  Zn118  1  0.35028462  0.79419656  0.83415482  1
  Zn  Zn119  1  0.81518702  0.31430625  0.31077696  1
  Zn  Zn120  1  0.81054084  0.31041659  0.93358900  1
  Zn  Zn121  1  0.81351504  0.81486488  0.30835186  1
  Zn  Zn122  1  0.81068265  0.81621602  0.81051889  1
  Zn  Zn123  1  0.18358380  0.43821251  0.43908863  1
  Zn  Zn124  1  0.18419197  0.43847867  0.93740160  1
  Zn  Zn125  1  0.19153021  0.94047660  0.44172337  1
  Zn  Zn126  1  0.19635386  0.93703766  0.93721450  1
  Zn  Zn127  1  0.68690869  0.43236493  0.43954614  1
  Zn  Zn128  1  0.68056528  0.43857794  0.93576590  1
  Zn  Zn129  1  0.69589594  0.93646170  0.43271216  1
  Zn  Zn130  1  0.69295834  0.93441861  0.92800617  1
  Zn  Zn131  1  0.31440435  0.06498890  0.06951893  1
  Zn  Zn132  1  0.30997878  0.06374250  0.56438549  1
  Zn  Zn133  1  0.31143483  0.56314120  0.06222593  1
  Zn  Zn134  1  0.30939199  0.56292307  0.56197879  1
  Zn  Zn135  1  0.81814687  0.06230307  0.05952455  1
  Zn  Zn136  1  0.80911986  0.06092505  0.55987145  1
  Zn  Zn137  1  0.80705190  0.56316686  0.06755174  1
  Zn  Zn138  1  0.80964220  0.55911568  0.58095761  1
  Zn  Zn139  1  0.43833260  0.43905612  0.18721570  1
  Zn  Zn140  1  0.43899638  0.43692484  0.68885406  1
  Zn  Zn141  1  0.42716871  0.94028013  0.19012749  1
  Zn  Zn142  1  0.43851221  0.94361314  0.68743834  1
  Zn  Zn143  1  0.93570981  0.44165038  0.18717186  1
  Zn  Zn144  1  0.93880569  0.43680806  0.69065402  1
  Zn  Zn145  1  0.93926789  0.93680565  0.18379279  1
  Zn  Zn146  1  0.93792030  0.93729707  0.68688025  1
  Zn  Zn147  1  0.06203454  0.06816826  0.31549288  1
  Zn  Zn148  1  0.06211655  0.06789502  0.81105235  1
  Zn  Zn149  1  0.06001715  0.57145536  0.30962851  1
  Zn  Zn150  1  0.06162314  0.56542535  0.81176469  1
  Zn  Zn151  1  0.56314516  0.05940103  0.30980653  1
  Zn  Zn152  1  0.56171787  0.05663166  0.81144679  1
  Zn  Zn153  1  0.56294395  0.55897195  0.31280902  1
  Zn  Zn154  1  0.56093056  0.55536792  0.81133758  1
  Zn  Zn155  1  0.43657325  0.18601765  0.44043811  1
  Zn  Zn156  1  0.43450047  0.18819895  0.93412606  1
  Zn  Zn157  1  0.44199512  0.68981284  0.43741237  1
  Zn  Zn158  1  0.44344945  0.68742710  0.93894007  1
  Zn  Zn159  1  0.93979722  0.19151684  0.43591322  1
  Zn  Zn160  1  0.94155534  0.18224997  0.93152465  1
  Zn  Zn161  1  0.94265103  0.69491463  0.43475387  1
  Zn  Zn162  1  0.94182623  0.68760602  0.93576792  1
  Zn  Zn163  1  0.05740298  0.31262561  0.06006553  1
  Zn  Zn164  1  0.06038199  0.31489247  0.56441497  1
  Zn  Zn165  1  0.06748430  0.81529084  0.06410641  1
  Zn  Zn166  1  0.06183604  0.81136170  0.56284081  1
  Zn  Zn167  1  0.56268854  0.31229272  0.06149234  1
  Zn  Zn168  1  0.56511557  0.30472175  0.56358316  1
  Zn  Zn169  1  0.56558814  0.79131463  0.07083600  1
  Zn  Zn170  1  0.56453143  0.80725748  0.56025735  1
  O  O171  1  0.11662422  0.13006519  0.10981553  1
  O  O172  1  0.11701731  0.12007159  0.62105918  1
  O  O173  1  0.13038972  0.61691522  0.11504637  1
  O  O174  1  0.12502047  0.61616769  0.61924019  1
  O  O175  1  0.60784680  0.12593138  0.12889147  1
  O  O176  1  0.61961677  0.12273276  0.61623035  1
  O  O177  1  0.61687343  0.62378633  0.11808500  1
  O  O178  1  0.61899862  0.62176763  0.61581023  1
  O  O179  1  0.38054568  0.38139759  0.38082212  1
  O  O180  1  0.37943897  0.37787255  0.87819060  1
  O  O181  1  0.37548565  0.88268894  0.38528736  1
  O  O182  1  0.35838236  0.89984776  0.87542359  1
  O  O183  1  0.88892167  0.37680838  0.37394306  1
  O  O184  1  0.88802813  0.37666450  0.87402461  1
  O  O185  1  0.87411960  0.88335788  0.38139444  1
  O  O186  1  0.87195598  0.88260387  0.88585295  1
  O  O187  1  0.25412511  0.00061163  0.36524046  1
  O  O188  1  0.25033187  0.00817125  0.86262868  1
  O  O189  1  0.25532918  0.50113016  0.36930346  1
  O  O190  1  0.25753545  0.50863287  0.88049481  1
  O  O191  1  0.76043746  0.00656594  0.36197777  1
  O  O192  1  0.75641907  0.00915665  0.86662821  1
  O  O193  1  0.74544557  0.49337351  0.35876524  1
  O  O194  1  0.74825871  0.49961020  0.86448806  1
  O  O195  1  0.24017656  0.49422701  0.12918865  1
  O  O196  1  0.23934969  0.49243198  0.62075412  1
  O  O197  1  0.25111667  0.99357305  0.13685049  1
  O  O198  1  0.23976324  0.99772427  0.63510036  1
  O  O199  1  0.74733570  0.48764957  0.13422776  1
  O  O200  1  0.74285567  0.48743644  0.63998008  1
  O  O201  1  0.75897053  0.99572602  0.13390204  1
  O  O202  1  0.74990349  0.99108972  0.63144455  1
  O  O203  1  0.00234015  0.37024018  0.25388802  1
  O  O204  1  0.00298849  0.36734962  0.75963373  1
  O  O205  1  -0.00542060  0.86197044  0.25089602  1
  O  O206  1  0.00639206  0.86206499  0.74517062  1
  O  O207  1  0.50727939  0.36493508  0.25159410  1
  O  O208  1  0.50637342  0.37541202  0.76111511  1
  O  O209  1  0.51595535  0.88254042  0.24524455  1
  O  O210  1  0.51740358  0.87728682  0.73984212  1
  O  O211  1  0.50130111  0.13823657  0.24998831  1
  O  O212  1  0.49159241  0.11901684  0.74163592  1
  O  O213  1  0.48999389  0.61530358  0.24412079  1
  O  O214  1  0.49533283  0.61771955  0.73642427  1
  O  O215  1  0.99796180  0.13171528  0.24075031  1
  O  O216  1  1.00195677  0.14155614  0.74379121  1
  O  O217  1  0.98959425  0.64071240  0.24986187  1
  O  O218  1  0.99361979  0.63575510  0.74673236  1
  O  O219  1  0.36695850  0.26109157  -0.00162472  1
  O  O220  1  0.36665835  0.25835637  0.50171782  1
  O  O221  1  0.36050149  0.73838193  0.00853662  1
  O  O222  1  0.36688362  0.75510448  0.50941263  1
  O  O223  1  0.87799307  0.24680256  -0.00500287  1
  O  O224  1  0.86172825  0.25436676  0.49369382  1
  O  O225  1  0.87469835  0.75593437  0.00285087  1
  O  O226  1  0.86974679  0.75468919  0.50679779  1
  O  O227  1  0.13172608  0.24570157  0.50203779  1
  O  O228  1  0.12615013  0.24499890  0.98993759  1
  O  O229  1  0.13249202  0.74503684  0.49622908  1
  O  O230  1  0.13167611  0.74416650  0.99298851  1
  O  O231  1  0.63520426  0.24132111  0.49150366  1
  O  O232  1  0.62568790  0.25129517  0.98506875  1
  O  O233  1  0.63800284  0.73929260  0.50151438  1
  O  O234  1  0.63591406  0.73947550  1.00070946  1
  O  O235  1  0.49894259  0.24316005  0.13122692  1
  O  O236  1  0.49664564  0.23326934  0.62037072  1
  O  O237  1  0.49272472  0.73239606  0.13029564  1
  O  O238  1  0.49064014  0.73895300  0.61831050  1
  O  O239  1  0.99798109  0.24132198  0.13066717  1
  O  O240  1  1.00301843  0.24737931  0.63987571  1
  O  O241  1  0.99304580  0.75484483  0.12879531  1
  O  O242  1  0.98765820  0.74996597  0.63067643  1
  O  O243  1  0.00152447  0.25829638  0.36278065  1
  O  O244  1  0.00519804  0.25892106  0.86538040  1
  O  O245  1  0.00966647  0.75723139  0.36533543  1
  O  O246  1  0.01335065  0.74800646  0.86644329  1
  O  O247  1  0.50504677  0.25458275  0.36904787  1
  O  O248  1  0.51155801  0.25294290  0.87534167  1
  O  O249  1  0.50876989  0.75708845  0.38092091  1
  O  O250  1  0.45902066  0.77191506  0.87100482  1
  O  O251  1  0.23875479  0.13545337  0.50361315  1
  O  O252  1  0.24274439  0.13243664  1.00158414  1
  O  O253  1  0.24303589  0.63800398  0.49973885  1
  O  O254  1  0.24035548  0.62979958  0.99288166  1
  O  O255  1  0.74477065  0.13221437  0.49343250  1
  O  O256  1  0.74970317  0.11870404  0.98570250  1
  O  O257  1  0.74592668  0.62938294  0.50069357  1
  O  O258  1  0.74184796  0.63079095  0.99811912  1
  O  O259  1  0.25440139  0.37036460  0.00483111  1
  O  O260  1  0.25387421  0.37051288  0.50794408  1
  O  O261  1  0.24846168  0.86783264  0.01245218  1
  O  O262  1  0.25637233  0.86534058  0.50796043  1
  O  O263  1  0.74918015  0.37893523  0.00917627  1
  O  O264  1  0.74892131  0.36629443  0.51096444  1
  O  O265  1  0.75837099  0.86966923  0.00215189  1
  O  O266  1  0.75747064  0.86626500  0.50629428  1
  O  O267  1  0.12848382  0.49993096  0.24199180  1
  O  O268  1  0.12605866  0.50296702  0.73591519  1
  O  O269  1  0.13508195  1.00161215  0.25604938  1
  O  O270  1  0.12979195  0.99778709  0.74546124  1
  O  O271  1  0.62968616  0.48698252  0.24818545  1
  O  O272  1  0.63117667  0.48434941  0.75224352  1
  O  O273  1  0.63647227  0.98982480  0.25128299  1
  O  O274  1  0.63424471  0.98986727  0.74557709  1
  O  O275  1  0.36456196  0.00381934  0.26256079  1
  O  O276  1  0.36655347  0.00946529  0.75365038  1
  O  O277  1  0.36831222  0.50321748  0.25744078  1
  O  O278  1  0.37587733  0.50362471  0.76102853  1
  O  O279  1  0.86936778  0.00599871  0.25365362  1
  O  O280  1  0.86617550  -0.01050582  0.76068271  1
  O  O281  1  0.86810309  0.51431852  0.24481967  1
  O  O282  1  0.86662768  0.50858216  0.74493468  1
  O  O283  1  0.11466144  0.37550703  0.36687981  1
  O  O284  1  0.11850982  0.36848212  0.87301754  1
  O  O285  1  0.12496957  0.86372056  0.38527628  1
  O  O286  1  0.13418518  0.86247039  0.87030008  1
  O  O287  1  0.61877957  0.36805485  0.36721669  1
  O  O288  1  0.61728393  0.36335000  0.87085370  1
  O  O289  1  0.62542768  0.87692721  0.36155450  1
  O  O290  1  0.62214688  0.87394425  0.86080819  1
  O  O291  1  0.38998772  0.12828455  0.12990171  1
  O  O292  1  0.38130260  0.12577322  0.63118212  1
  O  O293  1  0.38042946  0.62138107  0.13622765  1
  O  O294  1  0.38129947  0.63001464  0.62683481  1
  O  O295  1  0.88368594  0.12754387  0.12973364  1
  O  O296  1  0.88904020  0.11862273  0.61825773  1
  O  O297  1  0.87092765  0.63962868  0.13097443  1
  O  O298  1  0.87524295  0.63562173  0.63832192  1
  O  O299  1  0.24983109  0.25712814  0.11949766  1
  O  O300  1  0.25082943  0.26046323  0.61530045  1
  O  O301  1  0.25097801  0.75907390  0.11982853  1
  O  O302  1  0.25389099  0.75513817  0.61814133  1
  O  O303  1  0.75234262  0.26580674  0.12774219  1
  O  O304  1  0.74641902  0.25643935  0.61670202  1
  O  O305  1  0.75990179  0.75796930  0.11153746  1
  O  O306  1  0.76160184  0.75581125  0.61908715  1
  O  O307  1  0.24579674  0.25156031  0.38873452  1
  O  O308  1  0.24157191  0.24899228  0.88325221  1
  O  O309  1  0.24446392  0.75023281  0.38322607  1
  O  O310  1  0.24988454  0.74201913  0.88424553  1
  O  O311  1  0.74555973  0.24511621  0.37819460  1
  O  O312  1  0.74013717  0.23519694  0.87484406  1
  O  O313  1  0.74692677  0.75515873  0.38520904  1
  O  O314  1  0.75664085  0.74847141  0.88721597  1
  O  O315  1  0.00681577  0.11468648  0.00423344  1
  O  O316  1  0.01127101  0.13633629  0.50985744  1
  O  O317  1  0.01540494  0.61788025  -0.00904524  1
  O  O318  1  0.01313449  0.63492895  0.50387797  1
  O  O319  1  0.50046755  0.13145740  0.01013326  1
  O  O320  1  0.51350418  0.12800220  0.50354966  1
  O  O321  1  0.50659375  0.62305199  0.00772945  1
  O  O322  1  0.50634876  0.61690894  0.50964086  1
  O  O323  1  0.49571715  0.37825318  0.49666835  1
  O  O324  1  0.49096880  0.37332753  0.98990720  1
  O  O325  1  0.48686133  0.87523604  0.50567199  1
  O  O326  1  0.51507975  0.88349506  1.01456739  1
  O  O327  1  0.99869105  0.37172367  0.48440814  1
  O  O328  1  1.00416073  0.38475011  0.98616461  1
  O  O329  1  0.98565080  0.87134571  0.49835021  1
  O  O330  1  0.99665907  0.88657838  1.00269393  1
  O  O331  1  0.49426556  0.49193975  0.38211548  1
  O  O332  1  0.48962115  0.48864480  0.87838063  1
  O  O333  1  0.48699436  0.99544373  0.37158196  1
  O  O334  1  0.48782256  0.99028322  0.87359912  1
  O  O335  1  1.00356140  0.48853032  0.36850093  1
  O  O336  1  1.00560346  0.48819960  0.87969941  1
  O  O337  1  0.98652615  1.00009260  0.36972785  1
  O  O338  1  0.99077851  1.00675459  0.88060799  1
  O  O339  1  -0.00343089  0.01166616  0.11494794  1
  O  O340  1  0.01048760  0.01008109  0.63389191  1
  O  O341  1  0.01165828  0.49434456  0.11619653  1
  O  O342  1  0.01523758  0.49958671  0.62616250  1
  O  O343  1  0.50023851  0.01019963  0.12420803  1
  O  O344  1  0.50064502  0.01459613  0.62125017  1
  O  O345  1  0.50167135  0.50857476  0.12113963  1
  O  O346  1  0.50152159  0.50514098  0.61757873  1
  O  O347  1  0.24257308  0.38144712  0.24607329  1
  O  O348  1  0.24846315  0.37187389  0.73648542  1
  O  O349  1  0.24812766  0.88959888  0.24417196  1
  O  O350  1  0.24091320  0.88540854  0.74219072  1
  O  O351  1  0.74422570  0.37925306  0.24201939  1
  O  O352  1  0.74188679  0.37745659  0.74393372  1
  O  O353  1  0.74480090  0.88381639  0.24081344  1
  O  O354  1  0.74268661  0.88179725  0.74170657  1
  O  O355  1  0.24867861  0.11368568  0.25089076  1
  O  O356  1  0.25653971  0.11766103  0.74846897  1
  O  O357  1  0.25769378  0.61625333  0.25143592  1
  O  O358  1  0.25685432  0.62820255  0.76329031  1
  O  O359  1  0.75328156  0.12027233  0.25150334  1
  O  O360  1  0.74604260  0.11245968  0.75443132  1
  O  O361  1  0.75748933  0.61620457  0.24330808  1
  O  O362  1  0.75552265  0.61469064  0.75133782  1
  O  O363  1  0.36969833  0.11725052  0.37615924  1
  O  O364  1  0.37473733  0.11606710  0.86623528  1
  O  O365  1  0.37455779  0.61686187  0.37059713  1
  O  O366  1  0.36963556  0.61439210  0.87187614  1
  O  O367  1  0.87097612  0.12008564  0.36849055  1
  O  O368  1  0.86226528  0.11575378  0.87347691  1
  O  O369  1  0.87470033  0.63690721  0.36056531  1
  O  O370  1  0.87324515  0.63057044  0.86229230  1
  O  O371  1  0.12769115  0.38225674  0.13060110  1
  O  O372  1  0.13081131  0.38786408  0.62542776  1
  O  O373  1  0.14322904  0.87310442  0.12702306  1
  O  O374  1  0.12706637  0.88411286  0.62845441  1
  O  O375  1  0.63378743  0.37443292  0.13096765  1
  O  O376  1  0.62931847  0.37103976  0.63440124  1
  O  O377  1  0.62743320  0.88345499  0.12689307  1
  O  O378  1  0.63678859  0.87408966  0.62539498  1
  O  O379  1  0.11383276  0.25690181  0.24937293  1
  O  O380  1  0.12611587  0.25147307  0.76277435  1
  O  O381  1  0.11827770  0.74408296  0.25955361  1
  O  O382  1  0.11934883  0.75368103  0.75574705  1
  O  O383  1  0.62040160  0.25909176  0.25565635  1
  O  O384  1  0.62904449  0.25846576  0.76163881  1
  O  O385  1  0.63642058  0.76964006  0.24588564  1
  O  O386  1  0.63160663  0.76363910  0.74438149  1
  O  O387  1  0.38360362  0.24978079  0.24961143  1
  O  O388  1  0.36934068  0.23471145  0.74958226  1
  O  O389  1  0.36699935  0.73652274  0.25377184  1
  O  O390  1  0.36629656  0.74056514  0.73271629  1
  O  O391  1  0.88522754  0.24384477  0.24670223  1
  O  O392  1  0.88603191  0.25157812  0.75292199  1
  O  O393  1  0.87860532  0.74737407  0.23901045  1
  O  O394  1  0.88076114  0.74849270  0.74473123  1
  O  O395  1  0.37941933  0.49483808  0.49401419  1
  O  O396  1  0.37285493  0.48779128  0.99123434  1
  O  O397  1  0.36189318  0.99029564  0.49107497  1
  O  O398  1  0.36996390  1.01051866  0.98500402  1
  O  O399  1  0.86788772  0.50302264  0.50328028  1
  O  O400  1  0.89009871  0.51209721  1.00667502  1
  O  O401  1  0.86602117  0.99048974  0.48752852  1
  O  O402  1  0.88387243  0.99272548  0.98959179  1
  O  O403  1  0.11847925  0.00803079  -0.00998730  1
  O  O404  1  0.12962448  0.01060002  0.51191227  1
  O  O405  1  0.11972815  0.50822428  0.00653408  1
  O  O406  1  0.13016816  0.51296360  0.50972670  1
  O  O407  1  0.62829561  -0.00079946  0.00285960  1
  O  O408  1  0.63708094  0.01113006  0.49960368  1
  O  O409  1  0.62154048  0.50909560  0.00280025  1
  O  O410  1  0.61996282  0.50412846  0.50294856  1
  O  O411  1  0.36918238  0.37437724  0.11592878  1
  O  O412  1  0.36812160  0.37559292  0.61983242  1
  O  O413  1  0.35720966  0.87308819  0.13233762  1
  O  O414  1  0.36968671  0.86968174  0.62184870  1
  O  O415  1  0.86105204  0.37374503  0.12762470  1
  O  O416  1  0.86445004  0.37618270  0.62456629  1
  O  O417  1  0.87228645  0.86869159  0.11110852  1
  O  O418  1  0.86651974  0.87114021  0.61843969  1
  O  O419  1  0.12605812  0.12994527  0.38743282  1
  O  O420  1  0.12469807  0.13478574  0.88533397  1
  O  O421  1  0.12667010  0.63535915  0.38337899  1
  O  O422  1  0.13372499  0.63400663  0.87815137  1
  O  O423  1  0.63079721  0.12762529  0.37980470  1
  O  O424  1  0.63222467  0.13287532  0.86990597  1
  O  O425  1  0.62203082  0.62270176  0.38877922  1
  O  O426  1  0.62216821  0.62214533  0.88503605  1
