# generated using pymatgen
data_V85Zn86O256
_symmetry_space_group_name_H-M   'P 1'
_cell_length_a   16.94906057
_cell_length_b   16.93994017
_cell_length_c   16.94867103
_cell_angle_alpha   89.96234845
_cell_angle_beta   90.07752337
_cell_angle_gamma   89.95154103
_symmetry_Int_Tables_number   1
_chemical_formula_structural   V85Zn86O256
_chemical_formula_sum   'V85 Zn86 O256'
_cell_volume   4866.22860094
_cell_formula_units_Z   1
loop_
 _symmetry_equiv_pos_site_id
 _symmetry_equiv_pos_as_xyz
  1  'x, y, z'
loop_
 _atom_site_type_symbol
 _atom_site_label
 _atom_site_symmetry_multiplicity
 _atom_site_fract_x
 _atom_site_fract_y
 _atom_site_fract_z
 _atom_site_occupancy
  V  V0  1  0.50130429  0.88102775  0.37879772  1
  V  V1  1  0.37476639  0.37349609  -0.00110681  1
  V  V2  1  0.00196841  0.62558247  0.62058482  1
  V  V3  1  0.12156350  0.38347166  0.23986650  1
  V  V4  1  0.62628900  0.74230434  0.37354114  1
  V  V5  1  -0.00723509  0.38268198  0.37379517  1
  V  V6  1  0.87197571  0.87685630  0.50106737  1
  V  V7  1  0.24553717  0.24105941  -0.00014009  1
  V  V8  1  0.62224821  0.49261452  0.61744561  1
  V  V9  1  0.62541158  0.00415332  0.12271595  1
  V  V10  1  0.50124397  0.76244001  0.75269268  1
  V  V11  1  0.25013875  0.50386617  0.74867732  1
  V  V12  1  0.62501451  0.87473617  0.25033198  1
  V  V13  1  0.25130888  0.00165777  0.74995104  1
  V  V14  1  0.62076771  0.24239768  0.86063854  1
  V  V15  1  0.75181150  -0.00027006  0.24958435  1
  V  V16  1  0.74936633  0.74251846  0.49712472  1
  V  V17  1  0.12507028  0.61912369  0.00545471  1
  V  V18  1  0.62351310  0.10953172  0.50061400  1
  V  V19  1  0.62430888  0.50059320  0.12598471  1
  V  V20  1  0.25578436  0.37266529  0.62371692  1
  V  V21  1  0.12885751  0.86959994  0.25373210  1
  V  V22  1  0.75699269  0.87426094  0.12069515  1
  V  V23  1  0.87211800  0.75218951  0.63059090  1
  V  V24  1  0.49989351  0.49935451  -0.00267615  1
  V  V25  1  -0.00004905  0.24702548  0.24892329  1
  V  V26  1  0.37755701  0.87828066  0.50054556  1
  V  V27  1  0.37873004  0.13644389  0.74771214  1
  V  V28  1  0.50325095  0.62250677  0.62731511  1
  V  V29  1  0.87723455  0.12389089  0.25030115  1
  V  V30  1  0.86999793  0.37711632  0.49845902  1
  V  V31  1  0.87300474  0.62431954  0.74828920  1
  V  V32  1  0.00684359  0.86930386  0.37659725  1
  V  V33  1  0.73726203  0.24227658  -0.00168077  1
  V  V34  1  0.74638787  0.88051188  0.63721980  1
  V  V35  1  0.87235389  0.37296521  -0.00279549  1
  V  V36  1  0.25800474  0.25426796  0.50243479  1
  V  V37  1  0.62720471  0.24330176  0.37800055  1
  V  V38  1  0.74711103  0.36775913  0.63267714  1
  V  V39  1  -0.01415914  -0.00357005  -0.00296073  1
  V  V40  1  0.12229254  0.50177614  0.62066362  1
  V  V41  1  0.50639084  0.37195769  0.86211355  1
  V  V42  1  0.12575784  0.12741952  0.50144902  1
  V  V43  1  0.50156346  0.38050693  0.38724567  1
  V  V44  1  0.12078091  0.36914019  0.74787993  1
  V  V45  1  0.25051511  0.87205246  0.62449343  1
  V  V46  1  0.49636246  0.13499128  0.62381279  1
  V  V47  1  0.38064586  0.87028240  0.00002151  1
  V  V48  1  0.49261427  0.63626904  0.12208235  1
  V  V49  1  -0.00224651  0.74980329  0.75338508  1
  V  V50  1  0.25772524  0.87240458  0.12537034  1
  V  V51  1  0.88325928  0.74982029  0.12767115  1
  V  V52  1  0.37849211  -0.00280470  0.87315056  1
  V  V53  1  0.12965453  0.00262486  0.11414966  1
  V  V54  1  0.12570331  0.74989270  0.87622771  1
  V  V55  1  -0.00206929  0.36804514  0.86804742  1
  V  V56  1  0.25220483  0.62396873  0.87326113  1
  V  V57  1  0.12243746  0.24094419  0.87509501  1
  V  V58  1  0.00492192  0.12390326  0.11876744  1
  V  V59  1  0.87327220  0.49794111  0.87263652  1
  V  V60  1  -0.01351990  0.87635448  0.87894945  1
  V  V61  1  0.50391312  0.12812277  0.12106945  1
  V  V62  1  0.25407043  0.75017539  -0.00023595  1
  V  V63  1  0.74791746  0.37500163  0.12566076  1
  V  V64  1  0.37279212  0.25331522  0.12572307  1
  V  V65  1  0.62872757  0.62833529  -0.00269569  1
  V  V66  1  0.75917458  0.75190469  -0.00577845  1
  V  V67  1  0.00152282  0.00334954  0.50236786  1
  V  V68  1  0.73741077  0.49591611  0.75240664  1
  V  V69  1  0.62281486  0.76262120  0.87207719  1
  V  V70  1  0.25081097  0.00162166  0.25339508  1
  V  V71  1  0.50030405  0.25519556  0.25128150  1
  V  V72  1  0.12525587  0.87541825  0.75369991  1
  V  V73  1  0.87323627  0.12266703  0.75751597  1
  V  V74  1  0.00214414  0.49714110  0.00344371  1
  V  V75  1  0.49989479  0.00214712  -0.00313454  1
  V  V76  1  0.87734469  -0.00004111  0.37588285  1
  V  V77  1  0.23850729  0.74070091  0.48735221  1
  V  V78  1  0.12454597  0.25523285  0.37473739  1
  V  V79  1  0.37427508  0.12942058  0.25290657  1
  V  V80  1  0.37225450  0.62689867  0.25761689  1
  V  V81  1  0.24343211  0.38527107  0.12243599  1
  V  V82  1  0.37559229  0.74174743  0.62898259  1
  V  V83  1  0.61684914  -0.00692233  0.64023559  1
  V  V84  1  0.37610732  0.50218188  0.86933877  1
  Zn  Zn85  1  0.75170321  0.51264402  0.27418644  1
  Zn  Zn86  1  0.62051483  0.62053261  0.49547789  1
  Zn  Zn87  1  0.25226261  0.12939868  0.37611939  1
  Zn  Zn88  1  0.74799032  0.62706990  0.87326923  1
  Zn  Zn89  1  0.00473419  0.61626977  0.13395519  1
  Zn  Zn90  1  0.87827647  0.62045060  0.27307844  1
  Zn  Zn91  1  0.37969703  0.00368106  0.38007267  1
  Zn  Zn92  1  0.24911523  0.12332868  0.87671574  1
  Zn  Zn93  1  0.22173759  0.53250759  0.28904177  1
  Zn  Zn94  1  0.00097290  0.13424697  0.63467303  1
  Zn  Zn95  1  -0.00539330  0.50469126  0.49513313  1
  Zn  Zn96  1  0.38199305  0.38049515  0.50878025  1
  Zn  Zn97  1  0.37565647  0.50855011  0.38573958  1
  Zn  Zn98  1  0.62770718  0.37666025  0.25195722  1
  Zn  Zn99  1  0.74613302  0.10963200  0.87370237  1
  Zn  Zn100  1  0.75198298  0.24252984  0.50735940  1
  Zn  Zn101  1  0.75243382  0.12261894  0.37968098  1
  Zn  Zn102  1  0.49559863  0.75451283  0.24709593  1
  Zn  Zn103  1  0.00532571  0.74552395  0.25258896  1
  Zn  Zn104  1  0.89068635  0.25198542  0.63250216  1
  Zn  Zn105  1  0.12610011  0.00099461  0.62574286  1
  Zn  Zn106  1  0.87328282  0.24578195  0.11951401  1
  Zn  Zn107  1  0.18694180  0.19135842  0.18709527  1
  Zn  Zn108  1  0.18576931  0.18851631  0.68589294  1
  Zn  Zn109  1  0.19084125  0.69103310  0.18331978  1
  Zn  Zn110  1  0.18724850  0.68682622  0.68610954  1
  Zn  Zn111  1  0.68806393  0.18780255  0.18861062  1
  Zn  Zn112  1  0.69080090  0.17691803  0.69074781  1
  Zn  Zn113  1  0.68607694  0.69114859  0.18522665  1
  Zn  Zn114  1  0.68571664  0.68686826  0.68743295  1
  Zn  Zn115  1  0.29910854  0.34293089  0.32434532  1
  Zn  Zn116  1  0.30930840  0.31604438  0.81379898  1
  Zn  Zn117  1  0.31693233  0.80649074  0.31330575  1
  Zn  Zn118  1  0.31815458  0.81347040  0.81262928  1
  Zn  Zn119  1  0.81071451  0.31048104  0.31134465  1
  Zn  Zn120  1  0.80992704  0.30412707  0.81053334  1
  Zn  Zn121  1  0.81460611  0.80841990  0.31148240  1
  Zn  Zn122  1  0.80850139  0.94481850  0.81314091  1
  Zn  Zn123  1  0.18493967  0.46066526  0.43101305  1
  Zn  Zn124  1  0.18637736  0.43303955  0.93653854  1
  Zn  Zn125  1  0.19143408  0.93675095  0.43864796  1
  Zn  Zn126  1  0.18956654  0.93703935  0.93581553  1
  Zn  Zn127  1  0.68243641  0.42683330  0.44376769  1
  Zn  Zn128  1  0.68610590  0.43648313  0.93731645  1
  Zn  Zn129  1  0.69024981  0.93373037  0.43844545  1
  Zn  Zn130  1  0.67912779  0.93467091  0.94186776  1
  Zn  Zn131  1  0.31663027  0.06287556  0.06479636  1
  Zn  Zn132  1  0.31327903  0.06308693  0.56281467  1
  Zn  Zn133  1  0.31421108  0.56218631  0.06075180  1
  Zn  Zn134  1  0.31497326  0.56190790  0.55931957  1
  Zn  Zn135  1  0.81300782  0.06287186  0.05992461  1
  Zn  Zn136  1  0.81184488  0.06337439  0.57215394  1
  Zn  Zn137  1  0.81119763  0.56751136  0.12882957  1
  Zn  Zn138  1  0.81130343  0.55971672  0.44515027  1
  Zn  Zn139  1  0.43624107  0.44086614  0.18846078  1
  Zn  Zn140  1  0.43696268  0.43888967  0.68710129  1
  Zn  Zn141  1  0.43800035  0.93971035  0.18936694  1
  Zn  Zn142  1  0.43779092  0.93897102  0.68495848  1
  Zn  Zn143  1  0.93427773  0.43490011  0.18613900  1
  Zn  Zn144  1  0.93228038  0.43776199  0.68519834  1
  Zn  Zn145  1  0.94115218  0.93485534  0.18607912  1
  Zn  Zn146  1  0.93944754  0.94097587  0.68711290  1
  Zn  Zn147  1  0.06666961  0.06018201  0.31384909  1
  Zn  Zn148  1  0.05800490  0.06074579  0.81281071  1
  Zn  Zn149  1  0.05951451  0.56744084  0.32047997  1
  Zn  Zn150  1  0.06257492  0.55963829  0.81415597  1
  Zn  Zn151  1  0.56137217  0.06264311  0.31008689  1
  Zn  Zn152  1  0.56143968  0.06405100  0.81156243  1
  Zn  Zn153  1  0.56055140  0.56147500  0.30617324  1
  Zn  Zn154  1  0.55750012  0.57061318  0.80922441  1
  Zn  Zn155  1  0.44050573  0.18888282  0.44063394  1
  Zn  Zn156  1  0.43717208  0.18719265  0.93462738  1
  Zn  Zn157  1  0.43849312  0.69451556  0.44189819  1
  Zn  Zn158  1  0.43874251  0.68713161  0.93339307  1
  Zn  Zn159  1  0.93685392  0.19275536  0.44223057  1
  Zn  Zn160  1  0.93500447  0.18492412  0.93448953  1
  Zn  Zn161  1  0.94200677  0.69448787  0.44278216  1
  Zn  Zn162  1  0.93592806  0.68556379  0.93842849  1
  Zn  Zn163  1  0.06079309  0.30825870  0.05742611  1
  Zn  Zn164  1  0.06221873  0.31473666  0.55980544  1
  Zn  Zn165  1  0.06786838  0.81512137  0.06232553  1
  Zn  Zn166  1  0.06363819  0.81307943  0.56483385  1
  Zn  Zn167  1  0.56106756  0.31469307  0.05919843  1
  Zn  Zn168  1  0.56961345  0.30600476  0.56461625  1
  Zn  Zn169  1  0.56691011  0.81675401  0.05938075  1
  Zn  Zn170  1  0.56248408  0.81172480  0.56163589  1
  O  O171  1  0.11341427  0.11720466  0.13128640  1
  O  O172  1  0.12530697  0.12165031  0.61233282  1
  O  O173  1  0.12252147  0.63081921  0.10941587  1
  O  O174  1  0.11405710  0.61392305  0.63723714  1
  O  O175  1  0.61546776  0.11728795  0.13087578  1
  O  O176  1  0.61752740  0.11138713  0.62168379  1
  O  O177  1  0.61478517  0.61987858  0.11487971  1
  O  O178  1  0.62031013  0.61224892  0.62417483  1
  O  O179  1  0.40019359  0.36074032  0.37695961  1
  O  O180  1  0.38290383  0.38141535  0.87964648  1
  O  O181  1  0.38347129  0.87464458  0.38216266  1
  O  O182  1  0.37264835  0.88906487  0.88448607  1
  O  O183  1  0.88205270  0.36314859  0.38296341  1
  O  O184  1  0.88104030  0.37464943  0.87684557  1
  O  O185  1  0.88434300  0.88092336  0.38007462  1
  O  O186  1  0.88842265  0.87461457  0.86813886  1
  O  O187  1  0.25295458  0.00298746  0.36223465  1
  O  O188  1  0.25813529  0.00296775  0.86757381  1
  O  O189  1  0.27378440  0.45468134  0.35772854  1
  O  O190  1  0.25700430  0.50054141  0.86875201  1
  O  O191  1  0.75913279  -0.00115926  0.36684624  1
  O  O192  1  0.74867496  -0.00219983  0.88857112  1
  O  O193  1  0.74278007  0.49603557  0.38271713  1
  O  O194  1  0.75462673  0.50204642  0.86985217  1
  O  O195  1  0.25103398  0.48517612  0.11730587  1
  O  O196  1  0.24127234  0.49626572  0.63304516  1
  O  O197  1  0.24620018  0.99784866  0.13391050  1
  O  O198  1  0.25074007  0.98839956  0.63194457  1
  O  O199  1  0.73319632  0.48747923  0.10645750  1
  O  O200  1  0.73264912  0.48767796  0.63584744  1
  O  O201  1  0.74381583  0.99501027  0.12677316  1
  O  O202  1  0.73695248  0.98664721  0.62022955  1
  O  O203  1  0.00132845  0.36578960  0.25202601  1
  O  O204  1  0.00652171  0.38081479  0.75958385  1
  O  O205  1  0.01227029  0.87924253  0.25946919  1
  O  O206  1  0.00731958  0.87090190  0.75699387  1
  O  O207  1  0.50230897  0.36358836  0.25178283  1
  O  O208  1  0.49496941  0.37367802  0.76405063  1
  O  O209  1  0.50745747  0.87367605  0.25375514  1
  O  O210  1  0.49962845  0.86195593  0.74606584  1
  O  O211  1  0.49406136  0.13439730  0.24239975  1
  O  O212  1  0.49113237  0.11817321  0.73617713  1
  O  O213  1  0.49572149  0.63025688  0.23519886  1
  O  O214  1  0.50034921  0.63749986  0.73543084  1
  O  O215  1  0.99527161  0.12589633  0.24350681  1
  O  O216  1  0.98438607  0.11590564  0.74960261  1
  O  O217  1  0.99893607  0.62791979  0.24959100  1
  O  O218  1  0.99442122  0.63015022  0.74856111  1
  O  O219  1  0.36949623  0.25568378  0.00436186  1
  O  O220  1  0.36092299  0.25365001  0.49617198  1
  O  O221  1  0.37267692  0.76316524  -0.00793940  1
  O  O222  1  0.36574978  0.76080674  0.51000721  1
  O  O223  1  0.86419491  0.25905965  -0.00394984  1
  O  O224  1  0.87063553  0.25902681  0.50750196  1
  O  O225  1  0.86304792  0.75248947  0.00057316  1
  O  O226  1  0.86889199  0.75882139  0.51125761  1
  O  O227  1  0.13120678  0.24483084  0.49086416  1
  O  O228  1  0.13438078  0.25225515  0.98869495  1
  O  O229  1  0.13961358  0.75532258  0.50485349  1
  O  O230  1  0.13293484  0.74440500  0.99247713  1
  O  O231  1  0.62722961  0.23490565  0.49252371  1
  O  O232  1  0.63485274  0.25169998  0.99628361  1
  O  O233  1  0.63309365  0.75206242  0.49057005  1
  O  O234  1  0.62818992  0.74402127  0.99428975  1
  O  O235  1  0.49605264  0.24551873  0.13040062  1
  O  O236  1  0.50530436  0.23367257  0.62718309  1
  O  O237  1  0.50550913  0.73813210  0.12163154  1
  O  O238  1  0.49515371  0.74850084  0.63470215  1
  O  O239  1  0.99720824  0.23870571  0.12685189  1
  O  O240  1  1.00591241  0.24865976  0.62710334  1
  O  O241  1  0.99417127  0.75883438  0.12804567  1
  O  O242  1  0.99545776  0.74541849  0.63293590  1
  O  O243  1  0.00977958  0.25451514  0.37033155  1
  O  O244  1  0.00828335  0.25907088  0.88210568  1
  O  O245  1  0.00404877  0.76581406  0.37599790  1
  O  O246  1  0.00567295  0.75711248  0.87330740  1
  O  O247  1  0.51133552  0.25057074  0.36803230  1
  O  O248  1  0.51171657  0.25854286  0.88084616  1
  O  O249  1  0.50928416  0.76324066  0.37311543  1
  O  O250  1  0.50451297  0.74424814  0.85975746  1
  O  O251  1  0.24426484  0.13370417  0.49842955  1
  O  O252  1  0.25697008  0.13688517  0.99891806  1
  O  O253  1  0.25142023  0.64338048  0.51052908  1
  O  O254  1  0.24477587  0.62883292  0.99427790  1
  O  O255  1  0.74020190  0.12367908  0.50011822  1
  O  O256  1  0.75491108  0.14029059  0.99836591  1
  O  O257  1  0.74473658  0.64043062  0.50607704  1
  O  O258  1  0.73842025  0.63655828  1.00295375  1
  O  O259  1  0.25510096  0.36464318  0.00399953  1
  O  O260  1  0.24550431  0.36934501  0.51056693  1
  O  O261  1  0.25949255  0.87283061  0.00683737  1
  O  O262  1  0.25443470  0.86777264  0.50973450  1
  O  O263  1  0.75406104  0.36515865  0.00466690  1
  O  O264  1  0.75419977  0.36706368  0.51247837  1
  O  O265  1  0.74012548  0.86457265  0.01432317  1
  O  O266  1  0.75768539  0.86800622  0.50706654  1
  O  O267  1  0.12013130  0.48445528  0.23714617  1
  O  O268  1  0.13071455  0.48835366  0.74759410  1
  O  O269  1  0.13441747  0.99379712  0.24105393  1
  O  O270  1  0.13478853  0.99456797  0.75079175  1
  O  O271  1  0.62986588  0.49777746  0.23840837  1
  O  O272  1  0.63453506  0.50575987  0.74989463  1
  O  O273  1  0.63018095  0.99559456  0.24061786  1
  O  O274  1  0.62257361  0.99766004  0.73906018  1
  O  O275  1  0.36753234  0.01109138  0.25029552  1
  O  O276  1  0.36969474  0.00244583  0.75743040  1
  O  O277  1  0.38586463  0.52075225  0.25150478  1
  O  O278  1  0.36388840  0.49498031  0.75905806  1
  O  O279  1  0.87479235  0.00815470  0.25325647  1
  O  O280  1  0.87252574  0.00964651  0.74471781  1
  O  O281  1  0.86185418  0.50998316  0.22448962  1
  O  O282  1  0.86567100  0.50673744  0.75456355  1
  O  O283  1  0.11338037  0.36918298  0.36325307  1
  O  O284  1  0.11661319  0.36689097  0.86779118  1
  O  O285  1  0.11910617  0.88545383  0.36505135  1
  O  O286  1  0.12249276  0.86801205  0.86976807  1
  O  O287  1  0.61456011  0.36242847  0.37308192  1
  O  O288  1  0.61195675  0.36674588  0.87900998  1
  O  O289  1  0.61997876  0.87141876  0.36720220  1
  O  O290  1  0.61468750  0.86121117  0.88329160  1
  O  O291  1  0.38231584  0.13111052  0.13591345  1
  O  O292  1  0.38869334  0.11893328  0.63018926  1
  O  O293  1  0.38991832  0.62135528  0.12470782  1
  O  O294  1  0.37967377  0.63776268  0.62528962  1
  O  O295  1  0.88655740  0.12274208  0.13199718  1
  O  O296  1  0.87731807  0.12924256  0.63503884  1
  O  O297  1  0.89040706  0.64490199  0.10702138  1
  O  O298  1  0.88526205  0.63148791  0.63993149  1
  O  O299  1  0.25530433  0.25346761  0.11597742  1
  O  O300  1  0.24175328  0.26071185  0.61498905  1
  O  O301  1  0.24964208  0.76290598  0.11430138  1
  O  O302  1  0.25823004  0.76043057  0.63112052  1
  O  O303  1  0.74819013  0.25496120  0.11306259  1
  O  O304  1  0.73969372  0.26212066  0.62974457  1
  O  O305  1  0.75839450  0.75868443  0.11724122  1
  O  O306  1  0.75095658  0.76126840  0.61975231  1
  O  O307  1  0.23759149  0.25583413  0.38154546  1
  O  O308  1  0.24171721  0.24962894  0.88303792  1
  O  O309  1  0.25017526  0.75193304  0.38780287  1
  O  O310  1  0.24749822  0.74493723  0.87876028  1
  O  O311  1  0.73636707  0.24522988  0.37315703  1
  O  O312  1  0.73345948  0.25279783  0.88476016  1
  O  O313  1  0.73885788  0.75993974  0.38411894  1
  O  O314  1  0.73711835  0.74650810  0.88560995  1
  O  O315  1  -0.00430925  0.11111739  0.00711239  1
  O  O316  1  0.00873584  0.11780216  0.49859236  1
  O  O317  1  0.00973176  0.61327817  -0.00642341  1
  O  O318  1  -0.00109231  0.62438508  0.51671903  1
  O  O319  1  0.49089688  0.11852089  0.01401052  1
  O  O320  1  0.50594460  0.12493053  0.51355647  1
  O  O321  1  0.50384758  0.62076089  0.00741004  1
  O  O322  1  0.50322572  0.63822722  0.52001447  1
  O  O323  1  0.50336877  0.36725080  0.49048495  1
  O  O324  1  0.49281673  0.38164726  0.99270532  1
  O  O325  1  0.49006924  0.87036157  0.49211614  1
  O  O326  1  0.48966856  0.88806773  1.01080740  1
  O  O327  1  0.99205689  0.37522724  0.48831283  1
  O  O328  1  0.99219086  0.37706807  0.99085763  1
  O  O329  1  0.99586247  0.88202774  0.49514629  1
  O  O330  1  1.00695011  0.88746078  0.99324819  1
  O  O331  1  0.50351039  0.48246164  0.37077157  1
  O  O332  1  0.49414081  0.49252978  0.87518792  1
  O  O333  1  0.49837581  0.98652565  0.36864381  1
  O  O334  1  0.49464787  1.00684331  0.88886800  1
  O  O335  1  0.99251287  0.48536926  0.37344343  1
  O  O336  1  0.99371675  0.48806523  0.88061120  1
  O  O337  1  0.99730870  0.99348959  0.38515903  1
  O  O338  1  1.00713974  0.99230783  0.89117751  1
  O  O339  1  0.00912415  0.00194286  0.11447107  1
  O  O340  1  0.00556152  -0.00122256  0.61050212  1
  O  O341  1  -0.00334687  0.49672976  0.10653089  1
  O  O342  1  0.00571615  0.50921038  0.63000616  1
  O  O343  1  0.50569539  0.00974796  0.12160555  1
  O  O344  1  0.51360173  0.00160504  0.62444582  1
  O  O345  1  0.50961745  0.50591879  0.11855246  1
  O  O346  1  0.51388630  0.50610891  0.63662301  1
  O  O347  1  0.23345863  0.36133060  0.23203378  1
  O  O348  1  0.24162663  0.38413824  0.74551943  1
  O  O349  1  0.24989192  0.88187044  0.24410195  1
  O  O350  1  0.24802032  0.88399074  0.74564854  1
  O  O351  1  0.74928465  0.37085069  0.23305037  1
  O  O352  1  0.75529165  0.38513529  0.74612275  1
  O  O353  1  0.74550300  0.88048375  0.24073419  1
  O  O354  1  0.75381109  0.87289431  0.73510729  1
  O  O355  1  0.25764816  0.12079151  0.25082322  1
  O  O356  1  0.25681165  0.11268521  0.74535834  1
  O  O357  1  0.26676219  0.62401194  0.23755213  1
  O  O358  1  0.24374735  0.61137064  0.75668491  1
  O  O359  1  0.76059191  0.11766139  0.24938279  1
  O  O360  1  0.76129191  0.11834679  0.75515840  1
  O  O361  1  0.76088226  0.61963293  0.22517065  1
  O  O362  1  0.75793225  0.61751260  0.75016024  1
  O  O363  1  0.37592597  0.12578019  0.36488160  1
  O  O364  1  0.37435469  0.11450391  0.86689512  1
  O  O365  1  0.38373376  0.62677985  0.36267286  1
  O  O366  1  0.36920465  0.61025875  0.88059934  1
  O  O367  1  0.87678978  0.11922562  0.36756118  1
  O  O368  1  0.86983686  0.12510725  0.86450085  1
  O  O369  1  0.87398308  0.63026079  0.38502821  1
  O  O370  1  0.87423316  0.61847094  0.86428223  1
  O  O371  1  0.13076376  0.36566166  0.12789672  1
  O  O372  1  0.13179714  0.38205213  0.63420461  1
  O  O373  1  0.13881329  0.88466822  0.13039876  1
  O  O374  1  0.13431985  0.87640810  0.63519772  1
  O  O375  1  0.62947409  0.38247297  0.12444753  1
  O  O376  1  0.62704743  0.38478533  0.62584476  1
  O  O377  1  0.63152667  0.88238979  0.13363931  1
  O  O378  1  0.63333089  0.88445112  0.62120284  1
  O  O379  1  0.11671098  0.25225887  0.25733333  1
  O  O380  1  0.13275975  0.26280231  0.75849153  1
  O  O381  1  0.12749617  0.76579281  0.24479674  1
  O  O382  1  0.11897339  0.75478265  0.75730398  1
  O  O383  1  0.61647703  0.24899533  0.25689140  1
  O  O384  1  0.62662418  0.24731978  0.76260063  1
  O  O385  1  0.62424597  0.75867928  0.25570189  1
  O  O386  1  0.61384809  0.74671123  0.75839156  1
  O  O387  1  0.38221310  0.24464889  0.24499370  1
  O  O388  1  0.36682558  0.23497143  0.75704807  1
  O  O389  1  0.37913084  0.73526531  0.24710631  1
  O  O390  1  0.38729865  0.75441793  0.74271464  1
  O  O391  1  0.87941624  0.23666003  0.24674553  1
  O  O392  1  0.87095709  0.23295088  0.74840223  1
  O  O393  1  0.88078240  0.74816923  0.23955025  1
  O  O394  1  0.88406958  0.74112827  0.74520564  1
  O  O395  1  0.37571675  0.49376186  0.49853252  1
  O  O396  1  0.37998360  0.49295464  0.99077555  1
  O  O397  1  0.36557178  0.98417242  0.49721425  1
  O  O398  1  0.38067884  0.99476232  0.99394550  1
  O  O399  1  0.87691227  0.48192421  0.50569742  1
  O  O400  1  0.88107062  0.48356688  0.98891274  1
  O  O401  1  0.88280970  0.99648106  0.49687963  1
  O  O402  1  0.88771830  0.99394096  1.00591673  1
  O  O403  1  0.12742986  -0.00091034  0.01198894  1
  O  O404  1  0.12050871  0.00956458  0.49862381  1
  O  O405  1  0.11626576  0.50739346  -0.00977269  1
  O  O406  1  0.11549610  0.48940376  0.51901862  1
  O  O407  1  0.61323521  -0.00292946  0.01506587  1
  O  O408  1  0.62641769  0.00694039  0.50329851  1
  O  O409  1  0.61730108  0.50860483  0.00158988  1
  O  O410  1  0.62284211  0.50055552  0.51513691  1
  O  O411  1  0.36824667  0.37088916  0.12032269  1
  O  O412  1  0.36035250  0.37673534  0.62853317  1
  O  O413  1  0.36486287  0.88417960  0.11705847  1
  O  O414  1  0.36878452  0.86848080  0.61981210  1
  O  O415  1  0.86578046  0.36865934  0.11303643  1
  O  O416  1  0.86366165  0.37105566  0.62127284  1
  O  O417  1  0.86616308  0.86770343  0.12892742  1
  O  O418  1  0.86449974  0.87307069  0.62124749  1
  O  O419  1  0.12756143  0.13372239  0.38400404  1
  O  O420  1  0.12758497  0.13765356  0.86684764  1
  O  O421  1  0.15326809  0.56182130  0.37643507  1
  O  O422  1  0.13174345  0.63050310  0.88241648  1
  O  O423  1  0.62464493  0.12624439  0.38258902  1
  O  O424  1  0.62363908  0.13824464  0.87477513  1
  O  O425  1  0.61503475  0.63843756  0.37441175  1
  O  O426  1  0.62188947  0.63065969  0.88679375  1
