# generated using pymatgen
data_V85Zn86O256
_symmetry_space_group_name_H-M   'P 1'
_cell_length_a   16.96141158
_cell_length_b   16.96010868
_cell_length_c   16.94474648
_cell_angle_alpha   90.01156840
_cell_angle_beta   89.94066824
_cell_angle_gamma   89.95439916
_symmetry_Int_Tables_number   1
_chemical_formula_structural   V85Zn86O256
_chemical_formula_sum   'V85 Zn86 O256'
_cell_volume   4874.44663122
_cell_formula_units_Z   1
loop_
 _symmetry_equiv_pos_site_id
 _symmetry_equiv_pos_as_xyz
  1  'x, y, z'
loop_
 _atom_site_type_symbol
 _atom_site_label
 _atom_site_symmetry_multiplicity
 _atom_site_fract_x
 _atom_site_fract_y
 _atom_site_fract_z
 _atom_site_occupancy
  V  V0  1  0.74980061  0.12631001  0.37827692  1
  V  V1  1  0.49180000  0.12610984  0.62887120  1
  V  V2  1  0.75175006  0.24936161  0.50363991  1
  V  V3  1  0.12581688  0.00367104  0.62710735  1
  V  V4  1  0.25010898  0.49486259  0.74211165  1
  V  V5  1  0.62084905  0.75262013  0.37792399  1
  V  V6  1  -0.00046379  0.37269614  0.37454226  1
  V  V7  1  0.37648700  0.37362997  0.50878183  1
  V  V8  1  0.50031146  0.37541393  0.87544615  1
  V  V9  1  0.38068075  0.48952888  0.37092485  1
  V  V10  1  0.63029595  0.74876308  0.87240106  1
  V  V11  1  0.62784163  0.87821154  0.74880979  1
  V  V12  1  0.50227717  0.75034443  0.75068549  1
  V  V13  1  0.12462607  0.62573024  0.50772021  1
  V  V14  1  0.89288861  0.62440035  0.75256660  1
  V  V15  1  0.25698967  0.75763661  0.50127865  1
  V  V16  1  0.49877019  0.12638291  0.12240174  1
  V  V17  1  0.24543037  0.37642073  0.12406384  1
  V  V18  1  -0.00618765  0.87115576  0.87066862  1
  V  V19  1  0.88004216  0.24991597  0.12961511  1
  V  V20  1  0.26731789  0.88475992  0.12421369  1
  V  V21  1  0.62592105  0.00366607  0.13086161  1
  V  V22  1  0.27448431  0.75411291  0.00466199  1
  V  V23  1  0.89268898  0.74036791  0.62294275  1
  V  V24  1  0.26018815  0.88410661  0.62564150  1
  V  V25  1  0.38279830  0.63749208  0.25028163  1
  V  V26  1  0.74874228  0.62477285  0.36542061  1
  V  V27  1  -0.01380946  0.25280835  0.75563471  1
  V  V28  1  0.12228240  0.24863800  0.37721150  1
  V  V29  1  0.00089208  0.00034177  0.50260527  1
  V  V30  1  0.62494224  0.49871762  0.12464250  1
  V  V31  1  0.62353146  0.37318834  0.25373765  1
  V  V32  1  0.62836541  0.24671342  0.87457262  1
  V  V33  1  0.87518363  -0.00143915  0.37591917  1
  V  V34  1  0.24803935  0.25245603  0.50763980  1
  V  V35  1  0.05908421  0.19391838  0.19430544  1
  V  V36  1  -0.01318249  0.13086958  0.63140872  1
  V  V37  1  0.00132493  0.50326593  0.50791367  1
  V  V38  1  0.12668118  0.75473587  0.37150556  1
  V  V39  1  0.75513377  0.37056729  0.62687689  1
  V  V40  1  0.62526567  0.37457647  0.74984791  1
  V  V41  1  0.12992020  0.24369789  0.87324349  1
  V  V42  1  0.61972087  0.25392932  0.37962353  1
  V  V43  1  0.11817941  0.38017688  0.25019226  1
  V  V44  1  0.50056704  0.62334158  0.62343099  1
  V  V45  1  0.37634885  0.75350319  0.62427989  1
  V  V46  1  0.12112535  0.86794178  0.74927720  1
  V  V47  1  0.87135130  0.73702321  0.13611930  1
  V  V48  1  0.12491092  0.37325695  0.74992490  1
  V  V49  1  0.62190448  0.87789128  0.25553921  1
  V  V50  1  0.87642587  0.12971802  0.24777725  1
  V  V51  1  0.62621700  0.49811009  0.62550355  1
  V  V52  1  0.87852300  0.36884662  0.50474946  1
  V  V53  1  0.62679129  0.12438293  0.00030899  1
  V  V54  1  0.75724247  0.50261893  0.75581134  1
  V  V55  1  0.75515302  0.37327429  0.12637124  1
  V  V56  1  0.36981144  0.49912117  0.87569633  1
  V  V57  1  0.50056346  0.49850320  0.00280351  1
  V  V58  1  0.37262311  0.25386269  0.12910291  1
  V  V59  1  0.75633660  0.74564877  0.50337617  1
  V  V60  1  0.37271041  0.62467355  0.74855510  1
  V  V61  1  0.25326528  0.62528092  0.37652104  1
  V  V62  1  0.75472362  0.24670656  -0.00261977  1
  V  V63  1  0.62138707  0.11942361  0.50653287  1
  V  V64  1  0.87657602  0.50176190  0.37306756  1
  V  V65  1  0.37319820  0.11342420  0.25059049  1
  V  V66  1  0.75292763  0.50086739  0.25015192  1
  V  V67  1  0.75360102  0.74751348  -0.00088715  1
  V  V68  1  0.88025490  0.37963336  -0.01174771  1
  V  V69  1  0.24612733  0.01007194  0.77151174  1
  V  V70  1  0.12007373  0.63650544  0.00495756  1
  V  V71  1  -0.00049617  0.00454284  0.01171466  1
  V  V72  1  0.36997329  -0.00252113  0.37907498  1
  V  V73  1  0.62530999  0.62307626  0.50105946  1
  V  V74  1  0.87033492  0.01347596  0.86904305  1
  V  V75  1  0.49587343  0.25551679  0.25623987  1
  V  V76  1  0.11415439  0.50832818  0.12515706  1
  V  V77  1  -0.00333299  0.50474971  -0.01498313  1
  V  V78  1  0.86571083  0.87747476  0.00024873  1
  V  V79  1  0.36960468  0.37710034  0.00257864  1
  V  V80  1  0.75451371  0.01198439  0.74871451  1
  V  V81  1  0.75173729  0.87414628  0.62615848  1
  V  V82  1  0.49507890  0.87514141  0.37861671  1
  V  V83  1  0.49658182  -0.00495296  0.51241742  1
  V  V84  1  0.12590561  0.88520528  0.23643260  1
  Zn  Zn85  1  0.49474997  0.24940042  0.75156364  1
  Zn  Zn86  1  0.00288223  0.87770857  0.36919851  1
  Zn  Zn87  1  0.50353542  0.49222519  0.49613812  1
  Zn  Zn88  1  0.74988586  0.87618917  0.13076421  1
  Zn  Zn89  1  0.24603613  0.12279438  0.36839771  1
  Zn  Zn90  1  0.12194444  0.75029053  0.87487900  1
  Zn  Zn91  1  0.75117526  0.00199993  0.25291405  1
  Zn  Zn92  1  0.62885351  0.62267411  -0.00269209  1
  Zn  Zn93  1  0.12751782  0.12496246  0.49923546  1
  Zn  Zn94  1  0.75834684  0.62162505  0.87343571  1
  Zn  Zn95  1  0.87929691  0.86935761  0.49835098  1
  Zn  Zn96  1  0.00634114  0.73973539  0.23668503  1
  Zn  Zn97  1  0.24714429  0.62872433  0.87638913  1
  Zn  Zn98  1  0.24495997  0.24586352  0.00189983  1
  Zn  Zn99  1  0.11602738  0.12370879  0.00024480  1
  Zn  Zn100  1  0.48783730  0.63921027  0.12289426  1
  Zn  Zn101  1  0.12641875  0.49612611  0.62524921  1
  Zn  Zn102  1  0.36792582  0.25234813  0.63509706  1
  Zn  Zn103  1  0.24909957  0.50454702  0.24859691  1
  Zn  Zn104  1  0.36628251  0.13077152  0.76862011  1
  Zn  Zn105  1  0.42167634  0.00530320  -0.10677015  1
  Zn  Zn106  1  0.44908274  0.83886895  0.92118095  1
  Zn  Zn107  1  0.23138350  0.09479059  0.13711601  1
  Zn  Zn108  1  0.18168238  0.18696974  0.68725763  1
  Zn  Zn109  1  0.19596200  0.69286056  0.18601178  1
  Zn  Zn110  1  0.19059401  0.68759384  0.68607473  1
  Zn  Zn111  1  0.69002694  0.18845808  0.19087249  1
  Zn  Zn112  1  0.68312258  0.18854033  0.68386980  1
  Zn  Zn113  1  0.66219859  0.69899003  0.17787971  1
  Zn  Zn114  1  0.69254719  0.68536234  0.68761497  1
  Zn  Zn115  1  0.30409591  0.31268169  0.31157995  1
  Zn  Zn116  1  0.30821230  0.31301104  0.81499279  1
  Zn  Zn117  1  0.31129802  0.81914148  0.30759326  1
  Zn  Zn118  1  0.30454512  0.81547883  0.81342003  1
  Zn  Zn119  1  0.81270561  0.31159107  0.31509989  1
  Zn  Zn120  1  0.81080158  0.31098377  0.81329239  1
  Zn  Zn121  1  0.80803967  0.81575888  0.31502999  1
  Zn  Zn122  1  0.81572091  0.80965568  0.80950015  1
  Zn  Zn123  1  0.19140406  0.43737445  0.43802150  1
  Zn  Zn124  1  0.18094029  0.43655568  0.93248794  1
  Zn  Zn125  1  0.18900599  0.93709703  0.43780528  1
  Zn  Zn126  1  0.17852257  0.92780456  0.94620794  1
  Zn  Zn127  1  0.68893145  0.43553703  0.43921305  1
  Zn  Zn128  1  0.69076498  0.43345887  0.93703573  1
  Zn  Zn129  1  0.68880773  0.93809966  0.44369137  1
  Zn  Zn130  1  0.59495723  0.93885165  0.93686483  1
  Zn  Zn131  1  0.29753258  0.06795737  -0.03822004  1
  Zn  Zn132  1  0.31223765  0.06694192  0.55925236  1
  Zn  Zn133  1  0.30675635  0.56539076  0.06645930  1
  Zn  Zn134  1  0.31388546  0.56166019  0.56044167  1
  Zn  Zn135  1  0.81236783  0.06228163  0.06321908  1
  Zn  Zn136  1  0.81213513  0.06037476  0.56346317  1
  Zn  Zn137  1  0.81309131  0.56249099  0.06051516  1
  Zn  Zn138  1  0.81505424  0.56066726  0.56377899  1
  Zn  Zn139  1  0.43805914  0.44034672  0.19003203  1
  Zn  Zn140  1  0.43848140  0.43704641  0.68703220  1
  Zn  Zn141  1  0.43798494  0.94531008  0.07216299  1
  Zn  Zn142  1  0.42497961  0.92628387  0.73421816  1
  Zn  Zn143  1  0.93736828  0.44040261  0.18598975  1
  Zn  Zn144  1  0.93902557  0.43617147  0.68982350  1
  Zn  Zn145  1  0.93572495  0.92930009  0.19039880  1
  Zn  Zn146  1  0.93543657  0.93422426  0.68603775  1
  Zn  Zn147  1  0.06520805  0.05707116  0.31520909  1
  Zn  Zn148  1  0.05638516  0.06158719  0.81336104  1
  Zn  Zn149  1  0.06256329  0.56624275  0.31435291  1
  Zn  Zn150  1  0.06893343  0.56465726  0.81494942  1
  Zn  Zn151  1  0.55642907  0.06361758  0.31689302  1
  Zn  Zn152  1  0.57523884  0.06806416  0.80171805  1
  Zn  Zn153  1  0.56159595  0.56171751  0.31293684  1
  Zn  Zn154  1  0.56445175  0.56268917  0.81238297  1
  Zn  Zn155  1  0.43523489  0.18709462  0.43884910  1
  Zn  Zn156  1  0.43787494  0.19267392  0.94076584  1
  Zn  Zn157  1  0.43779099  0.68619615  0.43751236  1
  Zn  Zn158  1  0.44361320  0.67377849  0.93341118  1
  Zn  Zn159  1  0.94064288  0.18547971  0.43939237  1
  Zn  Zn160  1  0.93976046  0.18827146  0.93626057  1
  Zn  Zn161  1  0.95323817  0.67532591  0.40646811  1
  Zn  Zn162  1  0.93793955  0.68822441  0.93860400  1
  Zn  Zn163  1  0.06368558  0.32132409  0.05408041  1
  Zn  Zn164  1  0.06327741  0.31274971  0.56797352  1
  Zn  Zn165  1  0.04951169  0.81645926  0.06389094  1
  Zn  Zn166  1  0.06857259  0.81587842  0.55881568  1
  Zn  Zn167  1  0.56305479  0.31205661  0.06454880  1
  Zn  Zn168  1  0.55782570  0.31041744  0.56379999  1
  Zn  Zn169  1  0.56950791  0.80770237  0.06878964  1
  Zn  Zn170  1  0.56502941  0.81484902  0.56398639  1
  O  O171  1  0.11828105  0.13517361  0.13948045  1
  O  O172  1  0.11646407  0.11318387  0.62409346  1
  O  O173  1  0.13245684  0.61905378  0.11885767  1
  O  O174  1  0.13203678  0.62232706  0.61125069  1
  O  O175  1  0.61956493  0.12511005  0.12281097  1
  O  O176  1  0.61191736  0.13014114  0.61337053  1
  O  O177  1  0.64465088  0.59979919  0.11860562  1
  O  O178  1  0.62219774  0.61838182  0.62009590  1
  O  O179  1  0.36897059  0.38715839  0.37800178  1
  O  O180  1  0.37930778  0.38164092  0.88290796  1
  O  O181  1  0.38315198  0.88433600  0.36972892  1
  O  O182  1  0.38668800  0.88767022  0.84331189  1
  O  O183  1  0.87708730  0.38322609  0.38336851  1
  O  O184  1  0.87070801  0.37282127  0.88955500  1
  O  O185  1  0.87891898  0.88441444  0.37775083  1
  O  O186  1  0.87743297  0.88082083  0.87959358  1
  O  O187  1  0.26475811  0.00251220  0.38040920  1
  O  O188  1  0.23779507  0.00128284  0.87376599  1
  O  O189  1  0.26082681  0.50977963  0.37502252  1
  O  O190  1  0.25612132  0.50239489  0.86804989  1
  O  O191  1  0.75948123  0.00852935  0.37922654  1
  O  O192  1  0.76378811  -0.00014968  0.85724404  1
  O  O193  1  0.75432672  0.50479025  0.37053275  1
  O  O194  1  0.74713251  0.49832360  0.85978276  1
  O  O195  1  0.23797163  0.49215320  0.12658838  1
  O  O196  1  0.25043942  0.50439711  0.63820314  1
  O  O197  1  0.24944598  0.98261508  0.11971839  1
  O  O198  1  0.24109769  0.99733655  0.62422913  1
  O  O199  1  0.75040855  0.48627216  0.12897892  1
  O  O200  1  0.74545694  0.48973191  0.63202159  1
  O  O201  1  0.73826617  1.00357612  0.13105705  1
  O  O202  1  0.76472539  0.98635380  0.63678431  1
  O  O203  1  0.01047705  0.38160883  0.25637054  1
  O  O204  1  0.00451155  0.35928572  0.74506841  1
  O  O205  1  0.01310090  0.86595596  0.25088937  1
  O  O206  1  0.00892539  0.88171863  0.75693460  1
  O  O207  1  0.50636855  0.36327375  0.24613322  1
  O  O208  1  0.50782099  0.37526636  0.75717389  1
  O  O209  1  0.51717181  0.87791882  0.27201719  1
  O  O210  1  0.52101167  0.86482832  0.73414122  1
  O  O211  1  0.49511814  0.13734035  0.24454235  1
  O  O212  1  0.49875060  0.12663800  0.73966208  1
  O  O213  1  0.48533258  0.62026913  0.25165139  1
  O  O214  1  0.49397037  0.62988874  0.74386462  1
  O  O215  1  0.99778188  0.13092703  0.25050727  1
  O  O216  1  1.00152687  0.13534648  0.73916545  1
  O  O217  1  0.98955800  0.64709629  0.29758161  1
  O  O218  1  0.99181333  0.61936809  0.74801201  1
  O  O219  1  0.37116660  0.26061618  0.01059676  1
  O  O220  1  0.36689306  0.26144903  0.49764966  1
  O  O221  1  0.37618653  0.75365965  -0.00955944  1
  O  O222  1  0.36439339  0.74602123  0.50665704  1
  O  O223  1  0.87188081  0.25579467  0.00711651  1
  O  O224  1  0.86987313  0.26149111  0.49400731  1
  O  O225  1  0.86681145  0.75502121  0.00597972  1
  O  O226  1  0.87051848  0.74570327  0.50865493  1
  O  O227  1  0.13122358  0.25177641  0.49395695  1
  O  O228  1  0.11833485  0.25081408  0.98422884  1
  O  O229  1  0.14108483  0.74459893  0.49910966  1
  O  O230  1  0.11595963  0.74057227  1.00411997  1
  O  O231  1  0.62878805  0.24464907  0.49488376  1
  O  O232  1  0.63456254  0.24624686  0.99665687  1
  O  O233  1  0.63523971  0.74437547  0.49481251  1
  O  O234  1  0.64059266  0.74913322  0.98974041  1
  O  O235  1  0.49428086  0.24699957  0.13438098  1
  O  O236  1  0.49419558  0.24111534  0.62868788  1
  O  O237  1  0.55426612  0.72677455  0.13984493  1
  O  O238  1  0.49499865  0.74386686  0.62815770  1
  O  O239  1  1.00223589  0.25047783  0.12846080  1
  O  O240  1  1.00448792  0.23692148  0.63511395  1
  O  O241  1  0.97728570  0.74907859  0.12391088  1
  O  O242  1  0.99052959  0.75114833  0.61679951  1
  O  O243  1  0.01290224  0.25719639  0.38275970  1
  O  O244  1  0.00509002  0.24712309  0.86037931  1
  O  O245  1  0.02484496  0.76634333  0.40050617  1
  O  O246  1  -0.00167089  0.76705661  0.87954680  1
  O  O247  1  0.50813649  0.24559826  0.36839721  1
  O  O248  1  0.50948757  0.26018922  0.87686469  1
  O  O249  1  0.51011789  0.76021595  0.38740200  1
  O  O250  1  0.50913191  0.74793166  0.86882967  1
  O  O251  1  0.24780094  0.13761346  0.49240331  1
  O  O252  1  0.23081689  0.13054620  1.02513944  1
  O  O253  1  0.24850333  0.63159140  0.49192974  1
  O  O254  1  0.24593561  0.64161079  1.00041120  1
  O  O255  1  0.74137818  0.12901338  0.49993565  1
  O  O256  1  0.74473432  0.14091443  1.00840534  1
  O  O257  1  0.74286680  0.62864127  0.49593680  1
  O  O258  1  0.75137074  0.63131420  0.99247168  1
  O  O259  1  0.25089880  0.37691923  0.00749282  1
  O  O260  1  0.26270504  0.36629053  0.49437838  1
  O  O261  1  0.24683197  0.86133471  0.01138032  1
  O  O262  1  0.24709440  0.86880240  0.51282152  1
  O  O263  1  0.75758395  0.36774564  0.00872523  1
  O  O264  1  0.75850989  0.37076379  0.50797100  1
  O  O265  1  0.76093609  0.86697238  0.00009891  1
  O  O266  1  0.75526097  0.86527293  0.50715614  1
  O  O267  1  0.12473036  0.49762338  0.24480575  1
  O  O268  1  0.13249853  0.49288535  0.75067781  1
  O  O269  1  0.12316535  0.98452378  0.24804339  1
  O  O270  1  0.13119162  0.99563748  0.74554176  1
  O  O271  1  0.63025085  0.49237804  0.24534887  1
  O  O272  1  0.63307446  0.49437679  0.74401192  1
  O  O273  1  0.62487274  0.99854861  0.24762845  1
  O  O274  1  0.64615877  0.98987254  0.74794334  1
  O  O275  1  0.38566483  0.01494213  0.25965794  1
  O  O276  1  0.35050587  0.01230294  0.74966967  1
  O  O277  1  0.37122543  0.50315941  0.26212239  1
  O  O278  1  0.36884809  0.50294979  0.75519047  1
  O  O279  1  0.87837019  0.00725631  0.26180042  1
  O  O280  1  0.86900053  -0.00300393  0.75926678  1
  O  O281  1  0.86674065  0.49413077  0.26117020  1
  O  O282  1  0.87028345  0.51385335  0.74083484  1
  O  O283  1  0.12154783  0.37090368  0.36736268  1
  O  O284  1  0.12308083  0.36263454  0.86257342  1
  O  O285  1  0.13317723  0.86992970  0.36108050  1
  O  O286  1  0.11343211  0.87354803  0.86698841  1
  O  O287  1  0.63020209  0.36149051  0.37229391  1
  O  O288  1  0.62121575  0.36657777  0.87095000  1
  O  O289  1  0.62142779  0.86957829  0.37800470  1
  O  O290  1  0.63379233  0.85816139  0.86194098  1
  O  O291  1  0.38578198  0.13287817  0.13800544  1
  O  O292  1  0.38407018  0.13039785  0.62386720  1
  O  O293  1  0.37356824  0.62070426  0.14406581  1
  O  O294  1  0.38068071  0.62948433  0.62995469  1
  O  O295  1  0.87010002  0.13046005  0.14041010  1
  O  O296  1  0.88869821  0.12432921  0.62205613  1
  O  O297  1  0.86504219  0.63818685  0.12899770  1
  O  O298  1  0.87549214  0.63456791  0.62968535  1
  O  O299  1  0.25652937  0.26953369  0.12611918  1
  O  O300  1  0.24831653  0.24557196  0.61204976  1
  O  O301  1  0.25621176  0.75630707  0.10888937  1
  O  O302  1  0.25712139  0.76024469  0.62008812  1
  O  O303  1  0.75545695  0.26011783  0.12141011  1
  O  O304  1  0.74483740  0.26282453  0.62001957  1
  O  O305  1  0.75340118  0.75273476  0.11612125  1
  O  O306  1  0.75664669  0.75134236  0.61439113  1
  O  O307  1  0.23516403  0.24978394  0.37944285  1
  O  O308  1  0.23411131  0.25009527  0.88017988  1
  O  O309  1  0.24624886  0.74775296  0.38317928  1
  O  O310  1  0.24615332  0.75389253  0.89234313  1
  O  O311  1  0.74278844  0.24454441  0.38378227  1
  O  O312  1  0.74168420  0.25516051  0.88601990  1
  O  O313  1  0.74889573  0.74166840  0.38749009  1
  O  O314  1  0.74775847  0.74594693  0.88005664  1
  O  O315  1  -0.00375535  0.11016075  0.00014355  1
  O  O316  1  0.00291097  0.11717761  0.51183073  1
  O  O317  1  0.00523631  0.61444983  -0.00150842  1
  O  O318  1  0.01296343  0.61496204  0.49087653  1
  O  O319  1  0.51256630  0.13888015  0.01546364  1
  O  O320  1  0.50485689  0.11958776  0.50577148  1
  O  O321  1  0.50567947  0.61113394  0.00570027  1
  O  O322  1  0.50834379  0.62133120  0.50590740  1
  O  O323  1  0.48271675  0.37348194  0.49918038  1
  O  O324  1  0.49383410  0.38408174  0.99839501  1
  O  O325  1  0.50630768  0.88493732  0.49311223  1
  O  O326  1  0.51438107  0.88024957  1.00401627  1
  O  O327  1  0.99396238  0.37874593  0.49665817  1
  O  O328  1  0.99242638  0.39300300  1.00369658  1
  O  O329  1  0.99855060  0.89172313  0.50567312  1
  O  O330  1  0.98521806  0.88524301  0.99260728  1
  O  O331  1  0.48471527  0.50122884  0.37743825  1
  O  O332  1  0.49424568  0.49584063  0.88323394  1
  O  O333  1  0.49094526  0.99454278  0.38536971  1
  O  O334  1  0.52529107  0.98739311  0.86086368  1
  O  O335  1  0.99182396  0.49173401  0.38500461  1
  O  O336  1  1.00286140  0.50035918  0.88678570  1
  O  O337  1  0.99461350  0.99876305  0.38560941  1
  O  O338  1  0.98547097  0.99262673  0.87837654  1
  O  O339  1  -0.01350990  -0.00430572  0.10945432  1
  O  O340  1  0.00404717  0.00907173  0.62316859  1
  O  O341  1  0.01110112  0.50147813  0.12148488  1
  O  O342  1  0.00228147  0.49584791  0.61097862  1
  O  O343  1  0.51472366  0.01445820  0.12603246  1
  O  O344  1  0.49354355  0.00772884  0.61446313  1
  O  O345  1  0.50966053  0.50008431  0.11917425  1
  O  O346  1  0.50829578  0.50526341  0.62282243  1
  O  O347  1  0.23450719  0.37990768  0.24433007  1
  O  O348  1  0.24101749  0.38478657  0.75451729  1
  O  O349  1  0.23896485  0.86657414  0.23201952  1
  O  O350  1  0.23923344  0.89108773  0.74472707  1
  O  O351  1  0.74440806  0.37792792  0.24400639  1
  O  O352  1  0.74747375  0.38025710  0.74289737  1
  O  O353  1  0.73679445  0.88354881  0.25512926  1
  O  O354  1  0.74630617  0.87597613  0.74225112  1
  O  O355  1  0.26929456  0.12495314  0.24417706  1
  O  O356  1  0.24115025  0.11205364  0.75251540  1
  O  O357  1  0.25891463  0.62591238  0.26231237  1
  O  O358  1  0.25728289  0.61938162  0.75338635  1
  O  O359  1  0.75920608  0.12538322  0.26087616  1
  O  O360  1  0.74669896  0.11058020  0.73890277  1
  O  O361  1  0.73968123  0.62171487  0.26300640  1
  O  O362  1  0.75964882  0.61498341  0.74917256  1
  O  O363  1  0.37397115  0.12142991  0.36387864  1
  O  O364  1  0.37618295  0.11669289  0.88508039  1
  O  O365  1  0.37092368  0.61580427  0.37040949  1
  O  O366  1  0.37271501  0.61499103  0.86629672  1
  O  O367  1  0.87343663  0.12079684  0.36690963  1
  O  O368  1  0.87478684  0.11210860  0.87634764  1
  O  O369  1  0.86006338  0.60769454  0.38800891  1
  O  O370  1  0.87767377  0.63127017  0.85638241  1
  O  O371  1  0.12793737  0.38356739  0.13127239  1
  O  O372  1  0.12311489  0.37638790  0.64186197  1
  O  O373  1  0.12521927  0.86837260  0.13453181  1
  O  O374  1  0.13110916  0.88609862  0.63181238  1
  O  O375  1  0.63440731  0.38038000  0.13019572  1
  O  O376  1  0.63079096  0.37946404  0.62932363  1
  O  O377  1  0.62804167  0.88801525  0.13898445  1
  O  O378  1  0.64378675  0.86741624  0.63100673  1
  O  O379  1  0.11682861  0.25783772  0.25531261  1
  O  O380  1  0.11935010  0.25403813  0.75835271  1
  O  O381  1  0.12625285  0.75353036  0.25849839  1
  O  O382  1  0.13300840  0.76440740  0.75008333  1
  O  O383  1  0.61840768  0.25333621  0.25948526  1
  O  O384  1  0.62518747  0.25581770  0.75986082  1
  O  O385  1  0.63815531  0.76193043  0.27323710  1
  O  O386  1  0.62387536  0.75309461  0.75397081  1
  O  O387  1  0.38112886  0.24849499  0.24902315  1
  O  O388  1  0.37452302  0.24596239  0.75254109  1
  O  O389  1  0.37645400  0.73558695  0.26022461  1
  O  O390  1  0.37873450  0.74314500  0.74404311  1
  O  O391  1  0.87416522  0.24339269  0.24467779  1
  O  O392  1  0.88702557  0.25221679  0.75225073  1
  O  O393  1  0.86818819  0.75660164  0.23709144  1
  O  O394  1  0.87402011  0.73573477  0.73406738  1
  O  O395  1  0.37460651  0.48843203  0.49110864  1
  O  O396  1  0.38043190  0.49846670  0.99717659  1
  O  O397  1  0.38481372  1.00569514  0.49097484  1
  O  O398  1  0.37451932  0.99347226  0.99463461  1
  O  O399  1  0.88098164  0.48961311  0.49570941  1
  O  O400  1  0.88812376  0.49575581  1.00357647  1
  O  O401  1  0.88207071  1.00161181  0.48989118  1
  O  O402  1  0.87398837  0.99533983  0.98857758  1
  O  O403  1  0.10352160  -0.00082920  -0.00133878  1
  O  O404  1  0.11813870  0.00151146  0.50810755  1
  O  O405  1  0.11480276  0.50923192  0.00506018  1
  O  O406  1  0.11985335  0.50659821  0.49956935  1
  O  O407  1  0.63385857  0.01904833  0.00973822  1
  O  O408  1  0.61455310  0.01120253  0.49545418  1
  O  O409  1  0.61695841  0.49365618  0.00562061  1
  O  O410  1  0.62444139  0.50371857  0.50631860  1
  O  O411  1  0.36570324  0.37760860  0.12234868  1
  O  O412  1  0.37413331  0.37438154  0.61255431  1
  O  O413  1  0.36658564  0.87670518  0.13316216  1
  O  O414  1  0.36326600  0.87453481  0.63885583  1
  O  O415  1  0.87009522  0.36923202  0.12008885  1
  O  O416  1  0.86655078  0.37826978  0.61685932  1
  O  O417  1  0.86773249  0.87049075  0.11642104  1
  O  O418  1  0.86868420  0.85811134  0.62483212  1
  O  O419  1  0.12600492  0.13357221  0.37515335  1
  O  O420  1  0.11686340  0.13974332  0.87564931  1
  O  O421  1  0.13899039  0.63307115  0.38493934  1
  O  O422  1  0.12796657  0.63138589  0.88683977  1
  O  O423  1  0.62773183  0.13479162  0.38479043  1
  O  O424  1  0.62184762  0.13916166  0.88505154  1
  O  O425  1  0.62914529  0.63100775  0.38178433  1
  O  O426  1  0.62900773  0.63566952  0.87421336  1
