# generated using pymatgen
data_V85Zn86O256
_symmetry_space_group_name_H-M   'P 1'
_cell_length_a   16.93185244
_cell_length_b   16.93248294
_cell_length_c   16.91627048
_cell_angle_alpha   90.05357649
_cell_angle_beta   89.94735704
_cell_angle_gamma   89.98672234
_symmetry_Int_Tables_number   1
_chemical_formula_structural   V85Zn86O256
_chemical_formula_sum   'V85 Zn86 O256'
_cell_volume   4849.86173389
_cell_formula_units_Z   1
loop_
 _symmetry_equiv_pos_site_id
 _symmetry_equiv_pos_as_xyz
  1  'x, y, z'
loop_
 _atom_site_type_symbol
 _atom_site_label
 _atom_site_symmetry_multiplicity
 _atom_site_fract_x
 _atom_site_fract_y
 _atom_site_fract_z
 _atom_site_occupancy
  V  V0  1  0.00124279  -0.00404722  0.49041842  1
  V  V1  1  0.49589937  0.74365000  0.75329138  1
  V  V2  1  -0.00292701  0.75742555  0.25115946  1
  V  V3  1  0.12090074  0.12697912  0.00765967  1
  V  V4  1  0.62693326  0.25126217  0.87472033  1
  V  V5  1  0.62801306  0.74751687  0.88579832  1
  V  V6  1  0.75318327  0.37795702  0.62475602  1
  V  V7  1  0.74812221  0.25554078  0.01241529  1
  V  V8  1  0.12643093  0.75642413  0.37368645  1
  V  V9  1  0.49637073  0.12844434  0.13786682  1
  V  V10  1  0.63036166  0.37685636  0.74950327  1
  V  V11  1  0.11991490  0.25942780  0.37631478  1
  V  V12  1  0.86532308  0.50603371  0.37243459  1
  V  V13  1  0.62528952  0.87287358  0.75100339  1
  V  V14  1  0.50432353  0.12506847  0.62475105  1
  V  V15  1  0.75064824  0.12404225  0.88120747  1
  V  V16  1  0.75539138  0.86631688  0.10925466  1
  V  V17  1  0.62229725  -0.00385337  0.12434422  1
  V  V18  1  0.50376354  0.49542539  0.48858679  1
  V  V19  1  0.12621812  0.37760548  0.75127418  1
  V  V20  1  -0.00077701  0.24976431  0.75079825  1
  V  V21  1  0.62825156  0.00044447  0.62326630  1
  V  V22  1  0.50285718  0.49805825  -0.00090900  1
  V  V23  1  0.13175688  0.62560505  0.49253330  1
  V  V24  1  0.87656080  0.75107925  0.62780257  1
  V  V25  1  0.87433918  0.25028659  0.62418150  1
  V  V26  1  0.50372169  0.74792571  0.25990691  1
  V  V27  1  0.61225024  0.26561567  0.36517957  1
  V  V28  1  0.86931096  0.01377333  0.36879012  1
  V  V29  1  0.26149084  0.50300343  0.74859362  1
  V  V30  1  -0.00277014  0.37826166  0.87509884  1
  V  V31  1  0.11729594  0.62392970  0.00137259  1
  V  V32  1  0.35959026  0.49742395  0.37454228  1
  V  V33  1  0.12651874  0.25199120  0.88149240  1
  V  V34  1  0.35969154  0.62519359  0.25626028  1
  V  V35  1  0.37628830  0.12552935  0.75109298  1
  V  V36  1  0.75445005  0.49519015  0.22843925  1
  V  V37  1  0.88542365  0.23788804  0.12689368  1
  V  V38  1  0.37505668  0.87473490  0.49775014  1
  V  V39  1  0.63135300  0.86926338  0.25401297  1
  V  V40  1  0.87551888  0.74868288  0.11109567  1
  V  V41  1  0.37210525  0.74688480  0.12750478  1
  V  V42  1  0.37309657  -0.00127122  0.87628550  1
  V  V43  1  0.49848828  0.87391260  0.87879176  1
  V  V44  1  0.00101652  0.62878144  0.62759806  1
  V  V45  1  0.25751318  0.12664973  0.37107403  1
  V  V46  1  0.86786002  0.49692107  0.86921789  1
  V  V47  1  0.00204149  0.49966936  0.48922186  1
  V  V48  1  0.62827948  0.50227819  0.62719291  1
  V  V49  1  0.24907651  0.12941530  0.88085683  1
  V  V50  1  0.87213030  0.62134168  0.74692452  1
  V  V51  1  0.88062473  0.37486657  0.48973908  1
  V  V52  1  0.87833908  0.87187635  0.48834298  1
  V  V53  1  0.12614530  0.12501062  0.50106334  1
  V  V54  1  0.75201576  -0.00054232  0.75164092  1
  V  V55  1  0.37771677  0.25119629  0.62540626  1
  V  V56  1  0.12340413  -0.00116306  0.62603500  1
  V  V57  1  -0.00098246  0.12339453  0.62657927  1
  V  V58  1  0.24598755  0.74996539  -0.00095651  1
  V  V59  1  0.36892489  0.36436371  -0.00431291  1
  V  V60  1  0.87604688  0.63042195  0.25038627  1
  V  V61  1  0.49853983  0.62236519  0.62680118  1
  V  V62  1  0.87254342  0.37993703  0.01248818  1
  V  V63  1  0.87300614  -0.00551598  0.88708561  1
  V  V64  1  0.12492169  0.50132540  0.62650722  1
  V  V65  1  0.74964272  0.62666100  0.87621800  1
  V  V66  1  0.50970106  0.62533093  0.12852497  1
  V  V67  1  0.36808123  0.24500064  0.14181477  1
  V  V68  1  0.75231006  0.24764752  0.48599969  1
  V  V69  1  0.24749139  -0.00154150  0.74941207  1
  V  V70  1  -0.00416833  0.86961380  0.87432334  1
  V  V71  1  0.57763620  0.44208341  0.17960826  1
  V  V72  1  0.25554895  0.62596771  0.87207015  1
  V  V73  1  0.12522359  0.50313035  0.13445272  1
  V  V74  1  0.37460257  0.74716888  0.62584147  1
  V  V75  1  -0.00058199  0.24643491  0.25121015  1
  V  V76  1  0.25160429  0.25090013  0.50147022  1
  V  V77  1  0.63090177  0.63286837  0.48761332  1
  V  V78  1  0.75070213  0.87024577  0.62164698  1
  V  V79  1  0.50208451  -0.00125822  0.49751002  1
  V  V80  1  0.11933241  0.86657152  0.74878547  1
  V  V81  1  0.25439480  0.00340651  0.24940565  1
  V  V82  1  0.63156970  0.12386733  0.48566913  1
  V  V83  1  0.24329102  0.87667293  0.12688155  1
  V  V84  1  -0.00252718  -0.00007543  0.00679276  1
  Zn  Zn85  1  0.50296317  0.25036859  0.75022777  1
  Zn  Zn86  1  0.12008589  0.74657575  0.86997497  1
  Zn  Zn87  1  0.11936791  0.00644434  0.13057312  1
  Zn  Zn88  1  0.12672567  0.38018098  0.25438275  1
  Zn  Zn89  1  0.49585274  0.00267123  0.00228416  1
  Zn  Zn90  1  0.38441795  0.36923702  0.49174561  1
  Zn  Zn91  1  0.24896762  0.87267166  0.62389335  1
  Zn  Zn92  1  0.25567084  0.74579279  0.49137646  1
  Zn  Zn93  1  0.75329391  0.74649018  0.47951564  1
  Zn  Zn94  1  0.87442229  0.12362035  0.75160928  1
  Zn  Zn95  1  0.24614170  0.37482603  0.12599655  1
  Zn  Zn96  1  0.37708117  0.50122628  0.87553670  1
  Zn  Zn97  1  0.50097569  0.37636577  0.87328554  1
  Zn  Zn98  1  0.37846979  0.00225089  0.37034900  1
  Zn  Zn99  1  -0.00244409  0.50550556  0.00371185  1
  Zn  Zn100  1  0.25325132  0.37615727  0.62608049  1
  Zn  Zn101  1  0.75093744  0.00699220  0.25087475  1
  Zn  Zn102  1  0.50424125  0.87114712  0.37534255  1
  Zn  Zn103  1  0.63544597  0.61939434  0.01025719  1
  Zn  Zn104  1  0.37182701  0.87461454  0.00230309  1
  Zn  Zn105  1  0.11833536  0.88336313  0.25678740  1
  Zn  Zn106  1  0.61999115  0.12574837  0.00322149  1
  Zn  Zn107  1  0.18893854  0.19195755  0.19114991  1
  Zn  Zn108  1  0.18791087  0.18757749  0.69127291  1
  Zn  Zn109  1  0.18049561  0.68770269  0.18562504  1
  Zn  Zn110  1  0.18966041  0.68493592  0.68624576  1
  Zn  Zn111  1  0.68654496  0.18638970  0.19478211  1
  Zn  Zn112  1  0.69116343  0.18767897  0.68599887  1
  Zn  Zn113  1  0.69324579  0.68544687  0.30219759  1
  Zn  Zn114  1  0.68737761  0.68658383  0.69005729  1
  Zn  Zn115  1  0.30529917  0.31901937  0.31132668  1
  Zn  Zn116  1  0.31185803  0.31354232  0.81293941  1
  Zn  Zn117  1  0.30947419  0.81338883  0.31247110  1
  Zn  Zn118  1  0.31033551  0.81199838  0.81093017  1
  Zn  Zn119  1  0.81453290  0.31434762  0.30619211  1
  Zn  Zn120  1  0.81059279  0.31180582  0.81297730  1
  Zn  Zn121  1  0.81474493  0.82158637  0.30519088  1
  Zn  Zn122  1  0.81372635  0.81030654  0.81222328  1
  Zn  Zn123  1  0.19034215  0.43588096  0.44296176  1
  Zn  Zn124  1  0.18927311  0.44164627  0.93984414  1
  Zn  Zn125  1  0.19078368  0.93571680  0.43704305  1
  Zn  Zn126  1  0.18230265  0.93783694  0.93804794  1
  Zn  Zn127  1  0.68943578  0.43754459  0.43821790  1
  Zn  Zn128  1  0.68875923  0.43947877  0.94130590  1
  Zn  Zn129  1  0.69265188  0.93372786  0.43358448  1
  Zn  Zn130  1  0.68543024  0.93680709  0.94306102  1
  Zn  Zn131  1  0.31142140  0.06551328  0.06300136  1
  Zn  Zn132  1  0.31366699  0.06285734  0.56221177  1
  Zn  Zn133  1  0.31223715  0.56105890  0.06318385  1
  Zn  Zn134  1  0.31475992  0.56134281  0.56085176  1
  Zn  Zn135  1  0.79453076  0.07819107  0.09291447  1
  Zn  Zn136  1  0.81443586  0.06132531  0.55903012  1
  Zn  Zn137  1  0.81761747  0.57007764  0.05989283  1
  Zn  Zn138  1  0.81161540  0.56169561  0.55946807  1
  Zn  Zn139  1  0.41087726  0.43455740  0.19131019  1
  Zn  Zn140  1  0.44346988  0.43428396  0.68486913  1
  Zn  Zn141  1  0.43566713  0.93420791  0.18775417  1
  Zn  Zn142  1  0.43833783  0.93499816  0.68760073  1
  Zn  Zn143  1  0.94993127  0.43653595  0.19131558  1
  Zn  Zn144  1  0.93867947  0.44052172  0.68503577  1
  Zn  Zn145  1  0.93439882  0.93455261  0.18629166  1
  Zn  Zn146  1  0.93579891  0.93848231  0.68872853  1
  Zn  Zn147  1  0.06610631  0.06975173  0.31195320  1
  Zn  Zn148  1  0.06029750  0.06022208  0.81607856  1
  Zn  Zn149  1  0.05758432  0.57153814  0.31067700  1
  Zn  Zn150  1  0.06163978  0.56436175  0.81340027  1
  Zn  Zn151  1  0.56454337  0.06008831  0.31014081  1
  Zn  Zn152  1  0.56373858  0.06210425  0.81340104  1
  Zn  Zn153  1  0.56033029  0.56160901  0.31210489  1
  Zn  Zn154  1  0.56311259  0.56095620  0.81256533  1
  Zn  Zn155  1  0.44077821  0.18640503  0.43610743  1
  Zn  Zn156  1  0.44179320  0.18595333  0.94059227  1
  Zn  Zn157  1  0.43847634  0.68160591  0.43814448  1
  Zn  Zn158  1  0.43567384  0.68462787  0.94231811  1
  Zn  Zn159  1  0.94136861  0.18666424  0.43676765  1
  Zn  Zn160  1  0.93588232  0.18768046  0.94170526  1
  Zn  Zn161  1  0.94160781  0.68755269  0.43521588  1
  Zn  Zn162  1  0.93630218  0.68844714  0.93187987  1
  Zn  Zn163  1  0.06042055  0.31943148  0.06268019  1
  Zn  Zn164  1  0.06290923  0.31464676  0.56347382  1
  Zn  Zn165  1  0.05843981  0.81418461  0.06192752  1
  Zn  Zn166  1  0.06170941  0.81156700  0.56013966  1
  Zn  Zn167  1  0.55346534  0.30568474  0.06042160  1
  Zn  Zn168  1  0.56618114  0.31115172  0.55805019  1
  Zn  Zn169  1  0.56107257  0.80925783  0.06699956  1
  Zn  Zn170  1  0.56166290  0.81075164  0.56240467  1
  O  O171  1  0.13052234  0.12857400  0.11040990  1
  O  O172  1  0.11997394  0.11953799  0.62157710  1
  O  O173  1  0.12666444  0.61658004  0.11426724  1
  O  O174  1  0.11655757  0.62151651  0.62019550  1
  O  O175  1  0.61005255  0.11703893  0.12578053  1
  O  O176  1  0.62267086  0.11808140  0.61830601  1
  O  O177  1  0.60923697  0.62975607  0.12458396  1
  O  O178  1  0.61875814  0.61838953  0.62016946  1
  O  O179  1  0.37259926  0.39205393  0.37495543  1
  O  O180  1  0.37816080  0.37528552  0.88447202  1
  O  O181  1  0.37753964  0.87592824  0.38729357  1
  O  O182  1  0.38082337  0.88217771  0.87447859  1
  O  O183  1  0.87460909  0.38121243  0.38572052  1
  O  O184  1  0.87827255  0.38184214  0.87711909  1
  O  O185  1  0.87575884  0.88390383  0.38644112  1
  O  O186  1  0.88155879  0.88265896  0.87025448  1
  O  O187  1  0.25027535  0.00899231  0.36943698  1
  O  O188  1  0.25565126  0.00489739  0.86900367  1
  O  O189  1  0.26141890  0.50541235  0.38558867  1
  O  O190  1  0.25274083  0.50766033  0.86628534  1
  O  O191  1  0.76422868  0.00092144  0.37218509  1
  O  O192  1  0.75356374  0.00482034  0.87525472  1
  O  O193  1  0.76362861  0.50024648  0.37738470  1
  O  O194  1  0.76119223  0.50626298  0.87429666  1
  O  O195  1  0.23148742  0.50039896  0.11671211  1
  O  O196  1  0.24511826  0.49980269  0.63142780  1
  O  O197  1  0.24806901  0.99405914  0.13085293  1
  O  O198  1  0.24377944  0.99982022  0.63195080  1
  O  O199  1  0.75596343  0.49969810  0.12896788  1
  O  O200  1  0.74311894  0.48693591  0.61709096  1
  O  O201  1  0.73676963  0.98105296  0.11444783  1
  O  O202  1  0.74871824  0.98855371  0.62813562  1
  O  O203  1  0.01027024  0.35951665  0.24939721  1
  O  O204  1  0.00570486  0.37155664  0.75559581  1
  O  O205  1  0.00157049  0.86360403  0.24830210  1
  O  O206  1  0.00911485  0.88260273  0.75808696  1
  O  O207  1  0.51207839  0.39378131  0.23644970  1
  O  O208  1  0.51590947  0.37181166  0.75055041  1
  O  O209  1  0.50608996  0.86397723  0.24994826  1
  O  O210  1  0.50501745  0.86882011  0.76069229  1
  O  O211  1  0.49608157  0.11783446  0.23722379  1
  O  O212  1  0.49445582  0.12508136  0.74346035  1
  O  O213  1  0.49324717  0.63029349  0.24505954  1
  O  O214  1  0.50417896  0.63226431  0.74059948  1
  O  O215  1  1.00621552  0.14390411  0.25001393  1
  O  O216  1  0.99863934  0.12964447  0.74397506  1
  O  O217  1  0.98555871  0.63770077  0.24875816  1
  O  O218  1  0.98780199  0.62150004  0.74003638  1
  O  O219  1  0.37909272  0.26230389  0.00124968  1
  O  O220  1  0.36970950  0.24902775  0.50728433  1
  O  O221  1  0.36138351  0.74943405  0.00706276  1
  O  O222  1  0.37762260  0.75516778  0.50662922  1
  O  O223  1  0.87020525  0.25942874  0.00719182  1
  O  O224  1  0.87162116  0.25700436  0.50307960  1
  O  O225  1  0.87770573  0.74595643  0.01183195  1
  O  O226  1  0.87420324  0.75536453  0.50800443  1
  O  O227  1  0.13226222  0.24559207  0.49826506  1
  O  O228  1  0.11639215  0.24487438  0.98781213  1
  O  O229  1  0.12489593  0.74384353  0.48975292  1
  O  O230  1  0.13342799  0.74399898  0.99975361  1
  O  O231  1  0.63438583  0.24243453  0.49198242  1
  O  O232  1  0.63287159  0.25135626  0.99250718  1
  O  O233  1  0.62477925  0.73504265  0.50283065  1
  O  O234  1  0.61477851  0.74154386  0.98779916  1
  O  O235  1  0.48901848  0.23578928  0.12559415  1
  O  O236  1  0.49534399  0.24325493  0.62437802  1
  O  O237  1  0.48985065  0.74228050  0.13300677  1
  O  O238  1  0.49411463  0.74338445  0.63217049  1
  O  O239  1  0.99069681  0.25496154  0.12967773  1
  O  O240  1  0.99546635  0.24386375  0.63014596  1
  O  O241  1  0.98454361  0.75881817  0.13155460  1
  O  O242  1  0.99222589  0.73716386  0.61862614  1
  O  O243  1  0.00946676  0.24803600  0.37021510  1
  O  O244  1  0.00402545  0.25667546  0.86869075  1
  O  O245  1  0.01132272  0.74822884  0.36568808  1
  O  O246  1  0.00025144  0.76451237  0.87447976  1
  O  O247  1  0.51294813  0.25121930  0.37904228  1
  O  O248  1  0.51612234  0.24939333  0.87335730  1
  O  O249  1  0.49673778  0.74887657  0.36379001  1
  O  O250  1  0.50202588  0.75315475  0.86977647  1
  O  O251  1  0.24564416  0.13424534  0.49789012  1
  O  O252  1  0.24072539  0.11931266  0.98607161  1
  O  O253  1  0.23566392  0.62807596  0.50902324  1
  O  O254  1  0.24205303  0.63235385  0.99333380  1
  O  O255  1  0.74196193  0.13529126  0.50708401  1
  O  O256  1  0.74436513  0.13471963  0.99619802  1
  O  O257  1  0.73430976  0.62796163  0.50541291  1
  O  O258  1  0.74977150  0.62260125  0.98287995  1
  O  O259  1  0.26583770  0.37900013  0.00063853  1
  O  O260  1  0.25526982  0.36131168  0.50515686  1
  O  O261  1  0.24797697  0.86714811  0.00533381  1
  O  O262  1  0.26063522  0.87066440  0.50439595  1
  O  O263  1  0.76106480  0.36599976  -0.00810806  1
  O  O264  1  0.75946533  0.36741737  0.50578932  1
  O  O265  1  0.74121843  0.86282018  0.01023011  1
  O  O266  1  0.75882434  0.87129525  0.50671605  1
  O  O267  1  0.11911728  0.50551547  0.23866367  1
  O  O268  1  0.13092618  0.49592814  0.74489790  1
  O  O269  1  0.13444297  1.00062406  0.24887618  1
  O  O270  1  0.12878219  0.99349932  0.74500630  1
  O  O271  1  0.63766777  0.50340173  0.24403323  1
  O  O272  1  0.62311356  0.49348172  0.73554171  1
  O  O273  1  0.62528985  0.99129099  0.23798301  1
  O  O274  1  0.63098739  0.99261800  0.74457864  1
  O  O275  1  0.35988026  -0.00692949  0.25315315  1
  O  O276  1  0.37076637  0.00375354  0.75855759  1
  O  O277  1  0.37344797  0.51256793  0.26370216  1
  O  O278  1  0.36455348  0.49296286  0.74845375  1
  O  O279  1  0.88134035  -0.00369278  0.26761636  1
  O  O280  1  0.86708813  0.00207854  0.76042624  1
  O  O281  1  0.87308406  0.50643371  0.25323186  1
  O  O282  1  0.87614868  0.50781185  0.75552628  1
  O  O283  1  0.12854811  0.36248934  0.38166866  1
  O  O284  1  0.11934121  0.36969382  0.87304536  1
  O  O285  1  0.12391271  0.86159048  0.37743061  1
  O  O286  1  0.11669589  0.87440991  0.86475481  1
  O  O287  1  0.62508835  0.36446313  0.38088599  1
  O  O288  1  0.62877580  0.36845164  0.86601224  1
  O  O289  1  0.62304338  0.88203800  0.35897297  1
  O  O290  1  0.61758739  0.86731207  0.87221678  1
  O  O291  1  0.38206278  0.13576075  0.12151823  1
  O  O292  1  0.38175329  0.13350360  0.62927731  1
  O  O293  1  0.37916961  0.62674878  0.13855723  1
  O  O294  1  0.39013419  0.63139091  0.61716187  1
  O  O295  1  0.89069210  0.14128869  0.10769801  1
  O  O296  1  0.88114624  0.13141566  0.62552870  1
  O  O297  1  0.87167674  0.64173959  0.13142502  1
  O  O298  1  0.87858080  0.63009062  0.62752694  1
  O  O299  1  0.26499197  0.24698766  0.12351842  1
  O  O300  1  0.25901715  0.24773703  0.61968154  1
  O  O301  1  0.25128743  0.75625483  0.11883764  1
  O  O302  1  0.26633389  0.74892222  0.62668016  1
  O  O303  1  0.76229274  0.24976691  0.11514206  1
  O  O304  1  0.75474303  0.26014588  0.61594117  1
  O  O305  1  0.76535453  0.76227715  0.12902231  1
  O  O306  1  0.75461392  0.76023568  0.62417287  1
  O  O307  1  0.24640296  0.24459666  0.38458503  1
  O  O308  1  0.23909414  0.24125222  0.86925927  1
  O  O309  1  0.23353553  0.75027361  0.37397611  1
  O  O310  1  0.24690535  0.74494155  0.88157445  1
  O  O311  1  0.74914911  0.25414434  0.38359335  1
  O  O312  1  0.74348607  0.24200284  0.88152325  1
  O  O313  1  0.74901298  0.75687682  0.36792802  1
  O  O314  1  0.73857806  0.74219646  0.86755092  1
  O  O315  1  0.01093028  0.11365192  -0.01280277  1
  O  O316  1  0.00686084  0.11828039  0.50826073  1
  O  O317  1  0.01389443  0.62754371  -0.00936811  1
  O  O318  1  0.00829124  0.61747511  0.50670296  1
  O  O319  1  0.50192525  0.12100520  0.01087051  1
  O  O320  1  0.51015861  0.11689021  0.50537450  1
  O  O321  1  0.49517311  0.61464767  0.01230894  1
  O  O322  1  0.51306271  0.61762349  0.50565646  1
  O  O323  1  0.50058133  0.39084943  0.50807582  1
  O  O324  1  0.49010891  0.38067598  0.99719443  1
  O  O325  1  0.49639452  0.88162804  0.49830398  1
  O  O326  1  0.49544198  0.87289553  0.98847999  1
  O  O327  1  0.99110546  0.38670330  0.50828480  1
  O  O328  1  0.98934912  0.37684228  0.98828232  1
  O  O329  1  0.99022333  0.88533599  0.50735852  1
  O  O330  1  1.00731516  0.88688188  0.98668659  1
  O  O331  1  0.49405005  0.50480129  0.38609674  1
  O  O332  1  0.49569612  0.49907438  0.88230537  1
  O  O333  1  0.49872562  0.99996518  0.38683010  1
  O  O334  1  0.49199404  0.99117223  0.87480317  1
  O  O335  1  0.99343252  0.50408218  0.38574318  1
  O  O336  1  0.98842761  0.49407604  0.87440672  1
  O  O337  1  0.99586743  1.00760106  0.38699179  1
  O  O338  1  0.99016986  0.99257362  0.88028275  1
  O  O339  1  -0.00061068  -0.00584020  0.11111850  1
  O  O340  1  0.00246143  0.00691028  0.61752104  1
  O  O341  1  0.01567280  0.49926936  0.11913020  1
  O  O342  1  0.00372993  0.51108910  0.61588774  1
  O  O343  1  0.50185256  0.00553852  0.12406479  1
  O  O344  1  0.50692727  0.00233867  0.61554670  1
  O  O345  1  0.50442550  0.50206289  0.12341490  1
  O  O346  1  0.50717965  0.50733007  0.61753680  1
  O  O347  1  0.24117149  0.37558509  0.24165781  1
  O  O348  1  0.24252558  0.38333929  0.74936148  1
  O  O349  1  0.24397133  0.88170314  0.24325203  1
  O  O350  1  0.24139902  0.88214874  0.74720809  1
  O  O351  1  0.75759501  0.39711643  0.25136149  1
  O  O352  1  0.74018313  0.37041286  0.73980386  1
  O  O353  1  0.74281632  0.88305481  0.23657397  1
  O  O354  1  0.74439292  0.87891068  0.74268340  1
  O  O355  1  0.24656608  0.11841385  0.26065490  1
  O  O356  1  0.25542453  0.11836692  0.75992177  1
  O  O357  1  0.26187334  0.63111358  0.24782444  1
  O  O358  1  0.24607738  0.61510400  0.75790576  1
  O  O359  1  0.76290109  0.10822283  0.20320564  1
  O  O360  1  0.75015795  0.11742547  0.75966375  1
  O  O361  1  0.76419739  0.60888270  0.25185148  1
  O  O362  1  0.76289455  0.62769955  0.75640044  1
  O  O363  1  0.36160270  0.12225714  0.38403634  1
  O  O364  1  0.36887479  0.11976854  0.87181995  1
  O  O365  1  0.37620920  0.61726784  0.36419243  1
  O  O366  1  0.36032444  0.62324735  0.87946066  1
  O  O367  1  0.87395735  0.11243869  0.38183118  1
  O  O368  1  0.86211068  0.12031789  0.87590262  1
  O  O369  1  0.87974029  0.61719870  0.36675368  1
  O  O370  1  0.87050687  0.61980195  0.86535208  1
  O  O371  1  0.12743265  0.39028806  0.12000229  1
  O  O372  1  0.12715003  0.38303470  0.63233445  1
  O  O373  1  0.13516317  0.87713899  0.12621543  1
  O  O374  1  0.12451897  0.88063313  0.63096540  1
  O  O375  1  0.62377264  0.37631237  0.12087662  1
  O  O376  1  0.63337012  0.38076448  0.62812234  1
  O  O377  1  0.62929274  0.87642344  0.13151630  1
  O  O378  1  0.63249162  0.87922368  0.62780423  1
  O  O379  1  0.12009870  0.25039196  0.26203450  1
  O  O380  1  0.11933410  0.25615602  0.75958220  1
  O  O381  1  0.11672908  0.74997070  0.25913878  1
  O  O382  1  0.12860531  0.76287240  0.74757543  1
  O  O383  1  0.63013444  0.25035912  0.26628525  1
  O  O384  1  0.62787521  0.25663094  0.75721948  1
  O  O385  1  0.61549411  0.75578171  0.24742429  1
  O  O386  1  0.61310800  0.75497148  0.75538559  1
  O  O387  1  0.37394857  0.25302942  0.24020693  1
  O  O388  1  0.37765184  0.24365231  0.74362350  1
  O  O389  1  0.37906549  0.74017059  0.24889204  1
  O  O390  1  0.38808990  0.75593069  0.74294959  1
  O  O391  1  0.88128147  0.25298640  0.23500859  1
  O  O392  1  0.88048615  0.24856603  0.74300063  1
  O  O393  1  0.88108806  0.74681381  0.24452635  1
  O  O394  1  0.87294889  0.74353052  0.73427386  1
  O  O395  1  0.38480120  0.50183124  0.48899848  1
  O  O396  1  0.38568684  0.48903206  1.00337930  1
  O  O397  1  0.38522566  0.99183124  0.50233541  1
  O  O398  1  0.37282664  0.99735885  0.98683934  1
  O  O399  1  0.88182214  0.49548015  0.49307792  1
  O  O400  1  0.87696555  0.49505709  0.99135499  1
  O  O401  1  0.88206272  0.99282917  0.49255347  1
  O  O402  1  0.87997564  1.00561067  0.98939692  1
  O  O403  1  0.11618054  0.01012040  0.00085017  1
  O  O404  1  0.11877213  0.00262560  0.50528838  1
  O  O405  1  0.12105208  0.51056242  0.00142929  1
  O  O406  1  0.11906074  0.50614212  0.50447990  1
  O  O407  1  0.61784006  -0.00056844  0.01208248  1
  O  O408  1  0.62275752  0.00508618  0.50207815  1
  O  O409  1  0.61037939  0.50246543  -0.00405618  1
  O  O410  1  0.62029698  0.50850175  0.50618766  1
  O  O411  1  0.37367841  0.35957073  0.11519108  1
  O  O412  1  0.37603335  0.36047819  0.62435324  1
  O  O413  1  0.36170165  0.86650143  0.12401552  1
  O  O414  1  0.37824408  0.86586867  0.61503114  1
  O  O415  1  0.88148243  0.37239082  0.11391252  1
  O  O416  1  0.86926513  0.37187899  0.61735302  1
  O  O417  1  0.86279094  0.86905859  0.12235904  1
  O  O418  1  0.86927022  0.86845610  0.61913055  1
  O  O419  1  0.13606285  0.13437174  0.38540147  1
  O  O420  1  0.13162834  0.13298724  0.87820835  1
  O  O421  1  0.12046542  0.63538833  0.38412988  1
  O  O422  1  0.13466238  0.62758094  0.88041900  1
  O  O423  1  0.62495740  0.12864271  0.38326931  1
  O  O424  1  0.63531819  0.13048477  0.87640557  1
  O  O425  1  0.62687122  0.62359141  0.38385166  1
  O  O426  1  0.63408692  0.63148896  0.87136064  1
