# generated using pymatgen
data_V85Zn86O256
_symmetry_space_group_name_H-M   'P 1'
_cell_length_a   16.95028021
_cell_length_b   16.95230126
_cell_length_c   16.94688210
_cell_angle_alpha   90.02165157
_cell_angle_beta   90.01554207
_cell_angle_gamma   90.01250310
_symmetry_Int_Tables_number   1
_chemical_formula_structural   V85Zn86O256
_chemical_formula_sum   'V85 Zn86 O256'
_cell_volume   4869.62248798
_cell_formula_units_Z   1
loop_
 _symmetry_equiv_pos_site_id
 _symmetry_equiv_pos_as_xyz
  1  'x, y, z'
loop_
 _atom_site_type_symbol
 _atom_site_label
 _atom_site_symmetry_multiplicity
 _atom_site_fract_x
 _atom_site_fract_y
 _atom_site_fract_z
 _atom_site_occupancy
  V  V0  1  0.87691044  0.12279161  0.75615642  1
  V  V1  1  -0.00410920  0.50141561  0.50390470  1
  V  V2  1  0.37716287  0.62663819  0.25043069  1
  V  V3  1  0.12426378  0.63125098  0.50195216  1
  V  V4  1  0.37400717  0.62506207  0.74935414  1
  V  V5  1  0.50088807  0.62369632  0.62623654  1
  V  V6  1  0.37589440  0.25409536  0.61084004  1
  V  V7  1  0.13491445  0.87808481  0.25541064  1
  V  V8  1  0.00224247  0.75648628  0.25957183  1
  V  V9  1  0.87961342  0.62504526  0.74533681  1
  V  V10  1  0.12587791  0.37523359  0.75043221  1
  V  V11  1  0.50601528  0.76315300  0.26300378  1
  V  V12  1  0.86867143  0.88217449  -0.00254215  1
  V  V13  1  -0.00041115  0.62630976  0.12849975  1
  V  V14  1  0.62360522  0.75008975  0.87451209  1
  V  V15  1  0.13268718  -0.00113052  0.12521589  1
  V  V16  1  0.50438638  0.24726802  0.74821230  1
  V  V17  1  0.74919464  0.62208920  0.38259382  1
  V  V18  1  0.25258609  0.37642268  0.61420902  1
  V  V19  1  0.37999684  0.00018468  0.88364332  1
  V  V20  1  0.37989106  0.87742349  0.49277389  1
  V  V21  1  0.74740903  0.75226398  0.00102461  1
  V  V22  1  0.74740526  0.49897528  0.25215956  1
  V  V23  1  0.63918247  0.24660754  0.37548022  1
  V  V24  1  0.11941057  0.50699714  0.62701536  1
  V  V25  1  0.62711307  0.49609144  0.62675864  1
  V  V26  1  0.24840957  0.37676068  0.12644075  1
  V  V27  1  0.74176380  0.24845116  -0.00611471  1
  V  V28  1  -0.00370993  0.00230683  -0.00492307  1
  V  V29  1  0.25151039  0.00195960  0.74404888  1
  V  V30  1  -0.00122724  0.49930036  0.00220685  1
  V  V31  1  0.87440771  0.49067703  0.38068959  1
  V  V32  1  0.62474444  0.62048197  0.49823465  1
  V  V33  1  0.36506852  0.11596372  0.24962579  1
  V  V34  1  0.23538143  0.12237248  0.37907209  1
  V  V35  1  0.00172640  0.36589403  0.38115348  1
  V  V36  1  0.74982485  0.62593755  0.87511582  1
  V  V37  1  0.63078420  0.36938772  0.75386948  1
  V  V38  1  0.74824288  0.37463359  0.12618739  1
  V  V39  1  0.37298152  0.75640423  0.11376368  1
  V  V40  1  0.36842410  0.74874534  0.61659439  1
  V  V41  1  0.12485062  0.50072050  0.12832618  1
  V  V42  1  0.24970309  0.63241531  0.37932393  1
  V  V43  1  0.89554339  0.87122365  0.49317534  1
  V  V44  1  0.87652673  0.24611619  0.61118753  1
  V  V45  1  0.13005932  0.62709276  0.00196381  1
  V  V46  1  0.24702950  0.62561123  0.87594372  1
  V  V47  1  0.24612090  0.87440124  0.61474916  1
  V  V48  1  0.87129707  0.75166743  0.12681362  1
  V  V49  1  0.64795579  0.12880607  0.49718745  1
  V  V50  1  -0.00065910  0.12338395  0.12752064  1
  V  V51  1  0.49782830  0.24952187  0.25465978  1
  V  V52  1  0.12373590  0.24836622  0.87290318  1
  V  V53  1  0.25028765  0.49925315  0.74987093  1
  V  V54  1  0.87776070  0.01376509  0.38603493  1
  V  V55  1  0.62217857  0.49992290  0.12748979  1
  V  V56  1  0.61896793  0.00034655  0.14052473  1
  V  V57  1  0.75339979  -0.00115479  0.75952964  1
  V  V58  1  0.75252278  0.87454401  0.62589658  1
  V  V59  1  0.87398477  0.24976870  0.12458532  1
  V  V60  1  0.69583156  0.79709543  0.45067001  1
  V  V61  1  0.06695098  0.05286300  0.56744241  1
  V  V62  1  0.37334323  0.49080617  0.38117469  1
  V  V63  1  0.37580824  0.37558685  -0.00142604  1
  V  V64  1  0.37794573  0.12405159  0.74622466  1
  V  V65  1  0.87495663  0.62523588  0.25316053  1
  V  V66  1  0.87580843  0.50129029  0.87596995  1
  V  V67  1  0.18277685  0.79311691  0.93535220  1
  V  V68  1  0.25000458  0.25066033  -0.00338532  1
  V  V69  1  0.50317690  0.36988228  0.87356797  1
  V  V70  1  0.12722940  0.87782887  0.75018358  1
  V  V71  1  0.37707383  0.25081441  0.12636083  1
  V  V72  1  0.12238098  0.36877529  0.25468169  1
  V  V73  1  0.85755763  0.11537040  0.24834500  1
  V  V74  1  0.50085076  0.12231048  0.61397263  1
  V  V75  1  0.50032202  0.75543000  0.74811955  1
  V  V76  1  0.74409046  0.88192939  0.13811100  1
  V  V77  1  0.75668937  0.36941501  0.61320967  1
  V  V78  1  0.00629764  0.74662632  0.75370724  1
  V  V79  1  0.50050144  0.50074189  0.00015738  1
  V  V80  1  -0.00328004  0.87135792  0.87830948  1
  V  V81  1  0.49697445  0.87809680  0.89042515  1
  V  V82  1  -0.00283474  0.24638139  0.74729958  1
  V  V83  1  0.87854604  0.74892712  0.62301479  1
  V  V84  1  0.61687112  0.11653835  -0.00750388  1
  Zn  Zn85  1  0.74872681  0.12512825  0.87545725  1
  Zn  Zn86  1  -0.00114974  0.37446936  0.87647414  1
  Zn  Zn87  1  0.50036665  0.62896461  0.12809355  1
  Zn  Zn88  1  0.49457652  0.11656714  0.12096778  1
  Zn  Zn89  1  0.87265584  0.37455944  0.00020824  1
  Zn  Zn90  1  0.12273635  0.12847959  0.00023255  1
  Zn  Zn91  1  0.61996807  0.37415691  0.25470732  1
  Zn  Zn92  1  0.49262505  0.49102831  0.50538311  1
  Zn  Zn93  1  0.75391389  0.49705352  0.75046819  1
  Zn  Zn94  1  0.37469806  -0.00507102  0.36667695  1
  Zn  Zn95  1  0.49556246  0.36627939  0.38905478  1
  Zn  Zn96  1  0.25336654  0.12771063  0.87041332  1
  Zn  Zn97  1  0.12529358  0.75911450  0.38522425  1
  Zn  Zn98  1  0.25182378  0.87246531  0.11290768  1
  Zn  Zn99  1  0.50702395  -0.00466605  0.48929230  1
  Zn  Zn100  1  0.62498974  0.87841298  0.74784519  1
  Zn  Zn101  1  0.62815453  -0.00032381  0.62206898  1
  Zn  Zn102  1  -0.00034922  0.24400939  0.25663625  1
  Zn  Zn103  1  0.23771187  0.25012387  0.49266282  1
  Zn  Zn104  1  0.37598199  0.49974040  0.87387671  1
  Zn  Zn105  1  0.24908639  0.50084754  0.25225380  1
  Zn  Zn106  1  0.62442740  0.62581480  0.00054681  1
  Zn  Zn107  1  0.18660910  0.18815657  0.18748046  1
  Zn  Zn108  1  0.18722502  0.18790518  0.68044398  1
  Zn  Zn109  1  0.19219043  0.69154421  0.19012166  1
  Zn  Zn110  1  0.18619280  0.68970924  0.68856972  1
  Zn  Zn111  1  0.68130845  0.18718185  0.18258356  1
  Zn  Zn112  1  0.69109047  0.18599510  0.68495514  1
  Zn  Zn113  1  0.68427608  0.68750148  0.19085018  1
  Zn  Zn114  1  0.69187596  0.68856709  0.68736299  1
  Zn  Zn115  1  0.30569702  0.30779566  0.31284702  1
  Zn  Zn116  1  0.31619213  0.31247550  0.80731535  1
  Zn  Zn117  1  0.31253080  0.80776785  0.30821779  1
  Zn  Zn118  1  0.31995722  0.81693664  0.80673833  1
  Zn  Zn119  1  0.81645623  0.31058795  0.30902838  1
  Zn  Zn120  1  0.81391019  0.31296014  0.81339800  1
  Zn  Zn121  1  0.81571226  0.81571477  0.31225641  1
  Zn  Zn122  1  0.81471419  0.81291623  0.81283691  1
  Zn  Zn123  1  0.18493984  0.44282601  0.43713643  1
  Zn  Zn124  1  0.18654961  0.43783191  0.93711905  1
  Zn  Zn125  1  0.19092926  0.94515752  0.43388261  1
  Zn  Zn126  1  0.18602849  0.95735211  0.93299215  1
  Zn  Zn127  1  0.68184948  0.43283840  0.43805295  1
  Zn  Zn128  1  0.68760894  0.43661964  0.93797373  1
  Zn  Zn129  1  0.69566501  0.96349339  0.42746240  1
  Zn  Zn130  1  0.68133254  0.93769047  0.93812668  1
  Zn  Zn131  1  0.31137059  0.06627655  0.06049062  1
  Zn  Zn132  1  0.30748571  0.06150621  0.55964165  1
  Zn  Zn133  1  0.31388934  0.56527482  0.06482790  1
  Zn  Zn134  1  0.30799784  0.56366645  0.56082297  1
  Zn  Zn135  1  0.80675867  0.06212331  0.06367944  1
  Zn  Zn136  1  0.82712203  0.05927382  0.56900269  1
  Zn  Zn137  1  0.81012479  0.56410174  0.06339310  1
  Zn  Zn138  1  0.81227380  0.56043032  0.56451279  1
  Zn  Zn139  1  0.43634336  0.43744937  0.19280704  1
  Zn  Zn140  1  0.43780873  0.43549052  0.68613383  1
  Zn  Zn141  1  0.43884202  0.93216964  0.18485975  1
  Zn  Zn142  1  0.43624350  0.93930440  0.68164993  1
  Zn  Zn143  1  0.93643235  0.43589119  0.19212525  1
  Zn  Zn144  1  0.93862990  0.43297839  0.68793680  1
  Zn  Zn145  1  0.94054909  0.93774744  0.18750141  1
  Zn  Zn146  1  0.93646045  0.93658856  0.68878203  1
  Zn  Zn147  1  0.05405181  0.05288090  0.31154068  1
  Zn  Zn148  1  0.06193883  0.06235507  0.80857212  1
  Zn  Zn149  1  0.06206919  0.56111785  0.31604799  1
  Zn  Zn150  1  0.06384748  0.56497621  0.81623245  1
  Zn  Zn151  1  0.55454091  0.06518660  0.31536744  1
  Zn  Zn152  1  0.56551582  0.05948818  0.80885477  1
  Zn  Zn153  1  0.55718440  0.56293143  0.31562347  1
  Zn  Zn154  1  0.56340898  0.56081858  0.81195540  1
  Zn  Zn155  1  0.43462851  0.18320544  0.43250058  1
  Zn  Zn156  1  0.43977002  0.18717102  0.93474547  1
  Zn  Zn157  1  0.43853880  0.68435897  0.43787115  1
  Zn  Zn158  1  0.43766755  0.68561850  0.93570210  1
  Zn  Zn159  1  1.06104641  0.18621893  0.44421838  1
  Zn  Zn160  1  0.93417201  0.18786759  0.93686822  1
  Zn  Zn161  1  0.93856984  0.68398100  0.43975130  1
  Zn  Zn162  1  0.93763572  0.68921335  0.93966527  1
  Zn  Zn163  1  0.06123680  0.31280603  0.06388876  1
  Zn  Zn164  1  0.05999904  0.31816515  0.56670534  1
  Zn  Zn165  1  0.05582299  0.81706567  0.07366925  1
  Zn  Zn166  1  0.06215657  0.81362669  0.57015700  1
  Zn  Zn167  1  0.56327298  0.31051534  0.06298450  1
  Zn  Zn168  1  0.56632269  0.30981622  0.55920367  1
  Zn  Zn169  1  0.56195407  0.81092847  0.07090146  1
  Zn  Zn170  1  0.55830567  0.81493823  0.56722356  1
  O  O171  1  0.11648058  0.11885061  0.12408653  1
  O  O172  1  0.12387311  0.11770627  0.62276866  1
  O  O173  1  0.12149490  0.62114142  0.12047061  1
  O  O174  1  0.13027836  0.61424417  0.62058198  1
  O  O175  1  0.62251747  0.11189385  0.11704179  1
  O  O176  1  0.62094489  0.12788733  0.61043698  1
  O  O177  1  0.62329622  0.61143552  0.12290825  1
  O  O178  1  0.62594203  0.61600671  0.61948765  1
  O  O179  1  0.36942173  0.38849217  0.36948799  1
  O  O180  1  0.38402376  0.37669685  0.88036965  1
  O  O181  1  0.36194181  0.87218128  0.39101672  1
  O  O182  1  0.38945183  0.88248506  0.87117686  1
  O  O183  1  0.88273129  0.38482826  0.36949709  1
  O  O184  1  0.87607692  0.38983789  0.87794019  1
  O  O185  1  0.87808598  0.86545515  0.39304926  1
  O  O186  1  0.88327318  0.87291597  0.88617197  1
  O  O187  1  0.25684779  0.01633198  0.37149470  1
  O  O188  1  0.26150053  0.00430329  0.86205213  1
  O  O189  1  0.25863712  0.50913173  0.37366286  1
  O  O190  1  0.25074093  0.50786480  0.86898680  1
  O  O191  1  0.78144184  -0.01394789  0.36177890  1
  O  O192  1  0.74727999  -0.00281219  0.86255124  1
  O  O193  1  0.75509105  0.50270958  0.37394887  1
  O  O194  1  0.75871272  0.50643578  0.87493520  1
  O  O195  1  0.24313187  0.49367426  0.12567610  1
  O  O196  1  0.24397711  0.49471952  0.63153874  1
  O  O197  1  0.23584985  0.99823203  0.11361070  1
  O  O198  1  0.25723359  0.98993948  0.63736897  1
  O  O199  1  0.74215851  0.49525378  0.12967232  1
  O  O200  1  0.74615371  0.48756746  0.62899688  1
  O  O201  1  0.73914430  0.98778285  0.12302280  1
  O  O202  1  0.75495516  0.98614402  0.62992288  1
  O  O203  1  0.00522954  0.37328906  0.26004894  1
  O  O204  1  0.00752688  0.36543068  0.75470083  1
  O  O205  1  0.01126917  0.86353907  0.23905632  1
  O  O206  1  0.00755073  0.87163947  0.76120451  1
  O  O207  1  0.49830460  0.36017146  0.25264894  1
  O  O208  1  0.50737797  0.36802541  0.75504925  1
  O  O209  1  0.49614994  0.86295768  0.25395845  1
  O  O210  1  0.49960327  0.86274302  0.74690543  1
  O  O211  1  0.48585851  0.13604805  0.24377756  1
  O  O212  1  0.50069932  0.13113429  0.73871199  1
  O  O213  1  0.48676588  0.62565465  0.24973829  1
  O  O214  1  0.49505149  0.63421439  0.74712854  1
  O  O215  1  0.99443672  0.12501819  0.23631653  1
  O  O216  1  0.99372189  0.13755390  0.75538608  1
  O  O217  1  0.99553886  0.63022060  0.24542048  1
  O  O218  1  0.99214448  0.63509424  0.75951959  1
  O  O219  1  0.36936894  0.25512992  0.00460384  1
  O  O220  1  0.37010924  0.24601659  0.50950893  1
  O  O221  1  0.37989580  0.74235784  0.01521826  1
  O  O222  1  0.37881949  0.75642839  0.51083566  1
  O  O223  1  0.86699076  0.25100093  0.01082358  1
  O  O224  1  0.88138705  0.24412586  0.51646225  1
  O  O225  1  0.86976859  0.75974987  0.00766719  1
  O  O226  1  0.88468691  0.75731256  0.51120196  1
  O  O227  1  0.12493212  0.25615871  0.50306806  1
  O  O228  1  0.13190571  0.25183747  0.99167753  1
  O  O229  1  0.11482459  0.73595783  0.50265964  1
  O  O230  1  0.11736094  0.74220024  1.00330080  1
  O  O231  1  0.62862279  0.23753769  0.49016685  1
  O  O232  1  0.63254492  0.23522133  1.00999157  1
  O  O233  1  0.62917253  0.74004316  0.50810892  1
  O  O234  1  0.62896918  0.74835237  0.99442749  1
  O  O235  1  0.48676241  0.25072167  0.12904501  1
  O  O236  1  0.49369720  0.24432432  0.63019807  1
  O  O237  1  0.48859685  0.74810498  0.13260205  1
  O  O238  1  0.49266089  0.74263551  0.63196623  1
  O  O239  1  0.99063397  0.24071640  0.12200946  1
  O  O240  1  0.98505775  0.26080961  0.63609821  1
  O  O241  1  0.99003705  0.74277649  0.13257045  1
  O  O242  1  0.98805761  0.75501829  0.64032094  1
  O  O243  1  -0.00133715  0.26267507  0.37587176  1
  O  O244  1  0.00780234  0.25335064  0.87130457  1
  O  O245  1  0.00425135  0.74279709  0.36251042  1
  O  O246  1  -0.00399259  0.76236165  0.87063943  1
  O  O247  1  0.50506397  0.24804163  0.36760901  1
  O  O248  1  0.49763198  0.26204297  0.86555774  1
  O  O249  1  0.49579806  0.74544714  0.36253112  1
  O  O250  1  0.50080631  0.75952224  0.86784782  1
  O  O251  1  0.25091391  0.12574182  0.48338476  1
  O  O252  1  0.24779066  0.14051482  0.99540333  1
  O  O253  1  0.23759221  0.62199440  0.49217758  1
  O  O254  1  0.23828586  0.62117004  0.99409195  1
  O  O255  1  0.74570451  0.12068042  0.50496593  1
  O  O256  1  0.73986269  0.13112298  0.99812795  1
  O  O257  1  0.74410569  0.62152807  0.49092670  1
  O  O258  1  0.74926502  0.63343721  0.99294342  1
  O  O259  1  0.25390405  0.36682226  0.00357482  1
  O  O260  1  0.24670446  0.37804035  0.51176482  1
  O  O261  1  0.23448488  0.86599147  -0.00987146  1
  O  O262  1  0.25605695  0.87561866  0.51142528  1
  O  O263  1  0.74891951  0.36804438  0.00875831  1
  O  O264  1  0.74767771  0.37570224  0.51498481  1
  O  O265  1  0.75456497  0.87126407  0.00388524  1
  O  O266  1  0.75675994  0.86493111  0.50540690  1
  O  O267  1  0.12391808  0.49269994  0.24187548  1
  O  O268  1  0.12800573  0.49789330  0.74492600  1
  O  O269  1  0.11803721  0.98492233  0.24015032  1
  O  O270  1  0.13572887  0.98608385  0.76179553  1
  O  O271  1  0.62809362  0.49853338  0.24462752  1
  O  O272  1  0.62746384  0.49201316  0.73993633  1
  O  O273  1  0.62451771  1.00965231  0.23904272  1
  O  O274  1  0.63739539  0.99870707  0.74239441  1
  O  O275  1  0.37482965  0.01432101  0.24047388  1
  O  O276  1  0.37022562  0.00549290  0.75362173  1
  O  O277  1  0.37223548  0.50789630  0.25970772  1
  O  O278  1  0.36988595  0.50794948  0.75071678  1
  O  O279  1  0.87203007  0.01516682  0.23515947  1
  O  O280  1  0.86724768  0.01050053  0.74484472  1
  O  O281  1  0.86768111  0.50655820  0.25838903  1
  O  O282  1  0.87856953  0.50804933  0.75764584  1
  O  O283  1  0.11488979  0.38588554  0.36485672  1
  O  O284  1  0.12483164  0.36495632  0.86936046  1
  O  O285  1  0.13109418  0.87525925  0.36055461  1
  O  O286  1  0.12238315  0.86660748  0.87467683  1
  O  O287  1  0.62072225  0.36071242  0.37425037  1
  O  O288  1  0.61966255  0.37910247  0.86176512  1
  O  O289  1  0.64003408  0.86162117  0.40161602  1
  O  O290  1  0.61192364  0.86972274  0.87049765  1
  O  O291  1  0.37303519  0.13354353  0.13163791  1
  O  O292  1  0.38207411  0.13131299  0.62709932  1
  O  O293  1  0.37702826  0.63081301  0.13456883  1
  O  O294  1  0.37765391  0.63124351  0.62837993  1
  O  O295  1  0.87855426  0.13133446  0.12854136  1
  O  O296  1  0.86973972  0.14051667  0.63824290  1
  O  O297  1  0.87750522  0.63043947  0.13317406  1
  O  O298  1  0.87019238  0.63178781  0.63730743  1
  O  O299  1  0.25819584  0.25564720  0.11677990  1
  O  O300  1  0.25920352  0.26026596  0.62502841  1
  O  O301  1  0.26691375  0.74969473  0.12582112  1
  O  O302  1  0.25982086  0.75920959  0.63290924  1
  O  O303  1  0.75480203  0.25584990  0.11834097  1
  O  O304  1  0.76145437  0.26132844  0.62878766  1
  O  O305  1  0.75079278  0.75843201  0.12038701  1
  O  O306  1  0.76595277  0.76153586  0.63416371  1
  O  O307  1  0.25072704  0.23115476  0.37498310  1
  O  O308  1  0.24445280  0.25159348  0.87974844  1
  O  O309  1  0.24500628  0.73629073  0.37122984  1
  O  O310  1  0.25224717  0.74442781  0.87107007  1
  O  O311  1  0.73809512  0.25227519  0.36755240  1
  O  O312  1  0.75308324  0.25196574  0.89084320  1
  O  O313  1  0.74999292  0.74215116  0.37930103  1
  O  O314  1  0.74470863  0.74652783  0.87996048  1
  O  O315  1  -0.00336882  0.11777970  0.00786299  1
  O  O316  1  0.00739111  0.10482481  0.50062030  1
  O  O317  1  0.00807641  0.61700631  0.00469637  1
  O  O318  1  0.00847212  0.61063015  0.49560349  1
  O  O319  1  0.51306157  0.13107173  0.00307019  1
  O  O320  1  0.50168991  0.12696201  0.50931552  1
  O  O321  1  0.50168883  0.61035072  -0.00124034  1
  O  O322  1  0.50877785  0.61957012  0.50870222  1
  O  O323  1  0.50037056  0.37789326  0.50308063  1
  O  O324  1  0.49861596  0.38077140  0.99213912  1
  O  O325  1  0.48382252  0.87525103  0.50512604  1
  O  O326  1  0.50264353  0.87195319  0.98804041  1
  O  O327  1  1.00428886  0.39059007  0.49206088  1
  O  O328  1  0.99786624  0.38866231  1.00029374  1
  O  O329  1  0.99387279  0.87423767  0.50104090  1
  O  O330  1  0.99094056  0.88072283  0.99686775  1
  O  O331  1  0.48387662  0.49617575  0.37699955  1
  O  O332  1  0.50028326  0.48879749  0.88114144  1
  O  O333  1  0.48756147  1.00509832  0.37883491  1
  O  O334  1  0.49547906  0.98512376  0.86751373  1
  O  O335  1  0.99034586  0.49399756  0.38146282  1
  O  O336  1  0.99402510  0.50072451  0.88511803  1
  O  O337  1  0.97163660  0.98804453  0.35612897  1
  O  O338  1  1.00700110  0.98900274  0.88743831  1
  O  O339  1  0.00746135  0.00520204  0.11368322  1
  O  O340  1  0.00760586  0.00028641  0.63174346  1
  O  O341  1  0.00245054  0.50614773  0.11988470  1
  O  O342  1  0.00852236  0.49483888  0.61906709  1
  O  O343  1  0.51429777  -0.00236296  0.12600951  1
  O  O344  1  0.50527995  0.00894457  0.61940259  1
  O  O345  1  0.50612728  0.49845532  0.11814319  1
  O  O346  1  0.50968843  0.50608012  0.62853493  1
  O  O347  1  0.24028700  0.37692304  0.24440483  1
  O  O348  1  0.24459198  0.38158288  0.74438078  1
  O  O349  1  0.23675779  0.87028718  0.24309498  1
  O  O350  1  0.24450331  0.88103653  0.74476008  1
  O  O351  1  0.74745546  0.38165250  0.24272243  1
  O  O352  1  0.74288855  0.37533878  0.74556602  1
  O  O353  1  0.74950440  0.86851001  0.23586272  1
  O  O354  1  0.75285715  0.88163576  0.74340628  1
  O  O355  1  0.25960372  0.12952898  0.25374562  1
  O  O356  1  0.25707450  0.11785010  0.74779747  1
  O  O357  1  0.26001884  0.62315463  0.25738833  1
  O  O358  1  0.25257748  0.62024362  0.75763030  1
  O  O359  1  0.75982761  0.12781271  0.24242400  1
  O  O360  1  0.75564726  0.11783752  0.75302440  1
  O  O361  1  0.75196515  0.62012059  0.26330963  1
  O  O362  1  0.76165053  0.62325610  0.75767920  1
  O  O363  1  0.36707176  0.12554074  0.35818209  1
  O  O364  1  0.37842613  0.11902181  0.86412935  1
  O  O365  1  0.36734524  0.61834679  0.37021228  1
  O  O366  1  0.36339216  0.62365895  0.87008933  1
  O  O367  1  0.87600514  0.11575057  0.35706572  1
  O  O368  1  0.87015244  0.12831783  0.86214456  1
  O  O369  1  0.86687536  0.61635137  0.37249592  1
  O  O370  1  0.87205407  0.61719577  0.87033667  1
  O  O371  1  0.12814250  0.38216894  0.13009299  1
  O  O372  1  0.13301733  0.38744845  0.63320091  1
  O  O373  1  0.12958835  0.88257686  0.13040088  1
  O  O374  1  0.13512055  0.86791901  0.63903925  1
  O  O375  1  0.62870535  0.38483863  0.12840947  1
  O  O376  1  0.63610516  0.37750374  0.63338162  1
  O  O377  1  0.63492811  0.88702127  0.12077406  1
  O  O378  1  0.63736498  0.87481046  0.62541705  1
  O  O379  1  0.11881311  0.26467040  0.24085523  1
  O  O380  1  0.11901027  0.25353222  0.75474521  1
  O  O381  1  0.11833896  0.76158286  0.24843401  1
  O  O382  1  0.11330655  0.75728095  0.75018543  1
  O  O383  1  0.61537657  0.24638594  0.25858112  1
  O  O384  1  0.61402407  0.25589474  0.74327001  1
  O  O385  1  0.60482987  0.74413788  0.24556337  1
  O  O386  1  0.61660454  0.75022926  0.75513692  1
  O  O387  1  0.37718396  0.24458029  0.24148291  1
  O  O388  1  0.38730077  0.24385739  0.74242434  1
  O  O389  1  0.38265822  0.74228496  0.24334103  1
  O  O390  1  0.38270368  0.74393565  0.74037786  1
  O  O391  1  0.87738300  0.23947525  0.23847582  1
  O  O392  1  0.88331391  0.24551756  0.75047595  1
  O  O393  1  0.88256466  0.74537119  0.24652189  1
  O  O394  1  0.88485006  0.74326565  0.74783962  1
  O  O395  1  0.37353418  0.50613918  0.48512083  1
  O  O396  1  0.38380903  0.49344254  0.99939260  1
  O  O397  1  0.37377775  0.98311285  0.50302813  1
  O  O398  1  0.37175881  1.00824440  0.98318380  1
  O  O399  1  0.88197235  0.50456844  0.49208372  1
  O  O400  1  0.88249136  0.50212048  0.99428315  1
  O  O401  1  0.87582288  0.98778649  0.49215575  1
  O  O402  1  0.88029393  0.99018905  1.00601607  1
  O  O403  1  0.11415481  0.00690315  0.00618831  1
  O  O404  1  0.12751451  -0.01015866  0.51405413  1
  O  O405  1  0.11757703  0.50677366  0.00632089  1
  O  O406  1  0.11843092  0.50858273  0.50976102  1
  O  O407  1  0.62792111  0.01382972  0.00643432  1
  O  O408  1  0.62678937  0.01606843  0.49988300  1
  O  O409  1  0.61665001  0.49908411  0.00788069  1
  O  O410  1  0.62540241  0.50437099  0.51341411  1
  O  O411  1  0.36903457  0.36955545  0.11951939  1
  O  O412  1  0.36468936  0.36594488  0.63185965  1
  O  O413  1  0.37058970  0.86263822  0.12271977  1
  O  O414  1  0.36713087  0.86652207  0.61788926  1
  O  O415  1  0.86859211  0.36731798  0.12495059  1
  O  O416  1  0.86294600  0.36630148  0.63015065  1
  O  O417  1  0.86198066  0.87258101  0.11919860  1
  O  O418  1  0.87221827  0.86898952  0.61499540  1
  O  O419  1  0.13055634  0.12071145  0.36641599  1
  O  O420  1  0.12727296  0.13789872  0.87502162  1
  O  O421  1  0.13258810  0.62339127  0.38431840  1
  O  O422  1  0.13735958  0.62671401  0.88341570  1
  O  O423  1  0.62578363  0.13348674  0.38762233  1
  O  O424  1  0.62543719  0.12085593  0.88818600  1
  O  O425  1  0.63069743  0.61518054  0.39056401  1
  O  O426  1  0.63143357  0.63080711  0.87531907  1
