# generated using pymatgen
data_V85Zn86O256
_symmetry_space_group_name_H-M   'P 1'
_cell_length_a   16.94222231
_cell_length_b   16.93259382
_cell_length_c   16.94384565
_cell_angle_alpha   90.09328884
_cell_angle_beta   89.99190935
_cell_angle_gamma   90.06449424
_symmetry_Int_Tables_number   1
_chemical_formula_structural   V85Zn86O256
_chemical_formula_sum   'V85 Zn86 O256'
_cell_volume   4860.76917861
_cell_formula_units_Z   1
loop_
 _symmetry_equiv_pos_site_id
 _symmetry_equiv_pos_as_xyz
  1  'x, y, z'
loop_
 _atom_site_type_symbol
 _atom_site_label
 _atom_site_symmetry_multiplicity
 _atom_site_fract_x
 _atom_site_fract_y
 _atom_site_fract_z
 _atom_site_occupancy
  V  V0  1  0.00196244  0.87262231  0.87775298  1
  V  V1  1  0.49462234  0.37898165  0.87139367  1
  V  V2  1  0.25481038  0.87793539  0.12671341  1
  V  V3  1  0.87614122  0.12673165  0.25123531  1
  V  V4  1  0.00602668  0.26519568  0.25214602  1
  V  V5  1  0.62323748  -0.00298830  0.64121932  1
  V  V6  1  0.61851740  0.37329248  0.74726636  1
  V  V7  1  0.62593837  0.75701815  0.86953033  1
  V  V8  1  0.62217872  0.24760098  0.37482380  1
  V  V9  1  0.62535532  0.74911875  0.38023801  1
  V  V10  1  0.49708847  0.88243031  0.89340681  1
  V  V11  1  0.62140742  0.37364119  0.24962288  1
  V  V12  1  0.37594607  0.74804971  0.62945161  1
  V  V13  1  0.74863133  0.88020907  0.63690338  1
  V  V14  1  0.86969817  0.87165445  0.50074084  1
  V  V15  1  0.12884306  0.00353299  0.62829201  1
  V  V16  1  -0.00123784  0.25971403  0.75762406  1
  V  V17  1  0.50436580  0.76575677  0.74759136  1
  V  V18  1  0.62189066  0.00210351  0.12281089  1
  V  V19  1  0.86836604  0.12097848  0.74798992  1
  V  V20  1  0.00287031  0.12370997  0.12600086  1
  V  V21  1  0.23728691  0.11689481  0.37614888  1
  V  V22  1  0.00167864  0.87258017  0.37528002  1
  V  V23  1  0.49707203  0.50654695  0.00123569  1
  V  V24  1  0.00593740  0.00174890  0.50156965  1
  V  V25  1  0.12852613  0.87567949  0.75569480  1
  V  V26  1  0.87566449  0.25119618  0.12576178  1
  V  V27  1  0.88147820  0.49907870  0.37184278  1
  V  V28  1  0.12665292  0.87911709  0.24950598  1
  V  V29  1  0.75405406  0.87387540  0.12639239  1
  V  V30  1  0.24602829  0.24914144  -0.00473134  1
  V  V31  1  0.12326378  0.63083886  -0.01251942  1
  V  V32  1  0.87597917  0.49735962  0.87478908  1
  V  V33  1  0.37683754  0.49496668  0.37652662  1
  V  V34  1  0.87417924  0.62437234  0.74960005  1
  V  V35  1  0.74974238  0.74874346  0.00116189  1
  V  V36  1  0.31848168  0.57104289  0.81570508  1
  V  V37  1  0.74863858  0.24984902  -0.00288885  1
  V  V38  1  0.75280698  0.50431680  0.25058288  1
  V  V39  1  0.37597088  0.00180980  0.38099723  1
  V  V40  1  0.62576843  0.87274422  0.25241768  1
  V  V41  1  0.24770320  0.48934960  0.24706556  1
  V  V42  1  0.00198395  0.12719678  0.62387591  1
  V  V43  1  0.75159455  -0.00027068  0.25078223  1
  V  V44  1  0.23694454  0.11631158  0.86642638  1
  V  V45  1  0.75505822  0.62868543  0.37699488  1
  V  V46  1  0.86773235  -0.00325218  0.87316917  1
  V  V47  1  0.75014573  0.12435099  0.37624538  1
  V  V48  1  0.87621772  0.00001813  0.37745864  1
  V  V49  1  0.12297941  0.50544133  0.12655675  1
  V  V50  1  0.25085100  0.75082538  -0.00941106  1
  V  V51  1  0.62625976  0.62346238  0.50093659  1
  V  V52  1  0.37631253  0.24280534  0.12246273  1
  V  V53  1  0.61802808  0.50927989  0.12668441  1
  V  V54  1  0.38019387  0.62116370  0.24160211  1
  V  V55  1  0.25300214  0.75261133  0.49993279  1
  V  V56  1  0.88302596  0.37451128  -0.00463745  1
  V  V57  1  0.36984948  0.11449807  0.24574381  1
  V  V58  1  0.74864132  0.24947611  0.49784222  1
  V  V59  1  0.12362757  0.27088852  0.37759953  1
  V  V60  1  0.37507566  0.37675571  -0.00010936  1
  V  V61  1  0.37692100  0.74580064  0.12173253  1
  V  V62  1  0.00219445  0.50884229  0.00468700  1
  V  V63  1  0.86764936  0.74817975  0.62028058  1
  V  V64  1  0.49909138  0.87759489  0.38040881  1
  V  V65  1  0.50050720  0.62385406  0.63303028  1
  V  V66  1  0.62041624  0.25002923  0.87053439  1
  V  V67  1  0.12730631  0.62509422  0.50058579  1
  V  V68  1  0.88058463  0.37444004  0.49537246  1
  V  V69  1  0.87721853  0.73401586  0.12908389  1
  V  V70  1  0.25427379  0.62517547  0.37285986  1
  V  V71  1  0.61977380  0.12356203  0.00207217  1
  V  V72  1  0.61899542  0.11214479  0.49863324  1
  V  V73  1  0.74721070  0.37574841  0.12422471  1
  V  V74  1  0.74674603  0.62556242  0.87418921  1
  V  V75  1  0.38272234  0.12004545  0.75647113  1
  V  V76  1  0.25163649  0.87929442  0.63023951  1
  V  V77  1  -0.00006393  0.62145084  0.62272396  1
  V  V78  1  0.00624138  0.74752195  0.75271990  1
  V  V79  1  0.36884887  0.36536030  0.50919581  1
  V  V80  1  0.14091875  0.49436885  0.62975345  1
  V  V81  1  0.74801468  0.37565727  0.62361982  1
  V  V82  1  -0.00065934  0.73761341  0.24710025  1
  V  V83  1  0.49822135  0.13064961  0.62469110  1
  V  V84  1  0.49735271  0.24195281  0.24644373  1
  Zn  Zn85  1  0.11618503  0.27220837  0.88178643  1
  Zn  Zn86  1  0.49662416  0.37077982  0.37679755  1
  Zn  Zn87  1  -0.00043451  -0.00088433  0.00128322  1
  Zn  Zn88  1  0.13843635  0.37681621  0.75045400  1
  Zn  Zn89  1  0.87509656  0.24979983  0.62429171  1
  Zn  Zn90  1  0.36452561  0.25057194  0.63505789  1
  Zn  Zn91  1  0.23452248  0.24581049  0.51090975  1
  Zn  Zn92  1  0.12514831  0.00022354  0.12576713  1
  Zn  Zn93  1  0.49845847  0.49567480  0.50332937  1
  Zn  Zn94  1  0.61774528  0.62837693  0.00177748  1
  Zn  Zn95  1  0.74727779  0.49891004  0.75031667  1
  Zn  Zn96  1  0.87855598  0.87397484  0.00185670  1
  Zn  Zn97  1  0.24329178  0.37294798  0.12261792  1
  Zn  Zn98  1  0.74550963  0.11837648  0.86808048  1
  Zn  Zn99  1  0.45792253  0.04813337  0.05263369  1
  Zn  Zn100  1  0.50120991  0.74387209  0.24627156  1
  Zn  Zn101  1  0.37060138  -0.00501612  0.88434794  1
  Zn  Zn102  1  0.62248755  0.49858183  0.62437254  1
  Zn  Zn103  1  0.38032712  0.88061955  0.50451793  1
  Zn  Zn104  1  0.11986530  0.12587584  -0.00089092  1
  Zn  Zn105  1  0.12751641  0.74954400  0.37211176  1
  Zn  Zn106  1  0.00443135  0.49446421  0.49500908  1
  Zn  Zn107  1  0.18813653  0.18949121  0.19108858  1
  Zn  Zn108  1  0.18577194  0.18862782  0.69297877  1
  Zn  Zn109  1  0.18909134  0.68516536  0.18362987  1
  Zn  Zn110  1  0.19007799  0.68492071  0.69136979  1
  Zn  Zn111  1  0.68761482  0.18598057  0.18622329  1
  Zn  Zn112  1  0.68565125  0.18918040  0.68502270  1
  Zn  Zn113  1  0.68868230  0.68638790  0.19158277  1
  Zn  Zn114  1  0.68731423  0.68952696  0.68759263  1
  Zn  Zn115  1  0.31020879  0.30780540  0.31581252  1
  Zn  Zn116  1  0.31230775  0.30306526  0.80840030  1
  Zn  Zn117  1  0.31423936  0.81179826  0.30915829  1
  Zn  Zn118  1  0.31820775  0.80990575  0.81167138  1
  Zn  Zn119  1  0.81225714  0.31517149  0.31174513  1
  Zn  Zn120  1  0.81066185  0.31066675  0.81042437  1
  Zn  Zn121  1  0.81539962  0.80852885  0.31268665  1
  Zn  Zn122  1  0.81703718  0.81065198  0.81114360  1
  Zn  Zn123  1  0.19427603  0.44013643  0.44328305  1
  Zn  Zn124  1  0.21615287  0.42953932  0.88648703  1
  Zn  Zn125  1  0.18878885  0.93799180  0.43814873  1
  Zn  Zn126  1  0.18356726  0.93813873  0.94454624  1
  Zn  Zn127  1  0.68700681  0.43830219  0.43605746  1
  Zn  Zn128  1  0.68509774  0.43761613  0.93750811  1
  Zn  Zn129  1  0.69020078  0.93426700  0.44137348  1
  Zn  Zn130  1  0.68618571  0.93548442  0.93813831  1
  Zn  Zn131  1  0.29733963  0.06068611  0.05748861  1
  Zn  Zn132  1  0.31102747  0.06671556  0.56081991  1
  Zn  Zn133  1  0.30528475  0.56178883  0.05086034  1
  Zn  Zn134  1  0.31736253  0.56372633  0.56324976  1
  Zn  Zn135  1  0.81339630  0.06250634  0.05901415  1
  Zn  Zn136  1  0.81169330  0.06033989  0.56420012  1
  Zn  Zn137  1  0.80804675  0.56136643  0.06090107  1
  Zn  Zn138  1  0.80995021  0.55963821  0.55833641  1
  Zn  Zn139  1  0.43510336  0.43181183  0.18513523  1
  Zn  Zn140  1  0.43137703  0.44089288  0.69062332  1
  Zn  Zn141  1  0.43698127  0.92982153  0.19423427  1
  Zn  Zn142  1  0.43706931  0.94497939  0.68991513  1
  Zn  Zn143  1  0.93542003  0.44241352  0.18325118  1
  Zn  Zn144  1  0.93366376  0.43895673  0.68276350  1
  Zn  Zn145  1  0.93909812  0.93388199  0.18962594  1
  Zn  Zn146  1  0.93844265  0.93713707  0.68951828  1
  Zn  Zn147  1  0.05935205  0.06156346  0.30771331  1
  Zn  Zn148  1  0.05592736  0.05954461  0.80896911  1
  Zn  Zn149  1  0.06673963  0.56045334  0.31304973  1
  Zn  Zn150  1  0.06229704  0.55378279  0.81551103  1
  Zn  Zn151  1  0.55919004  0.06079532  0.30942582  1
  Zn  Zn152  1  0.56111095  0.06168803  0.81427150  1
  Zn  Zn153  1  0.56066148  0.56220633  0.31346515  1
  Zn  Zn154  1  0.55818162  0.56249399  0.81176474  1
  Zn  Zn155  1  0.43667456  0.18396951  0.43728347  1
  Zn  Zn156  1  0.43605063  0.19035773  0.93175656  1
  Zn  Zn157  1  0.43977325  0.68705252  0.43905935  1
  Zn  Zn158  1  0.43720446  0.69277103  0.93679567  1
  Zn  Zn159  1  0.94305583  0.18977765  0.43781655  1
  Zn  Zn160  1  0.93434832  0.18404253  0.93573096  1
  Zn  Zn161  1  0.93889685  0.68671698  0.43566048  1
  Zn  Zn162  1  0.93733613  0.68771836  0.93811022  1
  Zn  Zn163  1  0.06454249  0.31782190  0.06392818  1
  Zn  Zn164  1  0.06255578  0.31298973  0.56565324  1
  Zn  Zn165  1  0.06459154  0.80875287  0.06521127  1
  Zn  Zn166  1  0.06279839  0.81211598  0.56493364  1
  Zn  Zn167  1  0.55954870  0.31365492  0.06235899  1
  Zn  Zn168  1  0.55745478  0.31000376  0.55953493  1
  Zn  Zn169  1  0.56430696  0.81074426  0.06502179  1
  Zn  Zn170  1  0.56602528  0.81451103  0.56103845  1
  O  O171  1  0.11524497  0.12398935  0.12899704  1
  O  O172  1  0.11575668  0.11244594  0.63294065  1
  O  O173  1  0.12959641  0.61324769  0.11479422  1
  O  O174  1  0.11926726  0.61942836  0.61618713  1
  O  O175  1  0.63077781  0.11384642  0.11696720  1
  O  O176  1  0.62090035  0.11581942  0.61904020  1
  O  O177  1  0.62755921  0.61322840  0.12487696  1
  O  O178  1  0.62163782  0.62492139  0.61647196  1
  O  O179  1  0.37451815  0.37945040  0.38257457  1
  O  O180  1  0.38983195  0.36012830  0.88708819  1
  O  O181  1  0.38197860  0.88287123  0.37262200  1
  O  O182  1  0.39372167  0.87499126  0.87090189  1
  O  O183  1  0.86694301  0.38576962  0.38371293  1
  O  O184  1  0.86527075  0.38454159  0.88393525  1
  O  O185  1  0.87948805  0.87921894  0.38271944  1
  O  O186  1  0.88345751  0.87962151  0.87541990  1
  O  O187  1  0.25547118  0.00951546  0.37411359  1
  O  O188  1  0.24854952  0.01381794  0.88316938  1
  O  O189  1  0.26014279  0.50387318  0.36809969  1
  O  O190  1  0.27428581  0.52360868  0.89737152  1
  O  O191  1  0.75652414  0.00432693  0.37156498  1
  O  O192  1  0.76266687  -0.00237732  0.87842214  1
  O  O193  1  0.75592561  0.50664556  0.36782890  1
  O  O194  1  0.75754845  0.50795214  0.87710252  1
  O  O195  1  0.24419399  0.49849914  0.13171672  1
  O  O196  1  0.23925367  0.50361369  0.62208394  1
  O  O197  1  0.24643891  0.98197075  0.12569416  1
  O  O198  1  0.23996928  0.99212788  0.61768697  1
  O  O199  1  0.74222791  0.49569899  0.13231674  1
  O  O200  1  0.74604784  0.48680795  0.62422495  1
  O  O201  1  0.74564035  0.99175971  0.12963263  1
  O  O202  1  0.73682023  0.99306439  0.62049229  1
  O  O203  1  -0.00610964  0.36309540  0.24638300  1
  O  O204  1  -0.00864918  0.35956063  0.74242079  1
  O  O205  1  0.00588753  0.86677463  0.25800113  1
  O  O206  1  0.00685920  0.86615384  0.75519573  1
  O  O207  1  0.50283764  0.36082276  0.25178096  1
  O  O208  1  0.50614604  0.37817917  0.75887553  1
  O  O209  1  0.50950815  0.86920050  0.26160155  1
  O  O210  1  0.50322922  0.86747626  0.74881039  1
  O  O211  1  0.49095724  0.13530293  0.25079236  1
  O  O212  1  0.49042376  0.12112752  0.74485986  1
  O  O213  1  0.48483532  0.62312014  0.25176038  1
  O  O214  1  0.51201839  0.63861409  0.73607030  1
  O  O215  1  0.99351380  0.13340821  0.24167443  1
  O  O216  1  0.98985322  0.13144163  0.74018319  1
  O  O217  1  1.00406821  0.63903492  0.25438630  1
  O  O218  1  0.99542456  0.63000383  0.74338939  1
  O  O219  1  0.36931479  0.25143858  0.00684265  1
  O  O220  1  0.37527012  0.25966717  0.50058396  1
  O  O221  1  0.36023915  0.74429427  0.00720070  1
  O  O222  1  0.36648321  0.75337088  0.50733847  1
  O  O223  1  0.86812777  0.25711952  0.00210790  1
  O  O224  1  0.86683827  0.25648670  0.49697528  1
  O  O225  1  0.86724107  0.75132873  0.00978097  1
  O  O226  1  0.88299157  0.75880833  0.50910165  1
  O  O227  1  0.11705220  0.25377154  0.48173200  1
  O  O228  1  0.13134229  0.24939047  0.99850818  1
  O  O229  1  0.13666059  0.74325482  0.50209439  1
  O  O230  1  0.13245497  0.73861103  1.00441760  1
  O  O231  1  0.63023068  0.24126264  0.49280823  1
  O  O232  1  0.63235524  0.24587158  0.99650228  1
  O  O233  1  0.62428369  0.74332232  0.48733961  1
  O  O234  1  0.63279260  0.74715926  0.99473622  1
  O  O235  1  0.48586488  0.25227870  0.13069802  1
  O  O236  1  0.49882508  0.23344309  0.62430907  1
  O  O237  1  0.48305588  0.75608364  0.12540183  1
  O  O238  1  0.49645474  0.74902623  0.62945569  1
  O  O239  1  0.99629052  0.24733076  0.13589188  1
  O  O240  1  0.99748789  0.24109571  0.63140913  1
  O  O241  1  0.99076885  0.75417466  0.13824412  1
  O  O242  1  0.99272220  0.73923377  0.62953494  1
  O  O243  1  0.01131055  0.24675354  0.36198177  1
  O  O244  1  -0.00258098  0.24547883  0.86128005  1
  O  O245  1  0.00175707  0.75439276  0.36494302  1
  O  O246  1  -0.00715730  0.75888212  0.86327221  1
  O  O247  1  0.50661557  0.24727554  0.36585025  1
  O  O248  1  0.51483031  0.25968685  0.88125077  1
  O  O249  1  0.50854359  0.75427421  0.37153032  1
  O  O250  1  0.50825729  0.76039544  0.86820890  1
  O  O251  1  0.25402705  0.12905842  0.47962827  1
  O  O252  1  0.24341761  0.13604732  0.98971797  1
  O  O253  1  0.24604338  0.63251511  0.49587435  1
  O  O254  1  0.23682922  0.64086503  1.00167490  1
  O  O255  1  0.74421333  0.13001350  0.49439200  1
  O  O256  1  0.74364442  0.13767263  0.99841483  1
  O  O257  1  0.73645496  0.62076143  0.49137551  1
  O  O258  1  0.74716322  0.63612555  0.99414350  1
  O  O259  1  0.26116397  0.36191114  -0.00786646  1
  O  O260  1  0.26469562  0.36719640  0.49619066  1
  O  O261  1  0.23942874  0.86163418  0.01616862  1
  O  O262  1  0.25017243  0.86710091  0.51088346  1
  O  O263  1  0.75340381  0.36538502  0.00437447  1
  O  O264  1  0.75357013  0.36869378  0.50461264  1
  O  O265  1  0.75097164  0.86324224  0.00869409  1
  O  O266  1  0.76532617  0.87790426  0.50813772  1
  O  O267  1  0.13546860  0.50618830  0.24148373  1
  O  O268  1  0.11756103  0.50359282  0.73068053  1
  O  O269  1  0.11780248  0.98319042  0.24748045  1
  O  O270  1  0.11798860  0.98799288  0.73890646  1
  O  O271  1  0.62842928  0.49445111  0.24473473  1
  O  O272  1  0.62698384  0.48674790  0.74903435  1
  O  O273  1  0.63389026  0.99499615  0.24453875  1
  O  O274  1  0.63026261  1.00495691  0.73937492  1
  O  O275  1  0.37905938  0.01054936  0.25626853  1
  O  O276  1  0.37397489  0.01318424  0.75829452  1
  O  O277  1  0.36910321  0.50284420  0.25385320  1
  O  O278  1  0.38050879  0.51041427  0.76143800  1
  O  O279  1  0.87016897  0.00475641  0.25702472  1
  O  O280  1  0.88038382  0.00905754  0.75791541  1
  O  O281  1  0.86357842  0.49434703  0.25698327  1
  O  O282  1  0.87282339  0.50548924  0.75823449  1
  O  O283  1  0.12812006  0.36957105  0.37523997  1
  O  O284  1  0.11494555  0.38566409  0.86717788  1
  O  O285  1  0.12082878  0.87128513  0.36927455  1
  O  O286  1  0.11820041  0.88070412  0.86328167  1
  O  O287  1  0.62335467  0.36643448  0.36722009  1
  O  O288  1  0.61932035  0.36880919  0.86785270  1
  O  O289  1  0.62190523  0.86805700  0.37330705  1
  O  O290  1  0.61593463  0.86489051  0.88044769  1
  O  O291  1  0.37175551  0.12701026  0.13015223  1
  O  O292  1  0.38331579  0.11866580  0.63500255  1
  O  O293  1  0.36624047  0.63148546  0.13166246  1
  O  O294  1  0.38757526  0.63695276  0.61727105  1
  O  O295  1  0.87828967  0.13321017  0.13136941  1
  O  O296  1  0.88145567  0.12477991  0.63112757  1
  O  O297  1  0.86678935  0.63488826  0.12659856  1
  O  O298  1  0.87886053  0.63044894  0.62573423  1
  O  O299  1  0.25755892  0.25057603  0.11712553  1
  O  O300  1  0.25080862  0.24235026  0.62204779  1
  O  O301  1  0.25812580  0.75643170  0.11926065  1
  O  O302  1  0.25810961  0.75483197  0.61991646  1
  O  O303  1  0.75620505  0.25466691  0.11871931  1
  O  O304  1  0.75044534  0.25952579  0.61637032  1
  O  O305  1  0.75430237  0.75477235  0.12124002  1
  O  O306  1  0.76243551  0.75632918  0.62647679  1
  O  O307  1  0.23180637  0.24285037  0.37387014  1
  O  O308  1  0.24321195  0.23544578  0.88166331  1
  O  O309  1  0.25075249  0.74552366  0.38409585  1
  O  O310  1  0.25094670  0.76331293  0.89215986  1
  O  O311  1  0.74212966  0.24304233  0.37639214  1
  O  O312  1  0.73917874  0.24969355  0.88268689  1
  O  O313  1  0.74282361  0.73837529  0.36902725  1
  O  O314  1  0.74539249  0.74840050  0.88188442  1
  O  O315  1  -0.00300056  0.13017684  0.01572829  1
  O  O316  1  -0.00610083  0.11640238  0.51356421  1
  O  O317  1  0.00978768  0.62322014  0.00040284  1
  O  O318  1  0.01102707  0.62570949  0.50562585  1
  O  O319  1  0.51483120  0.13259769  -0.00041883  1
  O  O320  1  0.50862900  0.12548727  0.50778852  1
  O  O321  1  0.49815991  0.61107073  -0.00566847  1
  O  O322  1  0.51159133  0.62545964  0.50871535  1
  O  O323  1  0.48773583  0.37550012  0.49561470  1
  O  O324  1  0.49454930  0.38234325  0.99398538  1
  O  O325  1  0.49878904  0.87005640  0.48535233  1
  O  O326  1  0.50106099  0.87354239  0.99220766  1
  O  O327  1  0.98429764  0.37546594  0.50476046  1
  O  O328  1  0.98604852  0.38318096  1.00426481  1
  O  O329  1  0.99292069  0.88027205  0.49584837  1
  O  O330  1  1.00071132  0.87033118  0.98888670  1
  O  O331  1  0.48604171  0.49711552  0.37451262  1
  O  O332  1  0.50804673  0.48820172  0.88610051  1
  O  O333  1  0.49043156  0.99040965  0.36936096  1
  O  O334  1  0.50510127  0.98449811  0.87666276  1
  O  O335  1  0.98585566  0.50653531  0.37476724  1
  O  O336  1  0.98276805  0.50771892  0.88792281  1
  O  O337  1  0.99534668  0.99568399  0.38296325  1
  O  O338  1  0.98976813  0.98873716  0.87537643  1
  O  O339  1  -0.00359949  0.01079641  0.12615405  1
  O  O340  1  0.00610686  0.00440325  0.61898523  1
  O  O341  1  0.00316952  0.50178546  0.11345813  1
  O  O342  1  -0.00253394  0.51371697  0.61943566  1
  O  O343  1  0.51647073  -0.00835678  0.13280466  1
  O  O344  1  0.51641700  0.00687774  0.62814721  1
  O  O345  1  0.50926376  0.49163957  0.11744556  1
  O  O346  1  0.50096879  0.51082832  0.62414568  1
  O  O347  1  0.25612474  0.38639142  0.24797920  1
  O  O348  1  0.24977752  0.38775268  0.77923736  1
  O  O349  1  0.23967032  0.86496215  0.23798254  1
  O  O350  1  0.24242766  0.86691892  0.73924075  1
  O  O351  1  0.74202124  0.38356149  0.24500737  1
  O  O352  1  0.74308779  0.37511113  0.73936807  1
  O  O353  1  0.74622711  0.87847157  0.24507367  1
  O  O354  1  0.75699632  0.87310419  0.73607531  1
  O  O355  1  0.25965571  0.13026120  0.26254717  1
  O  O356  1  0.25523570  0.12274391  0.76422529  1
  O  O357  1  0.25934465  0.61736316  0.25647635  1
  O  O358  1  0.24932234  0.61851835  0.75629516  1
  O  O359  1  0.75627406  0.12046959  0.25663066  1
  O  O360  1  0.76382708  0.13186760  0.74858092  1
  O  O361  1  0.74434979  0.61180570  0.26046732  1
  O  O362  1  0.75612872  0.62312682  0.75559889  1
  O  O363  1  0.36860918  0.11822838  0.36666982  1
  O  O364  1  0.36823941  0.12255480  0.86784485  1
  O  O365  1  0.37131998  0.61596796  0.37090548  1
  O  O366  1  0.37717843  0.64290931  0.85720607  1
  O  O367  1  0.87218160  0.11959337  0.37116563  1
  O  O368  1  0.87154432  0.11498866  0.86698711  1
  O  O369  1  0.86189540  0.61748747  0.38307562  1
  O  O370  1  0.86578867  0.62057387  0.87072525  1
  O  O371  1  0.12829793  0.39624830  0.11571013  1
  O  O372  1  0.12243035  0.39052659  0.62684269  1
  O  O373  1  0.13283984  0.87276049  0.13411514  1
  O  O374  1  0.13145539  0.88102073  0.63274777  1
  O  O375  1  0.62990660  0.38075937  0.13071502  1
  O  O376  1  0.62801966  0.37283823  0.63081212  1
  O  O377  1  0.63699405  0.87828531  0.13047770  1
  O  O378  1  0.63310524  0.88837355  0.61976408  1
  O  O379  1  0.11324214  0.25239123  0.25855068  1
  O  O380  1  0.10756536  0.25250681  0.75224562  1
  O  O381  1  0.11417084  0.75516102  0.24917522  1
  O  O382  1  0.11270812  0.75776202  0.74057573  1
  O  O383  1  0.61646842  0.25075151  0.25253311  1
  O  O384  1  0.62935644  0.26110644  0.75817930  1
  O  O385  1  0.62356976  0.75398013  0.25998919  1
  O  O386  1  0.62057457  0.75137415  0.75956362  1
  O  O387  1  0.37913406  0.24074992  0.24345905  1
  O  O388  1  0.37413872  0.22843704  0.75008494  1
  O  O389  1  0.37507546  0.73791905  0.24207469  1
  O  O390  1  0.38615913  0.75595420  0.73531655  1
  O  O391  1  0.88403830  0.24664334  0.24791040  1
  O  O392  1  0.88277654  0.24186198  0.74823180  1
  O  O393  1  0.88862801  0.75194168  0.24377977  1
  O  O394  1  0.88524546  0.74364664  0.74020052  1
  O  O395  1  0.37414853  0.48904712  0.49229995  1
  O  O396  1  0.38417686  0.48594784  1.01217360  1
  O  O397  1  0.37228925  0.99905300  0.48539279  1
  O  O398  1  0.37422492  1.00306019  0.99931678  1
  O  O399  1  0.87469039  0.49173760  0.48992830  1
  O  O400  1  0.87718369  0.49405159  0.99566125  1
  O  O401  1  0.88552833  0.99250115  0.49774406  1
  O  O402  1  0.87902693  0.99572770  0.99125480  1
  O  O403  1  0.11667502  0.00630299  0.00718014  1
  O  O404  1  0.11190985  -0.00744194  0.50877833  1
  O  O405  1  0.11371517  0.51536353  0.00445153  1
  O  O406  1  0.12415372  0.50668824  0.50928566  1
  O  O407  1  0.63281953  0.01054453  0.00943616  1
  O  O408  1  0.62852483  0.01043919  0.50229411  1
  O  O409  1  0.61759237  0.50122601  0.00996305  1
  O  O410  1  0.61970300  0.50809000  0.49980841  1
  O  O411  1  0.37036352  0.36301596  0.11462807  1
  O  O412  1  0.38043046  0.37170357  0.61275264  1
  O  O413  1  0.36085569  0.86593398  0.13457297  1
  O  O414  1  0.36757073  0.87306762  0.62395714  1
  O  O415  1  0.86664618  0.37044129  0.11599978  1
  O  O416  1  0.86392622  0.37354962  0.61488724  1
  O  O417  1  0.86343252  0.86886824  0.12639982  1
  O  O418  1  0.87160091  0.86909782  0.61945439  1
  O  O419  1  0.13594747  0.12246624  0.36814771  1
  O  O420  1  0.13080772  0.12404435  0.87231821  1
  O  O421  1  0.13293776  0.62499724  0.38753476  1
  O  O422  1  0.11979066  0.62352800  0.88815361  1
  O  O423  1  0.62807015  0.12699912  0.38084993  1
  O  O424  1  0.62736436  0.13183696  0.88080671  1
  O  O425  1  0.62993089  0.63054608  0.38019372  1
  O  O426  1  0.63117241  0.63538370  0.87596962  1
