# generated using pymatgen
data_V85Zn86O256
_symmetry_space_group_name_H-M   'P 1'
_cell_length_a   16.96059718
_cell_length_b   16.97415825
_cell_length_c   16.96213106
_cell_angle_alpha   89.96706210
_cell_angle_beta   90.12358634
_cell_angle_gamma   90.00155665
_symmetry_Int_Tables_number   1
_chemical_formula_structural   V85Zn86O256
_chemical_formula_sum   'V85 Zn86 O256'
_cell_volume   4883.24730096
_cell_formula_units_Z   1
loop_
 _symmetry_equiv_pos_site_id
 _symmetry_equiv_pos_as_xyz
  1  'x, y, z'
loop_
 _atom_site_type_symbol
 _atom_site_label
 _atom_site_symmetry_multiplicity
 _atom_site_fract_x
 _atom_site_fract_y
 _atom_site_fract_z
 _atom_site_occupancy
  V  V0  1  -0.00150695  0.00133051  -0.00100130  1
  V  V1  1  0.24825536  0.49492068  0.74096532  1
  V  V2  1  0.25037512  0.37049245  0.13864568  1
  V  V3  1  0.12879608  0.61704929  0.51526018  1
  V  V4  1  0.62841694  0.12604803  0.00445130  1
  V  V5  1  0.12575552  0.25548100  0.87772617  1
  V  V6  1  0.62993042  0.62795200  0.00096059  1
  V  V7  1  0.49532810  0.62865506  0.12243066  1
  V  V8  1  0.62438572  -0.00170180  0.61953225  1
  V  V9  1  0.37712526  -0.00012577  0.87348095  1
  V  V10  1  0.87088911  0.24764754  0.11876223  1
  V  V11  1  0.38597365  0.63036139  0.75363750  1
  V  V12  1  0.36397172  -0.00391834  0.36143199  1
  V  V13  1  0.25231247  0.62712341  0.87921552  1
  V  V14  1  0.75055402  0.37346109  0.12014523  1
  V  V15  1  0.25372898  0.24940736  0.00794503  1
  V  V16  1  0.25411123  0.85739049  0.11942698  1
  V  V17  1  0.25409876  0.12493586  0.87841153  1
  V  V18  1  0.12572010  0.49427411  0.12812635  1
  V  V19  1  0.37292892  0.63009822  0.24545450  1
  V  V20  1  0.12992066  0.63277545  0.00340696  1
  V  V21  1  0.47691657  0.27879698  0.71822615  1
  V  V22  1  0.50349112  0.87811916  0.36916924  1
  V  V23  1  0.62336821  0.74547455  0.37294511  1
  V  V24  1  0.00158955  0.50145510  -0.00206188  1
  V  V25  1  0.49228247  0.00010444  0.49968019  1
  V  V26  1  0.24586203  0.49870885  0.25365143  1
  V  V27  1  0.87364352  0.75297319  0.12478668  1
  V  V28  1  -0.00159091  0.25154137  0.75008432  1
  V  V29  1  0.36854027  0.13289513  0.24368469  1
  V  V30  1  0.75117214  0.38761887  0.62564931  1
  V  V31  1  0.87226256  0.88021234  -0.00000840  1
  V  V32  1  0.75049385  0.88008085  0.61012815  1
  V  V33  1  0.50108388  0.36969672  0.88254695  1
  V  V34  1  0.24890211  0.62545980  0.37753520  1
  V  V35  1  0.87503099  0.12151613  0.24703779  1
  V  V36  1  0.37297335  0.49580690  0.38493593  1
  V  V37  1  0.12655387  0.26147646  0.37302265  1
  V  V38  1  0.50196242  0.12203818  0.63417801  1
  V  V39  1  0.76349371  0.62563889  0.37312639  1
  V  V40  1  0.75347692  0.24960490  0.50217749  1
  V  V41  1  0.25293033  0.75257393  0.50366564  1
  V  V42  1  0.24548191  0.12580599  0.37322669  1
  V  V43  1  0.87713064  0.38152954  0.49107313  1
  V  V44  1  0.00041621  0.62577283  0.12688960  1
  V  V45  1  0.24752880  -0.00266369  0.74934732  1
  V  V46  1  0.72637972  0.87925532  0.12914212  1
  V  V47  1  0.75322026  0.75341142  0.49388727  1
  V  V48  1  0.87299852  0.51734983  0.86853068  1
  V  V49  1  0.37474484  0.37287034  0.01113792  1
  V  V50  1  0.88779611  -0.00430317  0.38078578  1
  V  V51  1  0.87263902  0.37252482  -0.00559693  1
  V  V52  1  0.49838282  0.75375422  0.24726237  1
  V  V53  1  0.63135262  0.38162831  0.74929849  1
  V  V54  1  -0.00125137  0.75460154  0.25725728  1
  V  V55  1  0.00280723  0.25515501  0.24790676  1
  V  V56  1  0.61943535  0.37707017  0.24788998  1
  V  V57  1  0.76063186  0.50186512  0.24907657  1
  V  V58  1  0.37433541  0.87387176  0.49972556  1
  V  V59  1  0.62739096  0.50037474  0.12355070  1
  V  V60  1  0.62767341  0.24996865  0.87462845  1
  V  V61  1  0.50718140  0.62192349  0.60746529  1
  V  V62  1  -0.00497964  0.11515958  0.61750468  1
  V  V63  1  0.62398178  0.12492910  0.49978182  1
  V  V64  1  0.50188547  0.86358898  0.86788686  1
  V  V65  1  0.24900760  0.87090725  0.63063164  1
  V  V66  1  -0.00260728  0.87289406  0.87303198  1
  V  V67  1  0.68228820  0.69490446  0.82428608  1
  V  V68  1  0.50191016  0.00069781  0.00140141  1
  V  V69  1  0.87547294  0.12081835  0.75363513  1
  V  V70  1  0.75116031  0.12388172  0.37178305  1
  V  V71  1  0.53847531  0.43339881  0.42911780  1
  V  V72  1  0.12143981  0.74818915  0.86958985  1
  V  V73  1  0.12196570  0.75831976  0.37943990  1
  V  V74  1  0.13540726  0.00051863  0.12478031  1
  V  V75  1  0.33313822  0.16856272  0.69304489  1
  V  V76  1  0.74773493  0.00382073  0.75323904  1
  V  V77  1  0.75257613  0.12649836  0.87915156  1
  V  V78  1  0.50175447  0.49851042  0.00300045  1
  V  V79  1  0.12921804  0.87779682  0.24937662  1
  V  V80  1  0.62082181  0.87701109  0.75027798  1
  V  V81  1  0.74407948  0.75186398  0.00202843  1
  V  V82  1  0.00650169  0.49913889  0.50008410  1
  V  V83  1  0.50065582  0.12770277  0.12708850  1
  V  V84  1  0.61603906  0.25068423  0.37284694  1
  Zn  Zn85  1  0.38858626  0.75516229  0.63608540  1
  Zn  Zn86  1  0.73498283  -0.00103377  0.24329379  1
  Zn  Zn87  1  0.12462128  0.37685609  0.73090265  1
  Zn  Zn88  1  0.38213792  0.34873065  0.54443183  1
  Zn  Zn89  1  -0.00102084  0.38249059  0.36826317  1
  Zn  Zn90  1  0.36743004  0.86086944  -0.00181083  1
  Zn  Zn91  1  0.87279976  0.25105987  0.62640673  1
  Zn  Zn92  1  0.89960116  0.88020428  0.50420463  1
  Zn  Zn93  1  0.37280946  0.49887367  0.87905024  1
  Zn  Zn94  1  0.62754098  0.60488603  0.49365386  1
  Zn  Zn95  1  0.12480097  0.12551361  0.00270659  1
  Zn  Zn96  1  0.88115109  0.62360496  0.25352189  1
  Zn  Zn97  1  0.12042546  0.87390563  0.75337881  1
  Zn  Zn98  1  0.00195732  0.12429826  0.12229511  1
  Zn  Zn99  1  0.75542912  0.51660407  0.74871245  1
  Zn  Zn100  1  -0.01538941  0.62030273  0.64227921  1
  Zn  Zn101  1  0.49050882  0.25826392  0.24671007  1
  Zn  Zn102  1  0.11393669  0.12067341  0.49015257  1
  Zn  Zn103  1  0.00079612  0.37738801  0.87042589  1
  Zn  Zn104  1  0.24819568  0.24665581  0.52500245  1
  Zn  Zn105  1  0.87518490  0.74435427  0.64323496  1
  Zn  Zn106  1  0.11283754  -0.00978845  0.61815068  1
  Zn  Zn107  1  0.18716124  0.18639608  0.19127700  1
  Zn  Zn108  1  0.16661356  0.18406891  0.68955132  1
  Zn  Zn109  1  0.18422300  0.68670591  0.19056161  1
  Zn  Zn110  1  0.19134807  0.68507107  0.69385225  1
  Zn  Zn111  1  0.68739371  0.18888106  0.18613738  1
  Zn  Zn112  1  0.68267025  0.19430914  0.68952724  1
  Zn  Zn113  1  0.68526694  0.69042825  0.18897586  1
  Zn  Zn114  1  0.68705361  0.68801595  0.66177675  1
  Zn  Zn115  1  0.30697809  0.32282554  0.39759005  1
  Zn  Zn116  1  0.31254235  0.31660236  0.82038299  1
  Zn  Zn117  1  0.30915936  0.81309500  0.30911640  1
  Zn  Zn118  1  0.31073830  0.80964631  0.81909257  1
  Zn  Zn119  1  0.81110787  0.30936543  0.30838336  1
  Zn  Zn120  1  0.81304375  0.31092186  0.81336868  1
  Zn  Zn121  1  0.81113089  0.81600908  0.30951929  1
  Zn  Zn122  1  0.81053802  0.83000528  0.81418358  1
  Zn  Zn123  1  0.19379053  0.42992551  0.55790574  1
  Zn  Zn124  1  0.19043127  0.43923886  0.93829929  1
  Zn  Zn125  1  0.07216892  0.94032153  0.43841608  1
  Zn  Zn126  1  0.18654048  0.93508554  0.94201817  1
  Zn  Zn127  1  0.70749366  0.43554213  0.42916134  1
  Zn  Zn128  1  0.69308752  0.44058944  0.93479303  1
  Zn  Zn129  1  0.67469749  0.95166083  0.40861738  1
  Zn  Zn130  1  0.68265857  0.94008443  0.93795851  1
  Zn  Zn131  1  0.31501584  0.05708112  0.06190903  1
  Zn  Zn132  1  0.25642045  0.01422960  0.51393114  1
  Zn  Zn133  1  0.31247507  0.56135721  0.06424303  1
  Zn  Zn134  1  0.32184103  0.56779074  0.56617281  1
  Zn  Zn135  1  0.80832881  0.05847682  0.06372767  1
  Zn  Zn136  1  0.81543585  0.06131394  0.55991178  1
  Zn  Zn137  1  0.81498639  0.56494018  0.05907862  1
  Zn  Zn138  1  0.82059389  0.56573983  0.55801945  1
  Zn  Zn139  1  0.43411547  0.44251291  0.19152040  1
  Zn  Zn140  1  0.43914273  0.45092893  0.69410875  1
  Zn  Zn141  1  0.43721307  0.93862768  0.18256920  1
  Zn  Zn142  1  0.43240789  0.94120957  0.68900710  1
  Zn  Zn143  1  0.93795161  0.43470017  0.18341711  1
  Zn  Zn144  1  0.93708629  0.43924358  0.68263044  1
  Zn  Zn145  1  0.94009077  0.93744406  0.18605275  1
  Zn  Zn146  1  0.92902115  0.93346518  0.69221234  1
  Zn  Zn147  1  0.06298934  0.06657454  0.30150060  1
  Zn  Zn148  1  0.06418402  0.06187509  0.81700507  1
  Zn  Zn149  1  0.06278224  0.56447529  0.32036608  1
  Zn  Zn150  1  0.06825739  0.55736706  0.81326605  1
  Zn  Zn151  1  0.55843484  0.06226554  0.30852410  1
  Zn  Zn152  1  0.56200078  0.06436129  0.81184605  1
  Zn  Zn153  1  0.56783864  0.56946319  0.30581174  1
  Zn  Zn154  1  0.55987879  0.55315022  0.81320972  1
  Zn  Zn155  1  0.43480950  0.18070100  0.43757671  1
  Zn  Zn156  1  0.43605193  0.18837019  0.93865428  1
  Zn  Zn157  1  0.43489321  0.68726207  0.43463367  1
  Zn  Zn158  1  0.44015796  0.68993185  0.93604693  1
  Zn  Zn159  1  0.93649769  0.19165476  0.43318176  1
  Zn  Zn160  1  0.93742812  0.18623698  0.93726148  1
  Zn  Zn161  1  0.95589831  0.70884295  0.47231659  1
  Zn  Zn162  1  0.93998835  0.69354646  0.80817540  1
  Zn  Zn163  1  0.06230578  0.31401275  0.06350251  1
  Zn  Zn164  1  0.05894615  0.30512716  0.55852076  1
  Zn  Zn165  1  0.06055920  0.81325845  0.06250793  1
  Zn  Zn166  1  0.06437007  0.80398504  0.57258375  1
  Zn  Zn167  1  0.56479737  0.30516500  0.06436936  1
  Zn  Zn168  1  0.57261056  0.31526890  0.56352111  1
  Zn  Zn169  1  0.53738124  0.80215952  0.04725755  1
  Zn  Zn170  1  0.56279342  0.80689116  0.55968568  1
  O  O171  1  0.12394201  0.11450049  0.12528664  1
  O  O172  1  0.10513902  0.11736382  0.62305985  1
  O  O173  1  0.12339045  0.61483643  0.12033938  1
  O  O174  1  0.12699942  0.63195604  0.61521238  1
  O  O175  1  0.61853732  0.12881835  0.11600047  1
  O  O176  1  0.62072662  0.11901719  0.61873977  1
  O  O177  1  0.61991350  0.62066145  0.11745094  1
  O  O178  1  0.61423303  0.62030852  0.61096554  1
  O  O179  1  0.38483240  0.39734064  0.36320083  1
  O  O180  1  0.38442812  0.37525921  0.89105395  1
  O  O181  1  0.37760970  0.88253776  0.37557868  1
  O  O182  1  0.38325025  0.88113768  0.87686185  1
  O  O183  1  0.87273235  0.36650386  0.38719899  1
  O  O184  1  0.87764129  0.37359064  0.88659199  1
  O  O185  1  0.87121660  0.89583836  0.36930426  1
  O  O186  1  0.88104706  0.87679209  0.89273916  1
  O  O187  1  0.26260397  0.00692514  0.37623899  1
  O  O188  1  0.25379917  0.00611429  0.87166153  1
  O  O189  1  0.26117324  0.50900080  0.36749236  1
  O  O190  1  0.25261561  0.51149752  0.87096377  1
  O  O191  1  0.76837165  0.01774308  0.37904546  1
  O  O192  1  0.74090542  0.01029589  0.86076004  1
  O  O193  1  0.75105922  0.51213277  0.36075480  1
  O  O194  1  0.76860946  0.50196038  0.87423721  1
  O  O195  1  0.24341132  0.49441714  0.13313957  1
  O  O196  1  0.25713409  0.50159165  0.63667988  1
  O  O197  1  0.23806922  0.99124642  0.11888709  1
  O  O198  1  0.25086687  0.98365555  0.63300116  1
  O  O199  1  0.74546895  0.49586603  0.12870607  1
  O  O200  1  0.75381907  0.49016765  0.62801515  1
  O  O201  1  0.74413992  0.98490575  0.12566746  1
  O  O202  1  0.74371745  0.99783463  0.62931101  1
  O  O203  1  -0.01079812  0.36021094  0.25186599  1
  O  O204  1  0.00125045  0.36499993  0.74958334  1
  O  O205  1  0.01110284  0.86098242  0.24264807  1
  O  O206  1  0.00167288  0.89031073  0.76947133  1
  O  O207  1  0.51390371  0.37473251  0.24024094  1
  O  O208  1  0.51005759  0.37861305  0.76452482  1
  O  O209  1  0.49047052  0.86687371  0.25763700  1
  O  O210  1  0.50852735  0.88306818  0.75469813  1
  O  O211  1  0.49107839  0.12374799  0.24238788  1
  O  O212  1  0.50273560  0.13196032  0.73662776  1
  O  O213  1  0.49089369  0.63163510  0.24524971  1
  O  O214  1  0.48754508  0.62151449  0.75597192  1
  O  O215  1  0.98974249  0.13547243  0.24304129  1
  O  O216  1  0.99152212  0.12810747  0.74839555  1
  O  O217  1  1.00198013  0.63549261  0.24534017  1
  O  O218  1  1.01122093  0.62834383  0.75235283  1
  O  O219  1  0.36199931  0.25706220  -0.00090699  1
  O  O220  1  0.36354628  0.25320830  0.47936148  1
  O  O221  1  0.42789723  0.76741204  0.01373243  1
  O  O222  1  0.36430310  0.75419571  0.49919882  1
  O  O223  1  0.88097927  0.25860565  0.00798269  1
  O  O224  1  0.86354807  0.25347004  0.50042098  1
  O  O225  1  0.85589870  0.75938453  0.01040388  1
  O  O226  1  0.85594948  0.76775994  0.47971934  1
  O  O227  1  0.12725770  0.24016214  0.48373312  1
  O  O228  1  0.13429046  0.24906033  0.99570937  1
  O  O229  1  0.13913223  0.74255098  0.49397213  1
  O  O230  1  0.11863661  0.73555060  0.99640833  1
  O  O231  1  0.63637357  0.24835852  0.49044204  1
  O  O232  1  0.62042417  0.23771896  0.98773516  1
  O  O233  1  0.63583809  0.74782869  0.48789142  1
  O  O234  1  0.63426703  0.74358153  1.00347004  1
  O  O235  1  0.50069057  0.23404417  0.12797244  1
  O  O236  1  0.51178106  0.23709469  0.62446779  1
  O  O237  1  0.51308905  0.74230615  0.14407443  1
  O  O238  1  0.50222340  0.73234750  0.62287907  1
  O  O239  1  0.99010722  0.24949281  0.12998016  1
  O  O240  1  0.99665812  0.23624729  0.63731232  1
  O  O241  1  0.99203125  0.74484566  0.13060426  1
  O  O242  1  0.98079326  0.73080244  0.58983844  1
  O  O243  1  0.01011665  0.24932398  0.36615308  1
  O  O244  1  0.00793054  0.24919133  0.86675147  1
  O  O245  1  0.01245421  0.74282216  0.36961376  1
  O  O246  1  0.00933249  0.76132746  0.88021883  1
  O  O247  1  0.51402466  0.24145093  0.36958562  1
  O  O248  1  0.50496890  0.26066867  0.87509951  1
  O  O249  1  0.50300930  0.75453548  0.36757883  1
  O  O250  1  0.50411136  0.76488750  0.86820930  1
  O  O251  1  0.25121654  0.12916109  0.47954530  1
  O  O252  1  0.24993086  0.13236369  0.99588325  1
  O  O253  1  0.24882381  0.63084152  0.49577594  1
  O  O254  1  0.24109399  0.61715520  0.99386096  1
  O  O255  1  0.74645191  0.13240445  0.49399797  1
  O  O256  1  0.74273505  0.11997578  0.98983280  1
  O  O257  1  0.74878278  0.63410253  0.48969248  1
  O  O258  1  0.73824393  0.63356026  1.00372413  1
  O  O259  1  0.25779409  0.36972215  0.00943631  1
  O  O260  1  0.27053509  0.36459927  0.50495979  1
  O  O261  1  0.25066203  0.87027894  0.01286883  1
  O  O262  1  0.25656272  0.86681538  0.51282014  1
  O  O263  1  0.76027811  0.37987067  0.00787951  1
  O  O264  1  0.75645159  0.36839064  0.50650206  1
  O  O265  1  0.75135621  0.87264372  0.00762946  1
  O  O266  1  0.73806837  0.87685821  0.50650027  1
  O  O267  1  0.13819791  0.50783188  0.24471028  1
  O  O268  1  0.14344445  0.49351396  0.75376367  1
  O  O269  1  0.11759563  0.98741888  0.23877585  1
  O  O270  1  0.13909686  0.99979250  0.75128476  1
  O  O271  1  0.63421918  0.49404117  0.24312550  1
  O  O272  1  0.63674218  0.48617801  0.76214625  1
  O  O273  1  0.63813209  0.98883519  0.30015012  1
  O  O274  1  0.62884896  0.99616439  0.73938652  1
  O  O275  1  0.37790946  0.00489630  0.25931341  1
  O  O276  1  0.36239826  -0.00068463  0.76278356  1
  O  O277  1  0.36488162  0.51336138  0.25395803  1
  O  O278  1  0.36615801  0.51311281  0.75795715  1
  O  O279  1  0.87630569  0.01145129  0.25441887  1
  O  O280  1  0.86285706  0.01292805  0.74915689  1
  O  O281  1  0.86454919  0.50270352  0.24076644  1
  O  O282  1  0.87480989  0.49515312  0.76518661  1
  O  O283  1  0.12373500  0.35897351  0.37418829  1
  O  O284  1  0.12508211  0.36280757  0.87743815  1
  O  O285  1  0.12995023  0.86477084  0.36504716  1
  O  O286  1  0.11784460  0.86447616  0.87995995  1
  O  O287  1  0.61738158  0.37246586  0.36922161  1
  O  O288  1  0.62208474  0.36694433  0.87526324  1
  O  O289  1  0.60602607  0.86114871  0.38413756  1
  O  O290  1  0.62015109  0.88300077  0.85757868  1
  O  O291  1  0.38004613  0.11736801  0.13783371  1
  O  O292  1  0.38750194  0.11644418  0.62457589  1
  O  O293  1  0.38188460  0.62190754  0.13351026  1
  O  O294  1  0.38528602  0.63171968  0.63806268  1
  O  O295  1  0.87300248  0.13103915  0.12982197  1
  O  O296  1  0.88086352  0.12680072  0.63354005  1
  O  O297  1  0.87953669  0.63810778  0.12540874  1
  O  O298  1  0.86740274  0.62898508  0.63413195  1
  O  O299  1  0.24328979  0.25881498  0.11971483  1
  O  O300  1  0.26151192  0.22482715  0.63879971  1
  O  O301  1  0.24658108  0.75826335  0.12538319  1
  O  O302  1  0.25279899  0.75742721  0.62128230  1
  O  O303  1  0.76341374  0.25682317  0.12939202  1
  O  O304  1  0.74906363  0.25569138  0.61505792  1
  O  O305  1  0.75290803  0.75935925  0.12066373  1
  O  O306  1  0.75348414  0.76240127  0.60987800  1
  O  O307  1  0.23383256  0.24268567  0.36062735  1
  O  O308  1  0.24512805  0.24402780  0.88343967  1
  O  O309  1  0.24574994  0.74494973  0.38350515  1
  O  O310  1  0.24328859  0.73540109  0.87812916  1
  O  O311  1  0.74407825  0.24106892  0.37942570  1
  O  O312  1  0.73637660  0.24130634  0.86782567  1
  O  O313  1  0.74016006  0.74661009  0.37271480  1
  O  O314  1  0.74549721  0.75417834  0.88156476  1
  O  O315  1  0.00190566  0.11626411  0.00179617  1
  O  O316  1  -0.00696393  0.12972387  0.51501309  1
  O  O317  1  0.01133571  0.60918574  0.01067305  1
  O  O318  1  0.01988442  0.61303808  0.48884372  1
  O  O319  1  0.50376752  0.11940208  0.00580538  1
  O  O320  1  0.50516504  0.11799988  0.50687116  1
  O  O321  1  0.51289928  0.61811828  0.00148366  1
  O  O322  1  0.50072816  0.62328121  0.50399858  1
  O  O323  1  0.49392143  0.37221877  0.50038823  1
  O  O324  1  0.49453650  0.37546150  1.00096210  1
  O  O325  1  0.49167622  0.87847576  0.49317649  1
  O  O326  1  0.51893205  0.89602918  0.98148236  1
  O  O327  1  0.99172562  0.37812517  0.49706937  1
  O  O328  1  0.99370997  0.38670556  1.00090472  1
  O  O329  1  1.01045685  0.86669681  0.49434744  1
  O  O330  1  0.99088281  0.87994453  0.99556809  1
  O  O331  1  0.48937159  0.50625576  0.36847649  1
  O  O332  1  0.49970598  0.48510335  0.88553660  1
  O  O333  1  0.48573569  0.99264936  0.38058100  1
  O  O334  1  0.48996755  1.00187510  0.87690287  1
  O  O335  1  1.00519812  0.49521288  0.38832067  1
  O  O336  1  0.99253628  0.49655395  0.88340853  1
  O  O337  1  0.99241465  1.00571713  0.37244163  1
  O  O338  1  1.00835685  0.99284292  0.89179688  1
  O  O339  1  0.01004748  -0.00241156  0.11421816  1
  O  O340  1  -0.00528844  0.01148204  0.63190464  1
  O  O341  1  0.00830673  0.50330631  0.12228318  1
  O  O342  1  -0.00522547  0.50436219  0.60793731  1
  O  O343  1  0.49656555  0.00969700  0.11270543  1
  O  O344  1  0.50389097  0.00476906  0.61930826  1
  O  O345  1  0.50741384  0.50782453  0.12157032  1
  O  O346  1  0.49533551  0.52333619  0.62946316  1
  O  O347  1  0.25606971  0.38527174  0.23980727  1
  O  O348  1  0.25679996  0.39266899  0.75685401  1
  O  O349  1  0.23691750  0.86897944  0.23835528  1
  O  O350  1  0.24976955  0.88042368  0.74762327  1
  O  O351  1  0.74260013  0.38304285  0.24407909  1
  O  O352  1  0.74630311  0.37112199  0.74051898  1
  O  O353  1  0.74829909  0.87390047  0.23156106  1
  O  O354  1  0.74126259  0.88904022  0.74019796  1
  O  O355  1  0.26226886  0.12298512  0.25505248  1
  O  O356  1  0.25331331  0.11808675  0.75577368  1
  O  O357  1  0.25524300  0.62174394  0.25727266  1
  O  O358  1  0.25813125  0.61469652  0.75855018  1
  O  O359  1  0.75546631  0.12260894  0.25585278  1
  O  O360  1  0.75365321  0.12231965  0.75430685  1
  O  O361  1  0.75206314  0.61815097  0.25379739  1
  O  O362  1  0.73312230  0.63475638  0.75870449  1
  O  O363  1  0.37164221  0.11212922  0.36176725  1
  O  O364  1  0.36236634  0.11715270  0.88179001  1
  O  O365  1  0.36541598  0.61954449  0.36884530  1
  O  O366  1  0.37106864  0.62507969  0.87091647  1
  O  O367  1  0.87120254  0.12157279  0.36567829  1
  O  O368  1  0.86085425  0.13060486  0.86902820  1
  O  O369  1  0.86344708  0.63517672  0.37226622  1
  O  O370  1  0.87956197  0.61501297  0.87639749  1
  O  O371  1  0.13320822  0.38728532  0.12235472  1
  O  O372  1  0.13500265  0.35702022  0.62086860  1
  O  O373  1  0.13365163  0.87748912  0.12907810  1
  O  O374  1  0.13269191  0.87284431  0.63426274  1
  O  O375  1  0.63196449  0.37733980  0.12959102  1
  O  O376  1  0.63615074  0.37361734  0.63731021  1
  O  O377  1  0.62993124  0.86825778  0.11852321  1
  O  O378  1  0.62867118  0.87780230  0.63205322  1
  O  O379  1  0.11273542  0.24542676  0.25762515  1
  O  O380  1  0.11571696  0.25380449  0.76126267  1
  O  O381  1  0.11887674  0.75471739  0.25949850  1
  O  O382  1  0.13176773  0.75255606  0.76619998  1
  O  O383  1  0.62784589  0.26138238  0.25787954  1
  O  O384  1  0.61231779  0.26302905  0.75744754  1
  O  O385  1  0.61522685  0.74462629  0.26463116  1
  O  O386  1  0.63646611  0.75594414  0.75411494  1
  O  O387  1  0.37655643  0.23128238  0.25505570  1
  O  O388  1  0.38131466  0.23984959  0.76198343  1
  O  O389  1  0.38160628  0.73773532  0.25702206  1
  O  O390  1  0.36801981  0.73394094  0.75274994  1
  O  O391  1  0.87850356  0.23917360  0.24270239  1
  O  O392  1  0.88166270  0.23896991  0.75054173  1
  O  O393  1  0.88314767  0.75137211  0.24375532  1
  O  O394  1  0.87893215  0.76897516  0.75381008  1
  O  O395  1  0.37390367  0.50244789  0.48561627  1
  O  O396  1  0.38322966  0.49105432  1.00138676  1
  O  O397  1  0.37262625  0.98991477  0.48720446  1
  O  O398  1  0.38297371  0.99356701  0.98932742  1
  O  O399  1  0.88227583  0.48968711  0.49677880  1
  O  O400  1  0.88283009  0.49551345  0.99157638  1
  O  O401  1  0.87854523  0.99915800  0.48527735  1
  O  O402  1  0.88342679  0.99077778  1.00882713  1
  O  O403  1  0.11851763  0.00183955  0.00837993  1
  O  O404  1  0.13771671  0.00716989  0.50415188  1
  O  O405  1  0.11992658  0.50378787  0.00801636  1
  O  O406  1  0.12396750  0.50709888  0.50416680  1
  O  O407  1  0.61653003  0.01851342  -0.00914954  1
  O  O408  1  0.61603857  0.00622226  0.50084318  1
  O  O409  1  0.62316199  0.50711689  0.00386402  1
  O  O410  1  0.61554339  0.48667102  0.47973186  1
  O  O411  1  0.36773747  0.37898443  0.11820029  1
  O  O412  1  0.41279769  0.34866513  0.65526243  1
  O  O413  1  0.35562687  0.87906073  0.12683046  1
  O  O414  1  0.36945763  0.87075982  0.62159365  1
  O  O415  1  0.87062994  0.36820133  0.11414138  1
  O  O416  1  0.86733083  0.37052530  0.61425407  1
  O  O417  1  0.87368839  0.86542118  0.11792046  1
  O  O418  1  0.86294568  0.87763391  0.61766168  1
  O  O419  1  0.13252818  0.12806931  0.36884017  1
  O  O420  1  0.13766325  0.13574595  0.87655684  1
  O  O421  1  0.14019104  0.63343567  0.37916286  1
  O  O422  1  0.13251816  0.62945668  0.88518003  1
  O  O423  1  0.63350004  0.13441461  0.38093886  1
  O  O424  1  0.63140289  0.13333800  0.87716345  1
  O  O425  1  0.63365467  0.63099007  0.37713993  1
  O  O426  1  0.62150299  0.63088665  0.87945836  1
