# generated using pymatgen
data_V85Zn86O256
_symmetry_space_group_name_H-M   'P 1'
_cell_length_a   16.94352357
_cell_length_b   16.93753152
_cell_length_c   16.93818624
_cell_angle_alpha   89.95965614
_cell_angle_beta   89.99684712
_cell_angle_gamma   90.01455872
_symmetry_Int_Tables_number   1
_chemical_formula_structural   V85Zn86O256
_chemical_formula_sum   'V85 Zn86 O256'
_cell_volume   4860.94412599
_cell_formula_units_Z   1
loop_
 _symmetry_equiv_pos_site_id
 _symmetry_equiv_pos_as_xyz
  1  'x, y, z'
loop_
 _atom_site_type_symbol
 _atom_site_label
 _atom_site_symmetry_multiplicity
 _atom_site_fract_x
 _atom_site_fract_y
 _atom_site_fract_z
 _atom_site_occupancy
  V  V0  1  0.74905537  0.13384953  0.37400722  1
  V  V1  1  0.62595560  0.37499611  0.75257030  1
  V  V2  1  0.25175513  0.50138385  0.75390967  1
  V  V3  1  0.75230202  0.37556430  0.12485193  1
  V  V4  1  0.50048109  0.24912893  0.24502383  1
  V  V5  1  0.12575864  0.11820943  0.50431810  1
  V  V6  1  0.75390365  0.87775694  0.62638895  1
  V  V7  1  0.23569392  0.87914417  0.62120830  1
  V  V8  1  0.50089033  0.12331515  0.62341276  1
  V  V9  1  0.24894547  -0.00073373  0.24693366  1
  V  V10  1  -0.00185298  0.12098939  0.62387573  1
  V  V11  1  0.12220914  0.26060579  0.37283762  1
  V  V12  1  0.75140750  0.25176988  -0.00140437  1
  V  V13  1  0.87628628  0.12583307  0.25122586  1
  V  V14  1  0.37707854  -0.00362312  0.37299403  1
  V  V15  1  0.75067134  0.75298427  0.50014973  1
  V  V16  1  0.86904909  0.73709815  0.13011477  1
  V  V17  1  -0.00128418  0.24910122  0.75210883  1
  V  V18  1  0.61746128  0.87845467  0.25386525  1
  V  V19  1  0.12650170  0.36953193  0.75582378  1
  V  V20  1  0.87694635  0.73948498  0.63518697  1
  V  V21  1  0.62403075  0.12998822  0.49518554  1
  V  V22  1  0.48939595  0.38806873  0.88590141  1
  V  V23  1  0.62106634  0.12539363  -0.00092268  1
  V  V24  1  0.62279688  0.00074691  0.12391445  1
  V  V25  1  0.12187248  0.87367144  0.76827287  1
  V  V26  1  0.75621361  0.50015349  0.75002830  1
  V  V27  1  0.49866062  -0.01140148  -0.00536548  1
  V  V28  1  0.75903594  0.50689360  0.25180954  1
  V  V29  1  0.25111690  0.37531446  0.62561278  1
  V  V30  1  0.24840953  0.87274202  0.12225902  1
  V  V31  1  0.37617925  0.24734492  0.62430355  1
  V  V32  1  0.24773275  0.74067651  0.50016225  1
  V  V33  1  0.61874730  0.75319901  0.87537578  1
  V  V34  1  0.24196510  0.13006973  0.87607118  1
  V  V35  1  0.49629380  0.75562150  0.74858332  1
  V  V36  1  0.24903449  0.12507285  0.37285531  1
  V  V37  1  0.75704088  0.87838699  0.12302400  1
  V  V38  1  0.87418787  0.12337615  0.74639628  1
  V  V39  1  0.62303868  0.25127804  0.87632875  1
  V  V40  1  0.50296342  -0.00541187  0.49444560  1
  V  V41  1  0.25772646  0.37916024  0.14798262  1
  V  V42  1  0.37998552  0.75239026  0.11907423  1
  V  V43  1  0.37422376  0.62293641  0.75768764  1
  V  V44  1  0.50086773  0.74375894  0.24781025  1
  V  V45  1  0.87995574  0.25312009  0.12551572  1
  V  V46  1  0.62115209  0.87830417  0.75195760  1
  V  V47  1  0.62535641  0.49987609  0.62671951  1
  V  V48  1  0.50041379  0.25011650  0.75286535  1
  V  V49  1  -0.01197019  0.00235063  -0.00792205  1
  V  V50  1  0.62294443  0.62487097  0.50021603  1
  V  V51  1  0.22929239  0.63061017  0.87705523  1
  V  V52  1  -0.02488875  0.87362644  0.87818032  1
  V  V53  1  0.11877967  0.75013132  0.38063124  1
  V  V54  1  0.00275443  0.26080202  0.25165327  1
  V  V55  1  0.88343512  -0.00476598  0.37992486  1
  V  V56  1  0.75594772  0.11869758  0.87542877  1
  V  V57  1  0.75143651  0.62407676  0.87099937  1
  V  V58  1  0.74931469  0.00131423  0.25245563  1
  V  V59  1  0.37865966  0.50067131  0.37147020  1
  V  V60  1  0.25603106  0.26391456  0.00910488  1
  V  V61  1  0.37396028  -0.00982116  0.87145103  1
  V  V62  1  0.11778993  0.87568607  0.25314996  1
  V  V63  1  0.25271688  0.24618469  0.50038410  1
  V  V64  1  0.50584310  0.36958207  0.37838995  1
  V  V65  1  0.87973327  0.50772004  0.38256499  1
  V  V66  1  0.00463228  0.12475127  0.12416877  1
  V  V67  1  0.88163894  0.37742119  0.00216161  1
  V  V68  1  0.62460036  0.62385149  0.00412958  1
  V  V69  1  0.25064638  0.62231245  0.36842369  1
  V  V70  1  0.37623792  0.87215731  0.49809187  1
  V  V71  1  0.62627316  0.50025030  0.12371526  1
  V  V72  1  0.88314837  0.36991803  0.50076096  1
  V  V73  1  0.37402383  0.12035103  0.75126883  1
  V  V74  1  0.62957065  0.36911298  0.25449979  1
  V  V75  1  0.01459517  0.50543800  0.00281255  1
  V  V76  1  0.01443658  0.61562158  0.62239915  1
  V  V77  1  0.75487576  0.75551648  -0.00113039  1
  V  V78  1  -0.00714453  0.74612876  0.25157089  1
  V  V79  1  0.04668738  0.65014942  0.09783428  1
  V  V80  1  0.75175020  0.25003660  0.50708358  1
  V  V81  1  0.88011171  0.50252192  0.87395398  1
  V  V82  1  0.45007085  0.56609625  0.06556240  1
  V  V83  1  0.61771173  0.75649603  0.37812236  1
  V  V84  1  0.37426871  0.12729529  0.24161542  1
  Zn  Zn85  1  0.00652143  0.37074233  0.87822789  1
  Zn  Zn86  1  0.38180997  0.37525177  0.50275855  1
  Zn  Zn87  1  0.12206872  0.12913949  -0.00774841  1
  Zn  Zn88  1  0.24054095  0.00095996  0.74624620  1
  Zn  Zn89  1  0.74948485  0.62945570  0.37042862  1
  Zn  Zn90  1  0.21573920  0.74455017  0.00201133  1
  Zn  Zn91  1  0.75481874  0.37020736  0.62769955  1
  Zn  Zn92  1  0.88526883  0.87046264  0.49874556  1
  Zn  Zn93  1  0.75420026  -0.00225973  0.75464951  1
  Zn  Zn94  1  0.04516290  0.44064447  0.44030446  1
  Zn  Zn95  1  0.50198979  0.49742491  0.50193071  1
  Zn  Zn96  1  0.49243062  0.12910080  0.11823570  1
  Zn  Zn97  1  0.37895929  0.62046439  0.24556767  1
  Zn  Zn98  1  0.13261279  0.49025639  0.15453856  1
  Zn  Zn99  1  0.12365468  0.00059226  0.12043310  1
  Zn  Zn100  1  0.00111812  0.73962385  0.75972921  1
  Zn  Zn101  1  0.62685467  0.00035385  0.62553696  1
  Zn  Zn102  1  0.12714682  0.49834592  0.60984290  1
  Zn  Zn103  1  0.37193402  0.74830737  0.62589362  1
  Zn  Zn104  1  0.36831151  0.87053989  -0.00728698  1
  Zn  Zn105  1  0.01143183  -0.01102704  0.50479841  1
  Zn  Zn106  1  0.49571854  0.62390279  0.62706234  1
  Zn  Zn107  1  0.18720066  0.19568900  0.18523616  1
  Zn  Zn108  1  0.18475607  0.18636981  0.68811334  1
  Zn  Zn109  1  0.19246669  0.69367370  0.19319763  1
  Zn  Zn110  1  0.18398364  0.69215993  0.68950695  1
  Zn  Zn111  1  0.68744013  0.18905419  0.18509198  1
  Zn  Zn112  1  0.68715157  0.18499667  0.68698969  1
  Zn  Zn113  1  0.68609503  0.68873961  0.18787013  1
  Zn  Zn114  1  0.68709864  0.68765703  0.68725775  1
  Zn  Zn115  1  0.31996758  0.30929413  0.31683350  1
  Zn  Zn116  1  0.31395577  0.31039706  0.81466427  1
  Zn  Zn117  1  0.31228762  0.81072714  0.31157686  1
  Zn  Zn118  1  0.30316895  0.80780334  0.81149324  1
  Zn  Zn119  1  0.81961251  0.31763187  0.31622639  1
  Zn  Zn120  1  0.81678003  0.31003867  0.81300402  1
  Zn  Zn121  1  0.80883960  0.81449358  0.31145884  1
  Zn  Zn122  1  0.80770937  0.81065203  0.80991420  1
  Zn  Zn123  1  0.20591206  0.43722872  0.43758246  1
  Zn  Zn124  1  0.19307856  0.43757711  0.93336456  1
  Zn  Zn125  1  0.18842749  0.93417480  0.43392663  1
  Zn  Zn126  1  0.18481266  0.94558051  0.94054031  1
  Zn  Zn127  1  0.69157254  0.43663323  0.43693769  1
  Zn  Zn128  1  0.68500853  0.43724338  0.93774423  1
  Zn  Zn129  1  0.69096440  0.94048438  0.43682821  1
  Zn  Zn130  1  0.68706984  0.93692864  0.93670173  1
  Zn  Zn131  1  0.31169485  0.06026857  0.05778151  1
  Zn  Zn132  1  0.31261940  0.05842071  0.56237030  1
  Zn  Zn133  1  0.28196703  0.55397944  0.05656887  1
  Zn  Zn134  1  0.31698026  0.56105474  0.56293727  1
  Zn  Zn135  1  0.81259405  0.06629561  0.06371929  1
  Zn  Zn136  1  0.81568040  0.06368988  0.56393935  1
  Zn  Zn137  1  0.81207835  0.56021761  0.05758710  1
  Zn  Zn138  1  0.81101030  0.56244855  0.55987221  1
  Zn  Zn139  1  0.43363859  0.42919202  0.19045979  1
  Zn  Zn140  1  0.43742541  0.43714411  0.69351002  1
  Zn  Zn141  1  0.43817699  0.93673680  0.18397040  1
  Zn  Zn142  1  0.43466291  0.93545570  0.68062857  1
  Zn  Zn143  1  0.97079388  0.46961216  0.21177588  1
  Zn  Zn144  1  0.93870257  0.43595572  0.68326544  1
  Zn  Zn145  1  0.93725828  0.93790324  0.18752737  1
  Zn  Zn146  1  0.93780104  0.93937512  0.68838084  1
  Zn  Zn147  1  0.06456978  0.06841200  0.31166143  1
  Zn  Zn148  1  0.05973845  0.05523409  0.80807455  1
  Zn  Zn149  1  0.06573066  0.57732678  0.30968452  1
  Zn  Zn150  1  0.06026722  0.55633426  0.79954867  1
  Zn  Zn151  1  0.56157185  0.06501564  0.31436798  1
  Zn  Zn152  1  0.56131786  0.06023063  0.81460598  1
  Zn  Zn153  1  0.56530310  0.55914829  0.31355759  1
  Zn  Zn154  1  0.56286728  0.56489363  0.81288212  1
  Zn  Zn155  1  0.43876340  0.18722636  0.43135761  1
  Zn  Zn156  1  0.43371730  0.18651895  0.93569840  1
  Zn  Zn157  1  0.43879109  0.68762553  0.43745453  1
  Zn  Zn158  1  0.43167019  0.69342531  0.92922793  1
  Zn  Zn159  1  0.93967693  0.18754062  0.43802609  1
  Zn  Zn160  1  0.93852987  0.18875531  0.93336968  1
  Zn  Zn161  1  0.93689698  0.68696224  0.44179270  1
  Zn  Zn162  1  0.93485096  0.68833037  0.93775585  1
  Zn  Zn163  1  0.07499930  0.31321083  0.06171478  1
  Zn  Zn164  1  0.06635122  0.30167782  0.56976261  1
  Zn  Zn165  1  0.05257115  0.82510443  0.06414902  1
  Zn  Zn166  1  0.05713620  0.80860150  0.56211365  1
  Zn  Zn167  1  0.55926654  0.31483031  0.06332837  1
  Zn  Zn168  1  0.56776425  0.31032645  0.56458528  1
  Zn  Zn169  1  0.56591794  0.81293794  0.06504831  1
  Zn  Zn170  1  0.56084372  0.81367587  0.56689966  1
  O  O171  1  0.11208453  0.12515591  0.12655091  1
  O  O172  1  0.11845400  0.12643479  0.61449699  1
  O  O173  1  0.13706608  0.61068761  0.13442640  1
  O  O174  1  0.11816193  0.62392712  0.62278068  1
  O  O175  1  0.62668404  0.11975981  0.11164476  1
  O  O176  1  0.61836807  0.12143910  0.61626798  1
  O  O177  1  0.62930383  0.62049063  0.11214201  1
  O  O178  1  0.62332373  0.61746581  0.61964238  1
  O  O179  1  0.38710205  0.38144376  0.37818083  1
  O  O180  1  0.39111042  0.37329478  0.86828045  1
  O  O181  1  0.36680683  0.88144324  0.38817605  1
  O  O182  1  0.36571131  0.88574884  0.87208699  1
  O  O183  1  0.87331136  0.38762924  0.39034566  1
  O  O184  1  0.87576134  0.38447962  0.88652275  1
  O  O185  1  0.86624379  0.89234731  0.37507966  1
  O  O186  1  0.87685227  0.87980116  0.87245139  1
  O  O187  1  0.25647905  0.00541865  0.36643674  1
  O  O188  1  0.25761094  0.00816156  0.87001432  1
  O  O189  1  0.26459564  0.51045868  0.37460144  1
  O  O190  1  0.24665878  0.51435298  0.86457388  1
  O  O191  1  0.75778953  0.01134399  0.36975618  1
  O  O192  1  0.74394221  0.01493038  0.87531856  1
  O  O193  1  0.75649745  0.50255192  0.36685910  1
  O  O194  1  0.75487904  0.50601714  0.87004096  1
  O  O195  1  0.24965006  0.48785783  0.13855212  1
  O  O196  1  0.25152854  0.48910163  0.62908195  1
  O  O197  1  0.24809524  0.99074978  0.12880622  1
  O  O198  1  0.25401483  0.98317486  0.62663216  1
  O  O199  1  0.74621744  0.49398713  0.13127610  1
  O  O200  1  0.74150403  0.50094173  0.63454694  1
  O  O201  1  0.74452472  0.99658122  0.13029102  1
  O  O202  1  0.74921884  0.98779168  0.62417656  1
  O  O203  1  -0.01869673  0.35684009  0.24377273  1
  O  O204  1  0.00841816  0.36704309  0.74658257  1
  O  O205  1  0.00840212  0.86450675  0.24270726  1
  O  O206  1  0.00395926  0.87819160  0.76700207  1
  O  O207  1  0.50970984  0.36735716  0.25552081  1
  O  O208  1  0.50819115  0.36776793  0.75659781  1
  O  O209  1  0.51248025  0.86945360  0.24671080  1
  O  O210  1  0.50604299  0.86570336  0.74363871  1
  O  O211  1  0.49368983  0.13185536  0.24892999  1
  O  O212  1  0.49359657  0.12893805  0.74565251  1
  O  O213  1  0.50429938  0.64021693  0.25416128  1
  O  O214  1  0.49264411  0.63473274  0.75227976  1
  O  O215  1  0.99364528  0.13092483  0.24070221  1
  O  O216  1  0.99397712  0.12821121  0.74600639  1
  O  O217  1  1.01075676  0.64633906  0.22672089  1
  O  O218  1  0.99935742  0.62698373  0.73293170  1
  O  O219  1  0.35329848  0.23408744  -0.00078933  1
  O  O220  1  0.37107122  0.24627748  0.50679092  1
  O  O221  1  0.38040200  0.75399328  0.01129803  1
  O  O222  1  0.36788307  0.75719558  0.49965085  1
  O  O223  1  0.87304760  0.25872051  0.00337133  1
  O  O224  1  0.86736075  0.26163527  0.49341150  1
  O  O225  1  0.85915451  0.74743328  0.00749851  1
  O  O226  1  0.86389882  0.75196644  0.50905121  1
  O  O227  1  0.13310312  0.23880495  0.49398545  1
  O  O228  1  0.14628012  0.24372422  1.00027265  1
  O  O229  1  0.13262963  0.75567137  0.48782555  1
  O  O230  1  0.10606629  0.72811595  1.04110074  1
  O  O231  1  0.63279668  0.23714169  0.50059862  1
  O  O232  1  0.62932703  0.24292747  0.99710936  1
  O  O233  1  0.62805080  0.74719420  0.49529258  1
  O  O234  1  0.63130748  0.74435651  0.99425742  1
  O  O235  1  0.50520531  0.24733038  0.13888447  1
  O  O236  1  0.49613951  0.24329364  0.63174048  1
  O  O237  1  0.49350593  0.75684813  0.13475814  1
  O  O238  1  0.49728854  0.74629983  0.63585986  1
  O  O239  1  0.99780272  0.24371024  0.12741030  1
  O  O240  1  1.00305144  0.23473973  0.63837292  1
  O  O241  1  0.98374446  0.74853901  0.12639509  1
  O  O242  1  0.98586203  0.74413643  0.62973499  1
  O  O243  1  0.01013239  0.24287947  0.36467676  1
  O  O244  1  -0.00112444  0.25286338  0.86017839  1
  O  O245  1  0.00677044  0.73991143  0.36579619  1
  O  O246  1  -0.01111779  0.76785735  0.87584198  1
  O  O247  1  0.49964292  0.26144358  0.36440294  1
  O  O248  1  0.50692605  0.25122597  0.86999241  1
  O  O249  1  0.51180806  0.75208035  0.36990415  1
  O  O250  1  0.51241344  0.74992970  0.86816478  1
  O  O251  1  0.24642110  0.12864937  0.49562843  1
  O  O252  1  0.24612787  0.11989309  0.98429317  1
  O  O253  1  0.25781290  0.63743165  0.49302653  1
  O  O254  1  0.24407519  0.62795438  0.98298547  1
  O  O255  1  0.74472410  0.13007779  0.49390241  1
  O  O256  1  0.74407284  0.13150103  0.99380536  1
  O  O257  1  0.73755299  0.63836152  0.50306671  1
  O  O258  1  0.74213389  0.63064266  0.98943219  1
  O  O259  1  0.25830941  0.36405796  -0.00896749  1
  O  O260  1  0.25946263  0.36249853  0.50968591  1
  O  O261  1  0.24285443  0.86818805  0.01082213  1
  O  O262  1  0.25378956  0.86851843  0.50757639  1
  O  O263  1  0.75708372  0.37025725  0.00336038  1
  O  O264  1  0.75498165  0.36348747  0.50042295  1
  O  O265  1  0.74163072  0.86691120  0.00923098  1
  O  O266  1  0.74870704  0.86559851  0.50790252  1
  O  O267  1  0.07772040  0.48460034  0.25239458  1
  O  O268  1  0.13722871  0.48911646  0.73911635  1
  O  O269  1  0.13037479  0.99371618  0.24911902  1
  O  O270  1  0.12394569  0.97968592  0.74914901  1
  O  O271  1  0.63188527  0.49209326  0.23990893  1
  O  O272  1  0.63536350  0.49669449  0.74610027  1
  O  O273  1  0.62781954  0.99578066  0.24614847  1
  O  O274  1  0.62562565  0.99145283  0.74793127  1
  O  O275  1  0.37118651  0.00290190  0.25533416  1
  O  O276  1  0.37587208  0.00761178  0.75322557  1
  O  O277  1  0.39091558  0.50445982  0.26615182  1
  O  O278  1  0.36154340  0.50735222  0.74532666  1
  O  O279  1  0.86983039  0.00622535  0.25746283  1
  O  O280  1  0.87202173  0.01610633  0.74771206  1
  O  O281  1  0.86951990  0.49534629  0.26723221  1
  O  O282  1  0.86361643  0.49215663  0.75779956  1
  O  O283  1  0.12627073  0.36211978  0.38552692  1
  O  O284  1  0.12520329  0.37894062  0.85960910  1
  O  O285  1  0.13087825  0.86643904  0.36103068  1
  O  O286  1  0.12444528  0.87344413  0.86927374  1
  O  O287  1  0.62037866  0.37992952  0.36458590  1
  O  O288  1  0.62042423  0.36813243  0.86994754  1
  O  O289  1  0.63095851  0.86924367  0.36622899  1
  O  O290  1  0.63105900  0.86637576  0.86218837  1
  O  O291  1  0.37460834  0.11612757  0.13768251  1
  O  O292  1  0.38028845  0.12561328  0.63237373  1
  O  O293  1  0.38323152  0.62738540  0.12210187  1
  O  O294  1  0.37531803  0.62823922  0.63843065  1
  O  O295  1  0.88452159  0.13239271  0.13016323  1
  O  O296  1  0.88235287  0.12738072  0.63194400  1
  O  O297  1  0.85927019  0.63780213  0.12669209  1
  O  O298  1  0.86578542  0.63892817  0.62685710  1
  O  O299  1  0.25198181  0.26143058  0.11710126  1
  O  O300  1  0.25740818  0.25300563  0.62076340  1
  O  O301  1  0.26048199  0.75616094  0.12260950  1
  O  O302  1  0.24916747  0.75974214  0.61621801  1
  O  O303  1  0.75874828  0.25534038  0.11837633  1
  O  O304  1  0.74742636  0.24858661  0.61128599  1
  O  O305  1  0.74985701  0.75898234  0.11920698  1
  O  O306  1  0.75554460  0.75844443  0.62135979  1
  O  O307  1  0.24579027  0.24404303  0.38202298  1
  O  O308  1  0.25458663  0.23298082  0.87640148  1
  O  O309  1  0.24398615  0.74602206  0.38259116  1
  O  O310  1  0.24384285  0.73710932  0.88018340  1
  O  O311  1  0.75624499  0.23836256  0.38169546  1
  O  O312  1  0.74215120  0.24317872  0.88069436  1
  O  O313  1  0.73990218  0.75072161  0.38336096  1
  O  O314  1  0.74143857  0.74389213  0.88035804  1
  O  O315  1  0.00035583  0.11943438  0.00400455  1
  O  O316  1  0.00863161  0.12404084  0.50739223  1
  O  O317  1  -0.00022837  0.62003640  0.00192747  1
  O  O318  1  -0.01013964  0.63024296  0.52497875  1
  O  O319  1  0.50726462  0.11837656  -0.00056512  1
  O  O320  1  0.50785630  0.12035935  0.50077395  1
  O  O321  1  0.50409609  0.62579614  -0.00141940  1
  O  O322  1  0.51240140  0.62444845  0.50364428  1
  O  O323  1  0.50359230  0.37273914  0.49233104  1
  O  O324  1  0.50277450  0.37216849  0.98518561  1
  O  O325  1  0.49105263  0.88309006  0.50482696  1
  O  O326  1  0.50128509  0.88603309  1.00101752  1
  O  O327  1  0.98810828  0.36269349  0.50435407  1
  O  O328  1  0.99591327  0.38324353  1.00080662  1
  O  O329  1  0.99815487  0.87765366  0.49834623  1
  O  O330  1  0.99644699  0.88748923  0.98691139  1
  O  O331  1  0.50074562  0.48750009  0.37882652  1
  O  O332  1  0.50558900  0.48701513  0.87224201  1
  O  O333  1  0.49388404  1.00346608  0.38671112  1
  O  O334  1  0.48806115  1.00390775  0.88293164  1
  O  O335  1  0.98313637  0.51434110  0.37877234  1
  O  O336  1  0.99261673  0.49810681  0.87856177  1
  O  O337  1  0.98490398  1.00860609  0.37365675  1
  O  O338  1  0.99788047  0.99170181  0.88468276  1
  O  O339  1  -0.00143780  0.00775266  0.11580806  1
  O  O340  1  -0.00356283  0.01410867  0.62285357  1
  O  O341  1  0.00348385  0.52311048  0.11023058  1
  O  O342  1  0.00506557  0.51081414  0.62713800  1
  O  O343  1  0.50663903  0.00346515  0.11565070  1
  O  O344  1  0.50003375  0.00603165  0.61130384  1
  O  O345  1  0.50678161  0.50239908  0.12760911  1
  O  O346  1  0.51374274  0.49983765  0.62713659  1
  O  O347  1  0.25212524  0.36775088  0.24730222  1
  O  O348  1  0.24696617  0.37929687  0.74597327  1
  O  O349  1  0.24407986  0.87782982  0.23945559  1
  O  O350  1  0.23689720  0.87326289  0.73964138  1
  O  O351  1  0.74604930  0.38221359  0.24636622  1
  O  O352  1  0.74474885  0.38198112  0.75113073  1
  O  O353  1  0.73897779  0.88236969  0.24330813  1
  O  O354  1  0.74141706  0.87719325  0.74297282  1
  O  O355  1  0.25620233  0.12172323  0.25220132  1
  O  O356  1  0.25716995  0.12174873  0.75557547  1
  O  O357  1  0.26077623  0.63435590  0.26500501  1
  O  O358  1  0.25245123  0.62080741  0.75513858  1
  O  O359  1  0.75415300  0.12180386  0.25570631  1
  O  O360  1  0.75586533  0.12540185  0.75776210  1
  O  O361  1  0.74220030  0.61031740  0.25051537  1
  O  O362  1  0.74259297  0.61800152  0.76390515  1
  O  O363  1  0.36876916  0.11703839  0.36543306  1
  O  O364  1  0.36704100  0.11498236  0.86550889  1
  O  O365  1  0.37176952  0.61853005  0.37451146  1
  O  O366  1  0.36523153  0.62946788  0.86152959  1
  O  O367  1  0.86823499  0.11771896  0.37048237  1
  O  O368  1  0.86361218  0.13103205  0.86684261  1
  O  O369  1  0.86509726  0.61268818  0.38607165  1
  O  O370  1  0.86542891  0.61236937  0.87987105  1
  O  O371  1  0.14889165  0.37788567  0.11893950  1
  O  O372  1  0.14081064  0.36928466  0.63144137  1
  O  O373  1  0.13100598  0.87765199  0.13595547  1
  O  O374  1  0.13488954  0.87458715  0.62261621  1
  O  O375  1  0.63167846  0.38235945  0.13021955  1
  O  O376  1  0.63012543  0.38248168  0.63328080  1
  O  O377  1  0.63398641  0.88228293  0.13265203  1
  O  O378  1  0.63290456  0.87465774  0.63643940  1
  O  O379  1  0.11549913  0.24751474  0.25992626  1
  O  O380  1  0.11699073  0.25872123  0.74620189  1
  O  O381  1  0.11828313  0.75915773  0.25805912  1
  O  O382  1  0.11591982  0.77017275  0.74268432  1
  O  O383  1  0.62261935  0.26220976  0.24669001  1
  O  O384  1  0.62117025  0.25376397  0.75623757  1
  O  O385  1  0.62081730  0.75814426  0.25705578  1
  O  O386  1  0.61779439  0.75482310  0.75685117  1
  O  O387  1  0.38660613  0.23796394  0.25486191  1
  O  O388  1  0.37944201  0.23690113  0.74531072  1
  O  O389  1  0.38484899  0.75028460  0.23994750  1
  O  O390  1  0.38204528  0.74639054  0.75034683  1
  O  O391  1  0.87732518  0.24197262  0.24564858  1
  O  O392  1  0.88342304  0.23942287  0.75120180  1
  O  O393  1  0.88067674  0.75444086  0.24449786  1
  O  O394  1  0.87417162  0.75072897  0.73810981  1
  O  O395  1  0.38238548  0.49735486  0.49018526  1
  O  O396  1  0.38620715  0.51254095  1.01384256  1
  O  O397  1  0.38230966  0.99353478  0.49345787  1
  O  O398  1  0.38141001  0.99456523  0.99024398  1
  O  O399  1  0.86588479  0.48936641  0.49010899  1
  O  O400  1  0.88243705  0.49398572  0.99300817  1
  O  O401  1  0.87396281  1.00006258  0.48603198  1
  O  O402  1  0.88851460  1.00627704  1.00308402  1
  O  O403  1  0.10978543  0.00725624  0.00236445  1
  O  O404  1  0.12746121  0.01403977  0.48917777  1
  O  O405  1  0.11428791  0.49626931  -0.00522585  1
  O  O406  1  0.12733749  0.48968545  0.49719899  1
  O  O407  1  0.61728486  0.00689347  0.00104783  1
  O  O408  1  0.61836460  0.00769539  0.50026637  1
  O  O409  1  0.63094099  0.50693433  0.01391130  1
  O  O410  1  0.62838211  0.50815809  0.50893889  1
  O  O411  1  0.35887238  0.37496982  0.12736575  1
  O  O412  1  0.36735396  0.36688188  0.62805939  1
  O  O413  1  0.36580573  0.86825191  0.12207745  1
  O  O414  1  0.36447127  0.87148658  0.61241832  1
  O  O415  1  0.86981327  0.37277695  0.11176020  1
  O  O416  1  0.87007342  0.38279753  0.60625510  1
  O  O417  1  0.85973149  0.86921342  0.13119756  1
  O  O418  1  0.86751434  0.86604052  0.62535703  1
  O  O419  1  0.13387467  0.13319131  0.38014588  1
  O  O420  1  0.13962232  0.11900373  0.86721869  1
  O  O421  1  0.13689673  0.63806379  0.37218009  1
  O  O422  1  0.13126377  0.62522185  0.86343256  1
  O  O423  1  0.63572854  0.12086250  0.38315816  1
  O  O424  1  0.62934116  0.13063530  0.88439547  1
  O  O425  1  0.62753205  0.63345760  0.38396252  1
  O  O426  1  0.62978903  0.63049568  0.88633872  1
