# generated using pymatgen
data_V85Zn86O256
_symmetry_space_group_name_H-M   'P 1'
_cell_length_a   16.94940127
_cell_length_b   16.93534388
_cell_length_c   16.93905749
_cell_angle_alpha   89.97389626
_cell_angle_beta   89.99958133
_cell_angle_gamma   90.01289879
_symmetry_Int_Tables_number   1
_chemical_formula_structural   V85Zn86O256
_chemical_formula_sum   'V85 Zn86 O256'
_cell_volume   4862.25315636
_cell_formula_units_Z   1
loop_
 _symmetry_equiv_pos_site_id
 _symmetry_equiv_pos_as_xyz
  1  'x, y, z'
loop_
 _atom_site_type_symbol
 _atom_site_label
 _atom_site_symmetry_multiplicity
 _atom_site_fract_x
 _atom_site_fract_y
 _atom_site_fract_z
 _atom_site_occupancy
  V  V0  1  -0.00070507  -0.00199074  0.00888623  1
  V  V1  1  0.24936449  0.36685507  0.62047026  1
  V  V2  1  0.75057419  0.50711141  0.74437795  1
  V  V3  1  0.62211273  0.62633991  0.00098064  1
  V  V4  1  0.50947603  0.74779817  0.26070598  1
  V  V5  1  0.87276061  0.37350174  -0.00244577  1
  V  V6  1  0.74932311  0.37869152  0.62317171  1
  V  V7  1  0.61029692  0.50633039  0.61585242  1
  V  V8  1  0.12399332  0.12339535  0.50173865  1
  V  V9  1  0.74971335  0.37718644  0.12574203  1
  V  V10  1  0.87319337  0.86592114  0.49916886  1
  V  V11  1  0.75323521  0.62778391  0.87069799  1
  V  V12  1  0.50427061  0.36139354  0.87336285  1
  V  V13  1  0.38026980  0.62554367  0.73849129  1
  V  V14  1  0.87393314  -0.00231047  0.36908105  1
  V  V15  1  0.74598174  0.00108265  0.74388309  1
  V  V16  1  -0.00304973  0.50101674  -0.00094342  1
  V  V17  1  0.74886448  0.11939375  0.36559968  1
  V  V18  1  0.87623941  0.24869899  0.62491775  1
  V  V19  1  0.75943366  0.63957405  0.38147974  1
  V  V20  1  0.50108979  0.37857064  0.37751565  1
  V  V21  1  0.62352056  0.50702881  0.12982918  1
  V  V22  1  0.12262131  0.62642645  -0.00072691  1
  V  V23  1  0.00387320  0.87084072  0.87735991  1
  V  V24  1  0.73706041  0.24696479  -0.00392085  1
  V  V25  1  0.87237280  0.50270521  0.86930703  1
  V  V26  1  0.24835775  0.24797551  0.00035368  1
  V  V27  1  -0.00867014  0.50222289  0.49432523  1
  V  V28  1  0.87299707  0.00407208  0.87522583  1
  V  V29  1  0.25353272  0.63032059  0.37300243  1
  V  V30  1  0.12547742  0.37310620  0.74963480  1
  V  V31  1  0.12401517  0.50022818  0.12481199  1
  V  V32  1  0.38810091  0.74158696  0.12492070  1
  V  V33  1  0.12115354  0.24567420  0.37988331  1
  V  V34  1  0.25624780  0.01763184  0.24433038  1
  V  V35  1  0.76340834  0.50711938  0.26060016  1
  V  V36  1  0.62409890  0.75012139  0.87359149  1
  V  V37  1  0.63194342  0.01045447  0.12625912  1
  V  V38  1  0.73386377  0.12671094  0.87790005  1
  V  V39  1  0.87218632  0.75008090  0.64172632  1
  V  V40  1  0.37122477  -0.00010616  0.87406484  1
  V  V41  1  0.12381703  0.37370208  0.25219490  1
  V  V42  1  0.49482001  0.24465687  0.24905788  1
  V  V43  1  0.24882097  0.37547662  0.12324249  1
  V  V44  1  0.37523173  0.87635728  0.51141541  1
  V  V45  1  0.62201825  0.87872344  0.74436640  1
  V  V46  1  0.62035935  0.36692838  0.75048714  1
  V  V47  1  0.86766764  0.87315269  0.00227897  1
  V  V48  1  0.24107325  -0.01391431  0.74751934  1
  V  V49  1  -0.00237675  0.24721295  0.25116904  1
  V  V50  1  -0.00215428  0.62531917  0.63827469  1
  V  V51  1  0.49886612  0.87349595  0.87615763  1
  V  V52  1  0.62792234  0.24934150  0.37570329  1
  V  V53  1  -0.00017721  0.00096762  0.50055771  1
  V  V54  1  0.37315459  0.87761980  0.00879484  1
  V  V55  1  0.38038875  0.24855002  0.63773423  1
  V  V56  1  0.29704603  0.19178117  0.44518262  1
  V  V57  1  0.37600144  0.37345084  0.00055823  1
  V  V58  1  0.74678239  0.87655223  0.13688787  1
  V  V59  1  0.38157894  0.50350625  0.37801145  1
  V  V60  1  0.25548677  0.62439894  0.87672123  1
  V  V61  1  0.37564727  0.37923011  0.50046993  1
  V  V62  1  0.50115597  0.50134936  0.00196634  1
  V  V63  1  0.74506921  0.87244881  0.61806159  1
  V  V64  1  0.49611453  0.74703405  0.73697495  1
  V  V65  1  0.61634713  0.63693516  0.49372981  1
  V  V66  1  0.62844898  0.11183077  0.50430992  1
  V  V67  1  0.50684179  0.12002627  0.63454027  1
  V  V68  1  0.00234885  0.12004134  0.12813571  1
  V  V69  1  0.62492609  0.37873617  0.25223725  1
  V  V70  1  0.12285973  0.24833520  0.87514037  1
  V  V71  1  0.14098865  0.87783717  0.22804833  1
  V  V72  1  0.49276900  0.12212901  0.12062512  1
  V  V73  1  0.87283854  0.24801085  0.12413833  1
  V  V74  1  0.12498890  0.11855907  0.00031296  1
  V  V75  1  0.05656075  0.80928316  0.70596407  1
  V  V76  1  0.12585367  0.49833376  0.62450199  1
  V  V77  1  0.00952753  0.86824172  0.37027479  1
  V  V78  1  0.24986010  0.75365905  0.00833628  1
  V  V79  1  0.25131301  0.50264794  0.25006256  1
  V  V80  1  -0.00206849  0.37489643  0.87303126  1
  V  V81  1  0.12661213  0.62387492  0.49836014  1
  V  V82  1  -0.00622862  0.63042666  0.13567722  1
  V  V83  1  0.74859382  0.24883553  0.49990412  1
  V  V84  1  0.25609115  0.75485280  0.51235089  1
  Zn  Zn85  1  0.12424627  0.75268705  0.87332845  1
  Zn  Zn86  1  0.62352164  0.87929248  0.25687998  1
  Zn  Zn87  1  0.12490669  -0.01502692  0.62708232  1
  Zn  Zn88  1  0.00111604  0.12371340  0.62924704  1
  Zn  Zn89  1  0.38142179  0.62277826  0.24473556  1
  Zn  Zn90  1  0.50441874  0.00455668  -0.00239700  1
  Zn  Zn91  1  -0.00065004  0.24570962  0.74861761  1
  Zn  Zn92  1  0.87412591  0.12634618  0.74963865  1
  Zn  Zn93  1  0.37422122  0.12414649  0.75277572  1
  Zn  Zn94  1  -0.00688110  0.38115759  0.37143089  1
  Zn  Zn95  1  0.49902437  0.87980562  0.37652377  1
  Zn  Zn96  1  0.49937763  -0.00148039  0.50022262  1
  Zn  Zn97  1  0.38013947  0.50069079  0.87403778  1
  Zn  Zn98  1  0.87224490  0.11583979  0.24615412  1
  Zn  Zn99  1  0.87036620  0.37924280  0.49300190  1
  Zn  Zn100  1  0.12653970  0.74893064  0.36396979  1
  Zn  Zn101  1  0.86913172  0.73984135  0.13623495  1
  Zn  Zn102  1  0.37016533  -0.00149254  0.37265619  1
  Zn  Zn103  1  0.74781795  0.75061329  0.00416114  1
  Zn  Zn104  1  0.24859786  0.12327009  0.87128206  1
  Zn  Zn105  1  0.25407794  0.49872161  0.75065315  1
  Zn  Zn106  1  0.36966747  0.24514199  0.13043656  1
  Zn  Zn107  1  0.18404266  0.18579939  0.18676411  1
  Zn  Zn108  1  0.19077397  0.18258717  0.68854200  1
  Zn  Zn109  1  0.18697437  0.69292318  0.18706531  1
  Zn  Zn110  1  0.19304394  0.68015887  0.68691708  1
  Zn  Zn111  1  0.68313484  0.18833645  0.18660277  1
  Zn  Zn112  1  0.68902263  0.18750400  0.68842003  1
  Zn  Zn113  1  0.68919693  0.68644527  0.19114100  1
  Zn  Zn114  1  0.68323517  0.68936436  0.68241182  1
  Zn  Zn115  1  0.31346566  0.31736908  0.30945991  1
  Zn  Zn116  1  0.31080416  0.31353080  0.81604306  1
  Zn  Zn117  1  0.31745262  0.81759596  0.31285115  1
  Zn  Zn118  1  0.31336676  0.80864734  0.81557007  1
  Zn  Zn119  1  0.81440106  0.31410616  0.31255976  1
  Zn  Zn120  1  0.80694745  0.31266799  0.80989941  1
  Zn  Zn121  1  0.81770338  0.80727982  0.30983326  1
  Zn  Zn122  1  0.81017704  0.81654499  0.81451520  1
  Zn  Zn123  1  0.18931553  0.43659993  0.43637247  1
  Zn  Zn124  1  0.18777706  0.43953441  0.93617448  1
  Zn  Zn125  1  0.19450646  0.94296599  0.43356449  1
  Zn  Zn126  1  0.18766934  0.93675814  0.93874564  1
  Zn  Zn127  1  0.68734283  0.44259129  0.43883299  1
  Zn  Zn128  1  0.68570994  0.43688437  0.93535115  1
  Zn  Zn129  1  0.68716230  0.93267302  0.43195228  1
  Zn  Zn130  1  0.68413220  0.94129302  0.94025705  1
  Zn  Zn131  1  0.31058865  0.05878240  0.06666549  1
  Zn  Zn132  1  0.31515550  0.05406293  0.57580570  1
  Zn  Zn133  1  0.31315012  0.56295992  0.06108291  1
  Zn  Zn134  1  0.31178969  0.55850827  0.56151366  1
  Zn  Zn135  1  0.81083769  0.06274808  0.06096729  1
  Zn  Zn136  1  0.81384479  0.06064946  0.56015662  1
  Zn  Zn137  1  0.80977068  0.56197373  0.06148021  1
  Zn  Zn138  1  0.81125865  0.57191329  0.56158215  1
  Zn  Zn139  1  0.43905468  0.43752103  0.18712270  1
  Zn  Zn140  1  0.43714111  0.43773008  0.69001523  1
  Zn  Zn141  1  0.43441517  0.93757900  0.19027496  1
  Zn  Zn142  1  0.43376186  0.93792420  0.68725396  1
  Zn  Zn143  1  0.93835293  0.43727892  0.18624098  1
  Zn  Zn144  1  0.93587291  0.43817010  0.68391752  1
  Zn  Zn145  1  0.92670425  0.90227462  0.20390591  1
  Zn  Zn146  1  0.93066843  0.94385526  0.68396830  1
  Zn  Zn147  1  0.06999570  0.05564026  0.31281737  1
  Zn  Zn148  1  0.05983209  0.05987382  0.81258972  1
  Zn  Zn149  1  0.06445566  0.56372814  0.31300567  1
  Zn  Zn150  1  0.06644331  0.56059001  0.81434833  1
  Zn  Zn151  1  0.55758739  0.05731518  0.31189859  1
  Zn  Zn152  1  0.56013689  0.05956539  0.81126372  1
  Zn  Zn153  1  0.56360448  0.57099058  0.31508476  1
  Zn  Zn154  1  0.56342104  0.55722093  0.81222667  1
  Zn  Zn155  1  0.45837282  0.19085313  0.44467213  1
  Zn  Zn156  1  0.43687738  0.18569166  0.94129925  1
  Zn  Zn157  1  0.43679569  0.68945945  0.44139188  1
  Zn  Zn158  1  0.43871431  0.68842133  0.93591375  1
  Zn  Zn159  1  0.93501070  0.18757587  0.43775992  1
  Zn  Zn160  1  0.93419622  0.18638741  0.93720004  1
  Zn  Zn161  1  0.93596979  0.68756638  0.44000709  1
  Zn  Zn162  1  0.93445321  0.69083583  0.93984876  1
  Zn  Zn163  1  0.06056517  0.31031462  0.06245823  1
  Zn  Zn164  1  0.06011801  0.31235054  0.56009736  1
  Zn  Zn165  1  0.06104499  0.81137998  0.06141625  1
  Zn  Zn166  1  0.06202097  0.80731260  0.54129532  1
  Zn  Zn167  1  0.56076509  0.31411560  0.06640189  1
  Zn  Zn168  1  0.56184724  0.31077886  0.56476425  1
  Zn  Zn169  1  0.56465761  0.81756747  0.06337046  1
  Zn  Zn170  1  0.56176088  0.81232339  0.55894883  1
  O  O171  1  0.10944231  0.13106178  0.11506670  1
  O  O172  1  0.12229570  0.12954027  0.61084264  1
  O  O173  1  0.11922706  0.62065203  0.11513125  1
  O  O174  1  0.11982529  0.61956183  0.61765147  1
  O  O175  1  0.61745187  0.11620534  0.12523723  1
  O  O176  1  0.61437687  0.12996045  0.62108701  1
  O  O177  1  0.63136455  0.61415558  0.11662365  1
  O  O178  1  0.63102957  0.61284702  0.61274555  1
  O  O179  1  0.37769331  0.38294340  0.38236812  1
  O  O180  1  0.38023812  0.37770417  0.88602311  1
  O  O181  1  0.37889185  0.87390548  0.38999459  1
  O  O182  1  0.38167843  0.88095715  0.88274839  1
  O  O183  1  0.88047566  0.37018753  0.38090199  1
  O  O184  1  0.87846169  0.38083342  0.87672952  1
  O  O185  1  0.88385597  0.87984754  0.38324019  1
  O  O186  1  0.87626801  0.88484055  0.88521423  1
  O  O187  1  0.25476054  -0.00137756  0.35862467  1
  O  O188  1  0.25616461  0.00096943  0.86954188  1
  O  O189  1  0.25901176  0.50952500  0.37117424  1
  O  O190  1  0.25199122  0.51269156  0.87483798  1
  O  O191  1  0.76161656  0.00890329  0.38284680  1
  O  O192  1  0.75455568  0.00503594  0.86801088  1
  O  O193  1  0.75007113  0.50049483  0.36257220  1
  O  O194  1  0.75144910  0.50731027  0.86505785  1
  O  O195  1  0.24383877  0.49536570  0.12834458  1
  O  O196  1  0.24421226  0.48654173  0.62672544  1
  O  O197  1  0.24859526  1.00321131  0.14194031  1
  O  O198  1  0.24373609  0.99415478  0.64143448  1
  O  O199  1  0.74292656  0.49723235  0.13453699  1
  O  O200  1  0.74762132  0.49526549  0.62865988  1
  O  O201  1  0.73808762  0.99785720  0.12316982  1
  O  O202  1  0.75653495  0.99177822  0.63780608  1
  O  O203  1  0.00810134  0.36869284  0.24865493  1
  O  O204  1  0.01132483  0.37497075  0.75236228  1
  O  O205  1  0.02370883  0.88809732  0.26826136  1
  O  O206  1  -0.00368968  0.87859496  0.75858753  1
  O  O207  1  0.50779670  0.36996749  0.25534586  1
  O  O208  1  0.50772680  0.38064494  0.76077124  1
  O  O209  1  0.49731739  0.85870899  0.24638161  1
  O  O210  1  0.50427599  0.87003810  0.75455467  1
  O  O211  1  0.50717241  0.13639444  0.23826069  1
  O  O212  1  0.49775331  0.12365268  0.73854378  1
  O  O213  1  0.49811299  0.64045398  0.24930985  1
  O  O214  1  0.48837030  0.63080614  0.75710704  1
  O  O215  1  1.00101170  0.12574472  0.24242947  1
  O  O216  1  0.99378892  0.12655338  0.74791669  1
  O  O217  1  1.00519513  0.62107094  0.23430469  1
  O  O218  1  1.00360598  0.61839987  0.73786344  1
  O  O219  1  0.36596932  0.25722805  0.00305866  1
  O  O220  1  0.36451857  0.25159687  0.50251396  1
  O  O221  1  0.37172696  0.75420962  0.00781688  1
  O  O222  1  0.36315256  0.75615588  0.50058044  1
  O  O223  1  0.86955937  0.25570950  0.00757073  1
  O  O224  1  0.86642418  0.25040943  0.50981778  1
  O  O225  1  0.87037482  0.76148712  0.00689248  1
  O  O226  1  0.88290811  0.76350754  0.51210730  1
  O  O227  1  0.12090298  0.24475662  0.48779107  1
  O  O228  1  0.12745901  0.24135597  0.99461346  1
  O  O229  1  0.13743842  0.73667885  0.49439736  1
  O  O230  1  0.13312288  0.74256321  0.99919858  1
  O  O231  1  0.63105611  0.24301722  0.49454614  1
  O  O232  1  0.63860279  0.25824809  1.00418078  1
  O  O233  1  0.62721574  0.73562473  0.50608823  1
  O  O234  1  0.62387543  0.74186019  0.99370502  1
  O  O235  1  0.50032053  0.24039741  0.13184969  1
  O  O236  1  0.49000951  0.23763531  0.61919472  1
  O  O237  1  0.48977029  0.74947632  0.12380439  1
  O  O238  1  0.50301092  0.75096625  0.63841948  1
  O  O239  1  0.99253858  0.24155777  0.12969754  1
  O  O240  1  0.98869122  0.25026316  0.62513899  1
  O  O241  1  1.00061954  0.73134951  0.11656927  1
  O  O242  1  0.99892834  0.74706302  0.63248679  1
  O  O243  1  0.00650567  0.24883247  0.36790605  1
  O  O244  1  0.00431637  0.25803784  0.87442558  1
  O  O245  1  0.00249269  0.76455665  0.38140475  1
  O  O246  1  -0.00157712  0.76387129  0.87839814  1
  O  O247  1  0.50883573  0.25650902  0.36673809  1
  O  O248  1  0.49708672  0.26219381  0.88127017  1
  O  O249  1  0.49588156  0.75069938  0.36203200  1
  O  O250  1  0.50374378  0.76056987  0.86848942  1
  O  O251  1  0.24537157  0.12492056  0.50528955  1
  O  O252  1  0.23985067  0.12821569  1.00006518  1
  O  O253  1  0.24644433  0.63038974  0.49354992  1
  O  O254  1  0.24206858  0.62912105  0.99532319  1
  O  O255  1  0.74410433  0.13020479  0.49551527  1
  O  O256  1  0.75296460  0.13478887  0.99071502  1
  O  O257  1  0.74175617  0.62047719  0.48647276  1
  O  O258  1  0.73778832  0.62447960  0.99175644  1
  O  O259  1  0.25626410  0.37116108  0.00310002  1
  O  O260  1  0.26180816  0.37713913  0.50752108  1
  O  O261  1  0.26000259  0.86474946  -0.00693745  1
  O  O262  1  0.25521920  0.86087252  0.49790807  1
  O  O263  1  0.75536497  0.37113624  0.00449441  1
  O  O264  1  0.74719812  0.37088720  0.51072068  1
  O  O265  1  0.75437585  0.87365767  0.00430249  1
  O  O266  1  0.75814383  0.88200932  0.51093630  1
  O  O267  1  0.13114104  0.49419417  0.24482944  1
  O  O268  1  0.12841420  0.49055935  0.74353579  1
  O  O269  1  0.13969010  0.98643772  0.25459596  1
  O  O270  1  0.13610159  0.99934441  0.75052252  1
  O  O271  1  0.62883287  0.49804939  0.24373936  1
  O  O272  1  0.63409553  0.49644013  0.73779772  1
  O  O273  1  0.61762029  0.99854522  0.23112884  1
  O  O274  1  0.63061716  0.98687954  0.75273995  1
  O  O275  1  0.36268518  0.00008301  0.25175000  1
  O  O276  1  0.36553707  -0.00144839  0.75912568  1
  O  O277  1  0.36861244  0.50087819  0.25596641  1
  O  O278  1  0.37483674  0.51090993  0.75418543  1
  O  O279  1  0.88267194  -0.00405532  0.26559003  1
  O  O280  1  0.86362942  -0.00076860  0.75941403  1
  O  O281  1  0.86086330  0.49777576  0.24556260  1
  O  O282  1  0.86007974  0.49526987  0.75333980  1
  O  O283  1  0.12226388  0.36705809  0.36930015  1
  O  O284  1  0.11996549  0.37054931  0.86802452  1
  O  O285  1  0.11306044  0.87056106  0.38948103  1
  O  O286  1  0.10991274  0.87301777  0.88191581  1
  O  O287  1  0.62051309  0.37181196  0.37209393  1
  O  O288  1  0.61721131  0.37973544  0.86341949  1
  O  O289  1  0.61408261  0.88153316  0.37024977  1
  O  O290  1  0.61705754  0.87161706  0.86825828  1
  O  O291  1  0.38853148  0.12740855  0.12333028  1
  O  O292  1  0.38481654  0.13322429  0.62649909  1
  O  O293  1  0.37610339  0.63744061  0.12255204  1
  O  O294  1  0.37072347  0.62032251  0.63980022  1
  O  O295  1  0.88464126  0.12871766  0.12513843  1
  O  O296  1  0.87448040  0.13443551  0.62623564  1
  O  O297  1  0.88829366  0.62311298  0.12067053  1
  O  O298  1  0.88580996  0.63897317  0.61939994  1
  O  O299  1  0.24843132  0.25765799  0.11935507  1
  O  O300  1  0.25812337  0.26118080  0.62857089  1
  O  O301  1  0.26178655  0.74371004  0.11217403  1
  O  O302  1  0.24769885  0.74499847  0.61008701  1
  O  O303  1  0.75538280  0.25457186  0.11954016  1
  O  O304  1  0.75426331  0.25888139  0.61972232  1
  O  O305  1  0.75101527  0.75896365  0.12449154  1
  O  O306  1  0.75821122  0.76168672  0.63071433  1
  O  O307  1  0.24389902  0.25074073  0.37760119  1
  O  O308  1  0.24137142  0.24740590  0.88279396  1
  O  O309  1  0.25251295  0.73801061  0.37941404  1
  O  O310  1  0.24944324  0.73825915  0.88614171  1
  O  O311  1  0.74551742  0.24142439  0.38028043  1
  O  O312  1  0.75510303  0.23950210  0.88336365  1
  O  O313  1  0.75156446  0.73912879  0.37098690  1
  O  O314  1  0.74310837  0.74334708  0.87607518  1
  O  O315  1  0.00425246  0.11799006  0.00538732  1
  O  O316  1  0.00568875  0.11613173  0.50091346  1
  O  O317  1  0.00701478  0.61854624  0.00124397  1
  O  O318  1  0.00913168  0.61904311  0.50647173  1
  O  O319  1  0.50114311  0.12580539  0.01595991  1
  O  O320  1  0.51316669  0.12203922  0.51259409  1
  O  O321  1  0.51340565  0.61677302  -0.00726281  1
  O  O322  1  0.51562909  0.62628790  0.49350908  1
  O  O323  1  0.48485360  0.36487031  0.49298095  1
  O  O324  1  0.49316475  0.37975441  0.99647676  1
  O  O325  1  0.48681389  0.87661182  0.50285960  1
  O  O326  1  0.49222848  0.87589795  0.99057657  1
  O  O327  1  1.00291346  0.39446943  0.50143236  1
  O  O328  1  0.99368682  0.38090361  0.99443380  1
  O  O329  1  0.99189061  0.88259616  0.49199255  1
  O  O330  1  0.99074437  0.88147917  0.99653161  1
  O  O331  1  0.48813258  0.49512420  0.36695884  1
  O  O332  1  0.50234546  0.49120563  0.88906888  1
  O  O333  1  0.48764686  1.00495888  0.38231233  1
  O  O334  1  0.49226872  0.98894129  0.87507572  1
  O  O335  1  1.00544926  0.50322763  0.39063425  1
  O  O336  1  0.99341532  0.49498577  0.87893700  1
  O  O337  1  0.99613842  0.99250027  0.38539646  1
  O  O338  1  0.99030706  0.99212271  0.88332454  1
  O  O339  1  -0.00641668  0.00506484  0.11246058  1
  O  O340  1  0.00242963  0.00041089  0.61330453  1
  O  O341  1  0.00506166  0.50742350  0.11779190  1
  O  O342  1  0.00603256  0.50756001  0.61704502  1
  O  O343  1  0.50321415  0.01201835  0.12457804  1
  O  O344  1  0.49398737  0.01647653  0.62263042  1
  O  O345  1  0.50960503  0.49467226  0.11279340  1
  O  O346  1  0.51247688  0.49931357  0.62719547  1
  O  O347  1  0.24317905  0.38128249  0.24337272  1
  O  O348  1  0.23991690  0.37618870  0.74530116  1
  O  O349  1  0.24251897  0.87597935  0.24634921  1
  O  O350  1  0.25075464  0.88675659  0.76029254  1
  O  O351  1  0.74304932  0.38410686  0.24538818  1
  O  O352  1  0.74241023  0.38290376  0.73873034  1
  O  O353  1  0.74778030  0.87690739  0.23923393  1
  O  O354  1  0.74065723  0.88168923  0.74380225  1
  O  O355  1  0.24695221  0.11832104  0.25047081  1
  O  O356  1  0.25446589  0.11266966  0.75322011  1
  O  O357  1  0.25177023  0.62056992  0.25665812  1
  O  O358  1  0.26213834  0.62369538  0.75893146  1
  O  O359  1  0.75001038  0.12827366  0.26220848  1
  O  O360  1  0.74982017  0.11651624  0.75666468  1
  O  O361  1  0.74634704  0.61464112  0.26322942  1
  O  O362  1  0.74298470  0.61838326  0.75719634  1
  O  O363  1  0.36443736  0.13923905  0.39287912  1
  O  O364  1  0.37623247  0.11082024  0.87666683  1
  O  O365  1  0.36987453  0.61810900  0.37375866  1
  O  O366  1  0.36831596  0.62207016  0.87234790  1
  O  O367  1  0.86685287  0.11612141  0.37399317  1
  O  O368  1  0.86848702  0.11327543  0.87426361  1
  O  O369  1  0.86037574  0.62736482  0.38086490  1
  O  O370  1  0.86034756  0.62075112  0.88126663  1
  O  O371  1  0.12842757  0.37991672  0.12978487  1
  O  O372  1  0.13196001  0.37496137  0.63019861  1
  O  O373  1  0.12511712  0.87693347  0.12971517  1
  O  O374  1  0.10804891  0.86402463  0.63341636  1
  O  O375  1  0.63081028  0.38636231  0.13095386  1
  O  O376  1  0.62919458  0.38612292  0.62776819  1
  O  O377  1  0.63321486  0.88414030  0.12766756  1
  O  O378  1  0.63297411  0.87096522  0.63228570  1
  O  O379  1  0.11933768  0.25304840  0.26075229  1
  O  O380  1  0.12427348  0.25633503  0.75679617  1
  O  O381  1  0.12907279  0.76919548  0.24924924  1
  O  O382  1  0.12472402  0.74653288  0.75373153  1
  O  O383  1  0.61878723  0.25879559  0.25576646  1
  O  O384  1  0.62869872  0.26780353  0.74243713  1
  O  O385  1  0.61120174  0.75230697  0.24385799  1
  O  O386  1  0.61782400  0.75828884  0.75522241  1
  O  O387  1  0.39017416  0.25915111  0.24821233  1
  O  O388  1  0.37216942  0.24987183  0.74082898  1
  O  O389  1  0.37973124  0.74908149  0.23469950  1
  O  O390  1  0.38177835  0.73588612  0.75521332  1
  O  O391  1  0.87962694  0.24515696  0.23951129  1
  O  O392  1  0.87302586  0.25189728  0.73642467  1
  O  O393  1  0.89420661  0.79342827  0.23192438  1
  O  O394  1  0.87490593  0.75600616  0.74158588  1
  O  O395  1  0.37412307  0.49168266  0.49091132  1
  O  O396  1  0.38434042  0.49297521  1.00067104  1
  O  O397  1  0.36854358  0.98521951  0.50069308  1
  O  O398  1  0.37572395  0.99205489  0.99388951  1
  O  O399  1  0.88982826  0.50287613  0.50701854  1
  O  O400  1  0.87677283  0.49316506  0.99158460  1
  O  O401  1  0.88342209  0.99166721  0.49388259  1
  O  O402  1  0.88072646  0.99711617  0.99153611  1
  O  O403  1  0.11550193  0.01109198  -0.00524421  1
  O  O404  1  0.11970915  0.00580910  0.50394218  1
  O  O405  1  0.11906954  0.50661481  0.00480590  1
  O  O406  1  0.12280591  0.50981999  0.50431492  1
  O  O407  1  0.61898201  -0.00515949  0.01818270  1
  O  O408  1  0.62828543  0.01017568  0.50289228  1
  O  O409  1  0.62073643  0.50524506  0.00751691  1
  O  O410  1  0.62464902  0.50327065  0.51288525  1
  O  O411  1  0.36999235  0.37393764  0.11370014  1
  O  O412  1  0.37152629  0.36841359  0.61941833  1
  O  O413  1  0.38032759  0.86449166  0.11229866  1
  O  O414  1  0.37404296  0.87387758  0.61198712  1
  O  O415  1  0.86857964  0.36886790  0.11921009  1
  O  O416  1  0.86508241  0.36972058  0.61967307  1
  O  O417  1  0.86059466  0.89298225  0.10909059  1
  O  O418  1  0.86759819  0.86916105  0.61938841  1
  O  O419  1  0.12227486  0.13136460  0.38878457  1
  O  O420  1  0.12224190  0.13202023  0.88416379  1
  O  O421  1  0.13431572  0.62646254  0.38131680  1
  O  O422  1  0.13099820  0.62601262  0.88614464  1
  O  O423  1  0.63192100  0.12701787  0.38351401  1
  O  O424  1  0.63436096  0.11881538  0.87428291  1
  O  O425  1  0.63625405  0.61940220  0.38806942  1
  O  O426  1  0.63350971  0.62781268  0.88004835  1
