# generated using pymatgen
data_V85Zn86O256
_symmetry_space_group_name_H-M   'P 1'
_cell_length_a   16.96549334
_cell_length_b   16.94983331
_cell_length_c   16.97090623
_cell_angle_alpha   89.95489808
_cell_angle_beta   89.94613817
_cell_angle_gamma   90.05439144
_symmetry_Int_Tables_number   1
_chemical_formula_structural   V85Zn86O256
_chemical_formula_sum   'V85 Zn86 O256'
_cell_volume   4880.18669116
_cell_formula_units_Z   1
loop_
 _symmetry_equiv_pos_site_id
 _symmetry_equiv_pos_as_xyz
  1  'x, y, z'
loop_
 _atom_site_type_symbol
 _atom_site_label
 _atom_site_symmetry_multiplicity
 _atom_site_fract_x
 _atom_site_fract_y
 _atom_site_fract_z
 _atom_site_occupancy
  V  V0  1  0.50349641  0.75071895  0.25438957  1
  V  V1  1  0.62300608  0.49781294  0.63038122  1
  V  V2  1  0.50181899  0.25069409  0.75240089  1
  V  V3  1  0.75222603  0.00226856  0.75284768  1
  V  V4  1  0.61807659  0.25617513  0.37740081  1
  V  V5  1  0.63065923  0.75489377  0.88140063  1
  V  V6  1  0.37415865  0.24901594  0.12198398  1
  V  V7  1  0.63117947  -0.00722037  0.62236477  1
  V  V8  1  0.00041520  0.87664222  0.36391017  1
  V  V9  1  0.00608883  0.50613621  -0.00279982  1
  V  V10  1  0.86503216  0.75537510  0.62382700  1
  V  V11  1  0.12378357  0.74367383  0.87799539  1
  V  V12  1  0.87342823  0.37471188  0.49848147  1
  V  V13  1  0.49751920  -0.00380764  0.50087583  1
  V  V14  1  0.01245086  0.37982469  0.87254513  1
  V  V15  1  0.74841848  0.63274084  0.37239453  1
  V  V16  1  0.24835153  0.37737028  0.12121622  1
  V  V17  1  -0.00127926  0.74688836  0.74727552  1
  V  V18  1  0.25118633  0.62685434  0.37635926  1
  V  V19  1  0.62199382  0.12261007  0.49805168  1
  V  V20  1  0.74754751  0.37467202  0.63036279  1
  V  V21  1  0.75344154  0.37472355  0.11879778  1
  V  V22  1  0.23993112  0.87432838  0.13173638  1
  V  V23  1  0.63703483  0.87383269  0.25164398  1
  V  V24  1  0.37295431  0.37659282  -0.00598898  1
  V  V25  1  0.36835393  0.86133627  0.49877403  1
  V  V26  1  0.36626918  0.00729142  0.87561742  1
  V  V27  1  0.23629020  -0.00533146  0.24764658  1
  V  V28  1  0.12221649  0.75283198  0.36792416  1
  V  V29  1  -0.00115916  0.50109515  0.49717960  1
  V  V30  1  0.50018747  0.62259063  0.62689212  1
  V  V31  1  0.87586642  0.24912007  0.11700782  1
  V  V32  1  0.00120926  0.25004512  0.24762735  1
  V  V33  1  0.01023078  0.25371449  0.74769396  1
  V  V34  1  0.12425717  0.87156252  0.74627194  1
  V  V35  1  0.86454796  0.00123424  0.36675677  1
  V  V36  1  0.12420913  0.49445005  0.62779843  1
  V  V37  1  0.24675751  0.74631710  0.00105049  1
  V  V38  1  0.37383251  0.61696224  0.75584575  1
  V  V39  1  0.50083876  0.11690184  0.12908096  1
  V  V40  1  0.37389675  0.12336439  0.25508512  1
  V  V41  1  0.62849314  0.63114635  0.00162472  1
  V  V42  1  0.25850361  0.25840990  0.49418517  1
  V  V43  1  0.87715235  0.38132159  -0.00834801  1
  V  V44  1  0.63212441  0.87167449  0.74774697  1
  V  V45  1  0.49669852  0.26073128  0.25205411  1
  V  V46  1  0.49663001  0.87035394  0.87489068  1
  V  V47  1  0.00281962  0.37166428  0.37207447  1
  V  V48  1  0.50290401  0.86743947  0.37666642  1
  V  V49  1  0.01207225  0.11860770  0.11964414  1
  V  V50  1  0.13212650  0.23467659  0.87444776  1
  V  V51  1  0.00998586  0.63910415  0.11731215  1
  V  V52  1  0.50396825  0.37279887  0.87282628  1
  V  V53  1  0.87508577  0.61871107  0.75288493  1
  V  V54  1  0.49357723  0.12261458  0.62504163  1
  V  V55  1  0.75009381  0.49634533  0.75779195  1
  V  V56  1  0.12312696  0.37843927  0.24747179  1
  V  V57  1  0.63382717  0.37689708  0.25218788  1
  V  V58  1  0.36571465  0.74516610  0.62363428  1
  V  V59  1  -0.00258559  -0.00159399  0.49661245  1
  V  V60  1  0.87417642  0.12659539  0.75662651  1
  V  V61  1  0.75378814  0.62583395  0.88049750  1
  V  V62  1  0.37570080  0.87702176  -0.00058050  1
  V  V63  1  0.24944196  0.23612394  -0.00343788  1
  V  V64  1  0.86678811  0.49814998  0.36309412  1
  V  V65  1  0.51780472  0.01148709  -0.01198893  1
  V  V66  1  0.85728271  0.87621184  0.00003791  1
  V  V67  1  0.37271221  -0.00400670  0.37457777  1
  V  V68  1  0.37890523  0.75082373  0.12575545  1
  V  V69  1  0.74919936  0.24819441  0.49936542  1
  V  V70  1  0.87722800  0.24826743  0.62390733  1
  V  V71  1  0.49615925  0.50086801  -0.00407557  1
  V  V72  1  0.25057258  0.61829651  0.87913003  1
  V  V73  1  0.85322313  0.75195777  0.11862886  1
  V  V74  1  0.12463084  0.63274262  0.49917126  1
  V  V75  1  0.12550114  -0.00093229  0.62028547  1
  V  V76  1  0.50314847  0.62676344  0.12383345  1
  V  V77  1  0.63161998  0.50130262  0.12755786  1
  V  V78  1  0.64258550  0.00226695  0.13576841  1
  V  V79  1  0.49763823  0.74926945  0.75266024  1
  V  V80  1  0.24718397  0.49192155  0.75233719  1
  V  V81  1  -0.00254132  0.87524033  0.87864532  1
  V  V82  1  0.24299463  0.12668586  0.37249991  1
  V  V83  1  0.12394013  0.13365176  0.49609266  1
  V  V84  1  0.24730348  0.00296411  0.75085394  1
  Zn  Zn85  1  0.01265384  0.00701896  -0.00317208  1
  Zn  Zn86  1  -0.00244094  0.62268864  0.62393345  1
  Zn  Zn87  1  -0.00143961  0.75540364  0.24155771  1
  Zn  Zn88  1  0.24551160  0.86819567  0.61849661  1
  Zn  Zn89  1  0.36929252  0.12718697  0.75262281  1
  Zn  Zn90  1  0.37676196  0.25805447  0.62251872  1
  Zn  Zn91  1  0.74257849  0.12287255  0.36384672  1
  Zn  Zn92  1  0.87027140  0.12141341  0.24356423  1
  Zn  Zn93  1  0.37356279  0.62395988  0.24955748  1
  Zn  Zn94  1  0.62986001  0.62469156  0.49993538  1
  Zn  Zn95  1  0.38254157  0.48666535  0.37397216  1
  Zn  Zn96  1  0.12645095  0.50691446  0.12081598  1
  Zn  Zn97  1  0.87424643  0.62513603  0.24245821  1
  Zn  Zn98  1  0.86728820  0.87844685  0.50309418  1
  Zn  Zn99  1  0.66678286  0.31633347  0.80877418  1
  Zn  Zn100  1  0.72336233  0.21699108  0.96778054  1
  Zn  Zn101  1  -0.00041613  0.12543595  0.62336678  1
  Zn  Zn102  1  0.25250552  0.37614116  0.62255998  1
  Zn  Zn103  1  0.87374457  0.00478272  0.88062323  1
  Zn  Zn104  1  0.25274764  0.50175295  0.24954269  1
  Zn  Zn105  1  0.73673673  0.75765900  0.49916419  1
  Zn  Zn106  1  0.49350696  0.48798480  0.49730469  1
  Zn  Zn107  1  0.18564028  0.19232907  0.18842764  1
  Zn  Zn108  1  0.18772895  0.18672174  0.68215447  1
  Zn  Zn109  1  0.18591132  0.69167780  0.18990332  1
  Zn  Zn110  1  0.18585134  0.67895872  0.68790339  1
  Zn  Zn111  1  0.68878283  0.19027140  0.18190798  1
  Zn  Zn112  1  0.68705631  0.18102719  0.68492813  1
  Zn  Zn113  1  0.68757126  0.68556426  0.19767838  1
  Zn  Zn114  1  0.68716783  0.68470324  0.69140675  1
  Zn  Zn115  1  0.30535978  0.31101665  0.31020839  1
  Zn  Zn116  1  0.31834105  0.30954781  0.81388781  1
  Zn  Zn117  1  0.31087642  0.80593364  0.31424615  1
  Zn  Zn118  1  0.30838074  0.81221473  0.80982789  1
  Zn  Zn119  1  0.80979391  0.30312392  0.30775167  1
  Zn  Zn120  1  0.82938035  0.30999848  0.81653795  1
  Zn  Zn121  1  0.82072788  0.81116394  0.31211861  1
  Zn  Zn122  1  0.81133150  0.81273564  0.81270330  1
  Zn  Zn123  1  0.18433666  0.44325581  0.43267431  1
  Zn  Zn124  1  0.18416185  0.43521364  0.93739164  1
  Zn  Zn125  1  0.18623471  0.93591479  0.43537581  1
  Zn  Zn126  1  0.18545335  0.93553030  0.93696048  1
  Zn  Zn127  1  0.68233963  0.43838529  0.44322561  1
  Zn  Zn128  1  0.68829714  0.44197465  0.94328714  1
  Zn  Zn129  1  0.68831251  0.93005655  0.43781118  1
  Zn  Zn130  1  0.69216008  1.03592546  0.94612161  1
  Zn  Zn131  1  0.31351308  0.05814009  0.06727567  1
  Zn  Zn132  1  0.31059617  0.06053804  0.55863949  1
  Zn  Zn133  1  0.31410027  0.56267614  0.06346551  1
  Zn  Zn134  1  0.31295022  0.55612117  0.55878912  1
  Zn  Zn135  1  0.82444834  0.06100852  0.06345029  1
  Zn  Zn136  1  0.81129408  0.06234167  0.56274337  1
  Zn  Zn137  1  0.81768125  0.56107639  0.06083903  1
  Zn  Zn138  1  0.81286737  0.56458114  0.56273771  1
  Zn  Zn139  1  0.43531090  0.44061600  0.18890894  1
  Zn  Zn140  1  0.43248106  0.43343660  0.68626689  1
  Zn  Zn141  1  0.43515314  0.93612087  0.18947768  1
  Zn  Zn142  1  0.43549552  0.93389250  0.68666465  1
  Zn  Zn143  1  0.94046606  0.44119851  0.18045007  1
  Zn  Zn144  1  0.93734502  0.43602526  0.68878034  1
  Zn  Zn145  1  0.93279347  0.93604668  0.18310729  1
  Zn  Zn146  1  0.93907093  0.93703996  0.68803095  1
  Zn  Zn147  1  0.05765779  0.06438491  0.30944354  1
  Zn  Zn148  1  0.05963570  0.06229739  0.80882353  1
  Zn  Zn149  1  0.05889547  0.56495734  0.30627641  1
  Zn  Zn150  1  0.06407989  0.56264990  0.81310265  1
  Zn  Zn151  1  0.56036225  0.06073712  0.31410439  1
  Zn  Zn152  1  0.55423190  0.05388721  0.80544549  1
  Zn  Zn153  1  0.56514671  0.56121399  0.30965751  1
  Zn  Zn154  1  0.56541158  0.56040850  0.81421085  1
  Zn  Zn155  1  0.43706643  0.32280877  0.44067267  1
  Zn  Zn156  1  0.54779650  0.18434822  0.94218925  1
  Zn  Zn157  1  0.45423821  0.65599228  0.42477804  1
  Zn  Zn158  1  0.43633845  0.68601963  0.93811339  1
  Zn  Zn159  1  0.93724835  0.18536242  0.43420719  1
  Zn  Zn160  1  0.94319581  0.18969330  0.93871791  1
  Zn  Zn161  1  0.93507053  0.68641373  0.43654979  1
  Zn  Zn162  1  0.93351021  0.69302770  0.94136301  1
  Zn  Zn163  1  0.06464137  0.31024911  0.05799492  1
  Zn  Zn164  1  0.06557161  0.31500339  0.56032969  1
  Zn  Zn165  1  0.07450381  0.84226421  0.05114973  1
  Zn  Zn166  1  0.05488315  0.81341552  0.55955853  1
  Zn  Zn167  1  0.56153054  0.31369604  0.06615708  1
  Zn  Zn168  1  0.56522375  0.31035068  0.57133992  1
  Zn  Zn169  1  0.56860215  0.82223065  0.06409175  1
  Zn  Zn170  1  0.56040523  0.80575683  0.56319351  1
  O  O171  1  0.11061211  0.12997696  0.12917995  1
  O  O172  1  0.12252779  0.11567500  0.61346702  1
  O  O173  1  0.11347135  0.62827048  0.12329557  1
  O  O174  1  0.12115038  0.61546966  0.61475209  1
  O  O175  1  0.61539662  0.11009646  0.13647963  1
  O  O176  1  0.61550156  0.11345055  0.61879743  1
  O  O177  1  0.62448074  0.61942453  0.12225508  1
  O  O178  1  0.61592494  0.61550868  0.63420453  1
  O  O179  1  0.38318649  0.37260854  0.35757722  1
  O  O180  1  0.38582774  0.37236368  0.88806128  1
  O  O181  1  0.38395795  0.87244374  0.38153164  1
  O  O182  1  0.37682429  0.87265372  0.88440726  1
  O  O183  1  0.87899715  0.38346821  0.37702260  1
  O  O184  1  0.89483819  0.37155867  0.88504960  1
  O  O185  1  0.88236562  0.88650012  0.37746607  1
  O  O186  1  0.87865224  0.87521380  0.88161038  1
  O  O187  1  0.25512447  0.00414693  0.36881771  1
  O  O188  1  0.25349209  -0.01142191  0.86427707  1
  O  O189  1  0.24722543  0.51606047  0.37037422  1
  O  O190  1  0.24121076  0.51234459  0.87132499  1
  O  O191  1  0.76241359  0.00242232  0.37948473  1
  O  O192  1  0.75384753  -0.00316000  0.85626676  1
  O  O193  1  0.76510167  0.50228257  0.38247871  1
  O  O194  1  0.74523158  0.50757766  0.86453868  1
  O  O195  1  0.24776057  0.48950962  0.12446794  1
  O  O196  1  0.24144438  0.50314922  0.63516493  1
  O  O197  1  0.25404651  0.98672712  0.13478240  1
  O  O198  1  0.23757985  0.99513209  0.62616164  1
  O  O199  1  0.74345462  0.48997722  0.12029692  1
  O  O200  1  0.74743994  0.49357717  0.63559586  1
  O  O201  1  0.74040330  1.00698434  0.13070637  1
  O  O202  1  0.73671035  1.00246544  0.63191649  1
  O  O203  1  0.00417735  0.37232708  0.25259003  1
  O  O204  1  -0.00395668  0.36237770  0.75728408  1
  O  O205  1  -0.00238621  0.87723922  0.26036925  1
  O  O206  1  0.00259596  0.86557071  0.75829777  1
  O  O207  1  0.51161147  0.36311632  0.23527910  1
  O  O208  1  0.49479426  0.36599984  0.76147922  1
  O  O209  1  0.50254773  0.86804469  0.25879559  1
  O  O210  1  0.50394822  0.86753652  0.75624465  1
  O  O211  1  0.49112941  0.13174890  0.24848393  1
  O  O212  1  0.49592006  0.12766916  0.74073998  1
  O  O213  1  0.50334613  0.63668144  0.23974151  1
  O  O214  1  0.49181317  0.62782525  0.74868492  1
  O  O215  1  0.99563510  0.13566539  0.24263893  1
  O  O216  1  0.99587001  0.13635480  0.74437195  1
  O  O217  1  0.99404766  0.62786371  0.23045171  1
  O  O218  1  0.99139404  0.62988648  0.74965603  1
  O  O219  1  0.36418030  0.26210950  0.00896806  1
  O  O220  1  0.36085518  0.24952360  0.49686412  1
  O  O221  1  0.37242234  0.75930806  0.00568860  1
  O  O222  1  0.38374030  0.75469153  0.51193447  1
  O  O223  1  0.88423836  0.26256264  0.00921103  1
  O  O224  1  0.87065059  0.25424572  0.50399835  1
  O  O225  1  0.86622782  0.75964393  0.00948977  1
  O  O226  1  0.87985818  0.74785244  0.51880520  1
  O  O227  1  0.12871598  0.23665454  0.50055327  1
  O  O228  1  0.13514257  0.25306097  0.98434911  1
  O  O229  1  0.11248643  0.73659038  0.49359076  1
  O  O230  1  0.13644991  0.75637634  0.98977028  1
  O  O231  1  0.62766558  0.24079144  0.49415362  1
  O  O232  1  0.62032055  0.24297303  1.00501057  1
  O  O233  1  0.62485213  0.73825061  0.50632554  1
  O  O234  1  0.61970978  0.74661014  0.99185122  1
  O  O235  1  0.49420571  0.23710521  0.13387934  1
  O  O236  1  0.49707549  0.23853390  0.63086533  1
  O  O237  1  0.49567544  0.74954820  0.12998040  1
  O  O238  1  0.48928074  0.74191665  0.63786185  1
  O  O239  1  0.99580322  0.24473386  0.12811308  1
  O  O240  1  0.99867918  0.25213021  0.63149222  1
  O  O241  1  1.00155787  0.74220492  0.11694544  1
  O  O242  1  0.99475580  0.74694416  0.63724891  1
  O  O243  1  -0.00977392  0.26172894  0.36363569  1
  O  O244  1  0.01410492  0.25442366  0.86794975  1
  O  O245  1  0.00028255  0.75966163  0.37252933  1
  O  O246  1  0.00546584  0.74931737  0.86369725  1
  O  O247  1  0.51226519  0.25053640  0.36566625  1
  O  O248  1  0.50262040  0.25879137  0.86588439  1
  O  O249  1  0.49601618  0.75232012  0.36309755  1
  O  O250  1  0.50735426  0.75152190  0.87074976  1
  O  O251  1  0.24380335  0.13036201  0.49023527  1
  O  O252  1  0.25598936  0.13731949  1.00815960  1
  O  O253  1  0.23603656  0.62129580  0.48784730  1
  O  O254  1  0.25791902  0.63696591  0.99343152  1
  O  O255  1  0.73618286  0.12933661  0.50056025  1
  O  O256  1  0.75947890  0.11414605  0.99057111  1
  O  O257  1  0.75404318  0.62670185  0.48746131  1
  O  O258  1  0.74679987  0.61736888  0.98661053  1
  O  O259  1  0.25627674  0.37203385  0.00435498  1
  O  O260  1  0.23822973  0.35891212  0.49081726  1
  O  O261  1  0.25970999  0.86293431  0.00827316  1
  O  O262  1  0.26409836  0.87660226  0.49899195  1
  O  O263  1  0.76373550  0.38095413  0.00428811  1
  O  O264  1  0.75529745  0.36989680  0.50936535  1
  O  O265  1  0.76239570  0.88656933  -0.00715906  1
  O  O266  1  0.75466074  0.86965877  0.50075135  1
  O  O267  1  0.12318212  0.48949898  0.24319526  1
  O  O268  1  0.13345540  0.50729547  0.73914001  1
  O  O269  1  0.13761628  1.00114751  0.25600863  1
  O  O270  1  0.12743327  0.99422637  0.74007376  1
  O  O271  1  0.61939279  0.49128384  0.23644936  1
  O  O272  1  0.63684342  0.50173451  0.74182339  1
  O  O273  1  0.62165972  0.98945329  0.24417819  1
  O  O274  1  0.63109628  0.99240518  0.74213552  1
  O  O275  1  0.36997361  0.00685885  0.25654619  1
  O  O276  1  0.36357966  -0.00531896  0.75675519  1
  O  O277  1  0.37252735  0.50769909  0.25343454  1
  O  O278  1  0.36682541  0.51236446  0.74961862  1
  O  O279  1  0.87583865  -0.00009640  0.26345731  1
  O  O280  1  0.86880566  0.00824872  0.74584840  1
  O  O281  1  0.87764448  0.49819719  0.26128424  1
  O  O282  1  0.86751382  0.51041673  0.74644245  1
  O  O283  1  0.11043397  0.38165141  0.36462735  1
  O  O284  1  0.11568968  0.36516238  0.87490509  1
  O  O285  1  0.11345254  0.86398026  0.38458727  1
  O  O286  1  0.11691778  0.86056640  0.86396954  1
  O  O287  1  0.63109760  0.36992552  0.36425329  1
  O  O288  1  0.60970106  0.38515646  0.88022407  1
  O  O289  1  0.61025489  0.88178726  0.36480383  1
  O  O290  1  0.61505929  0.86494229  0.86403476  1
  O  O291  1  0.37941103  0.12667805  0.13865224  1
  O  O292  1  0.38651113  0.12142680  0.62273522  1
  O  O293  1  0.38304345  0.63778189  0.12304455  1
  O  O294  1  0.37917525  0.62857386  0.63500927  1
  O  O295  1  0.88600483  0.13635637  0.12550740  1
  O  O296  1  0.87853838  0.13243369  0.63052338  1
  O  O297  1  0.87952652  0.64075873  0.12021143  1
  O  O298  1  0.87681858  0.63276725  0.63645659  1
  O  O299  1  0.25227647  0.25997005  0.11819738  1
  O  O300  1  0.24966242  0.24877238  0.60646483  1
  O  O301  1  0.26079292  0.75022810  0.11877166  1
  O  O302  1  0.26158261  0.74684658  0.63037517  1
  O  O303  1  0.75942892  0.26366476  0.11856233  1
  O  O304  1  0.75395088  0.25665713  0.62058847  1
  O  O305  1  0.75527046  0.74726629  0.12499272  1
  O  O306  1  0.76356836  0.74446781  0.62891416  1
  O  O307  1  0.24806123  0.23891051  0.38310272  1
  O  O308  1  0.23986029  0.25128543  0.87963996  1
  O  O309  1  0.23440554  0.74138703  0.37374966  1
  O  O310  1  0.24285123  0.74333884  0.88141154  1
  O  O311  1  0.73822985  0.25156823  0.38472325  1
  O  O312  1  0.74474363  0.25914485  0.86637025  1
  O  O313  1  0.76355656  0.73547359  0.37878945  1
  O  O314  1  0.73745531  0.74164428  0.86858727  1
  O  O315  1  0.00135049  0.12349790  0.01343422  1
  O  O316  1  0.00778426  0.11543533  0.49741192  1
  O  O317  1  -0.00496555  0.62120835  0.00842485  1
  O  O318  1  0.00366339  0.61485130  0.50024568  1
  O  O319  1  0.48528136  0.11204049  0.01586613  1
  O  O320  1  0.51265327  0.11481460  0.50879141  1
  O  O321  1  0.50583625  0.61962861  0.00489797  1
  O  O322  1  0.50230676  0.62660089  0.52394425  1
  O  O323  1  0.51587473  0.37599886  0.49743667  1
  O  O324  1  0.49180642  0.38228409  0.99807244  1
  O  O325  1  0.49236692  0.87661307  0.49272184  1
  O  O326  1  0.49440463  0.88654990  0.99537401  1
  O  O327  1  0.99562903  0.37951624  0.48956885  1
  O  O328  1  0.99757339  0.38313646  0.99296492  1
  O  O329  1  0.99456930  0.88796192  0.49271339  1
  O  O330  1  0.98546584  0.85495788  0.98016477  1
  O  O331  1  0.48943425  0.54430136  0.38886773  1
  O  O332  1  0.50308146  0.49705847  0.88980390  1
  O  O333  1  0.49175311  0.98972163  0.38027426  1
  O  O334  1  0.48312013  0.98533091  0.87776783  1
  O  O335  1  0.99013812  0.49422293  0.37956653  1
  O  O336  1  1.00640690  0.49232244  0.88101234  1
  O  O337  1  0.99328259  0.99519697  0.38000250  1
  O  O338  1  0.99837873  0.98861391  0.87418192  1
  O  O339  1  -0.00423365  0.01682301  0.12969668  1
  O  O340  1  0.00967160  -0.00013577  0.61650425  1
  O  O341  1  0.00079718  0.51451396  0.11450480  1
  O  O342  1  0.00513000  0.49836889  0.61624960  1
  O  O343  1  0.49976663  0.00851414  0.12297026  1
  O  O344  1  0.50635743  0.00360415  0.62157696  1
  O  O345  1  0.50782358  0.50641586  0.11552302  1
  O  O346  1  0.50901804  0.50542851  0.63352099  1
  O  O347  1  0.23841925  0.37453254  0.23952028  1
  O  O348  1  0.25540939  0.39016010  0.75697726  1
  O  O349  1  0.26170655  0.88363189  0.24328418  1
  O  O350  1  0.24053962  0.88183497  0.74334850  1
  O  O351  1  0.73937964  0.36951964  0.23906471  1
  O  O352  1  0.75454734  0.38116192  0.74689746  1
  O  O353  1  0.73485104  0.87059766  0.26176824  1
  O  O354  1  0.73744192  0.87906802  0.74943589  1
  O  O355  1  0.25315870  0.12049065  0.25370568  1
  O  O356  1  0.25044854  0.10748443  0.74062193  1
  O  O357  1  0.24708618  0.62474473  0.26099852  1
  O  O358  1  0.25616802  0.61809870  0.75998915  1
  O  O359  1  0.76045672  0.14661057  0.25468212  1
  O  O360  1  0.76153723  0.11614088  0.74346717  1
  O  O361  1  0.75803939  0.62520281  0.26486094  1
  O  O362  1  0.75614675  0.61695657  0.75980505  1
  O  O363  1  0.36035583  0.11817466  0.36230016  1
  O  O364  1  0.37422815  0.10566358  0.87222756  1
  O  O365  1  0.35283090  0.64317248  0.37199965  1
  O  O366  1  0.36334744  0.63116821  0.86756717  1
  O  O367  1  0.87484345  0.11013057  0.37332589  1
  O  O368  1  0.88636291  0.12457100  0.86027491  1
  O  O369  1  0.87158503  0.61107047  0.37196604  1
  O  O370  1  0.86524983  0.63509818  0.86523042  1
  O  O371  1  0.13227655  0.37616502  0.12854390  1
  O  O372  1  0.13201924  0.38989468  0.61772955  1
  O  O373  1  0.14350653  0.85219524  0.14116809  1
  O  O374  1  0.12354216  0.87996749  0.62685790  1
  O  O375  1  0.63455471  0.38274140  0.12775428  1
  O  O376  1  0.64057144  0.38032047  0.62797800  1
  O  O377  1  0.62266167  0.88720231  0.14355024  1
  O  O378  1  0.61185432  0.88322965  0.63631117  1
  O  O379  1  0.11091899  0.26357509  0.24542381  1
  O  O380  1  0.12195889  0.24539819  0.75897841  1
  O  O381  1  0.11584917  0.74594941  0.26453497  1
  O  O382  1  0.11667848  0.74984251  0.75305183  1
  O  O383  1  0.61751233  0.25844683  0.25587982  1
  O  O384  1  0.60917487  0.24494380  0.74109188  1
  O  O385  1  0.61657035  0.76425423  0.24553541  1
  O  O386  1  0.61882238  0.75552973  0.75545199  1
  O  O387  1  0.38061912  0.24206634  0.24333760  1
  O  O388  1  0.38536484  0.24362887  0.74730863  1
  O  O389  1  0.38425706  0.74883097  0.24003356  1
  O  O390  1  0.37790703  0.74097073  0.74524838  1
  O  O391  1  0.88791605  0.25931633  0.23359291  1
  O  O392  1  0.88652690  0.24306701  0.74173818  1
  O  O393  1  0.87859608  0.75330178  0.22994440  1
  O  O394  1  0.88047600  0.74331939  0.74259676  1
  O  O395  1  0.37864020  0.50331299  0.48968712  1
  O  O396  1  0.38468184  0.49041343  1.00738454  1
  O  O397  1  0.38035599  0.99096715  0.49385327  1
  O  O398  1  0.37378339  0.98820671  0.99377299  1
  O  O399  1  0.88513991  0.49385428  0.49593873  1
  O  O400  1  0.88905352  0.48973500  1.00198110  1
  O  O401  1  0.88314009  1.00185322  0.49300184  1
  O  O402  1  0.88814854  0.98422674  1.00003729  1
  O  O403  1  0.10837118  -0.04932969  0.01263437  1
  O  O404  1  0.11907751  0.00626821  0.50417675  1
  O  O405  1  0.11153392  0.49785240  0.00220789  1
  O  O406  1  0.11306277  0.50752946  0.50247557  1
  O  O407  1  0.61830912  -0.01393242  0.02621952  1
  O  O408  1  0.61994180  0.00240550  0.50571419  1
  O  O409  1  0.61860684  0.50853704  0.01173424  1
  O  O410  1  0.62606333  0.50558177  0.51879964  1
  O  O411  1  0.36703547  0.36975740  0.11953687  1
  O  O412  1  0.36525888  0.37165743  0.62462008  1
  O  O413  1  0.37293913  0.86481264  0.11773601  1
  O  O414  1  0.37371200  0.86325396  0.61687020  1
  O  O415  1  0.87025718  0.37313359  0.11548621  1
  O  O416  1  0.86577228  0.36941554  0.62040420  1
  O  O417  1  0.87597556  0.86394819  0.11113301  1
  O  O418  1  0.88021135  0.85858830  0.62746997  1
  O  O419  1  0.13484787  0.11803592  0.38101830  1
  O  O420  1  0.12252370  0.13558967  0.87434082  1
  O  O421  1  0.12634953  0.63086313  0.38018954  1
  O  O422  1  0.13371697  0.63711205  0.87093831  1
  O  O423  1  0.62300214  0.13149369  0.38298261  1
  O  O424  1  0.59160390  0.08136370  0.90867125  1
  O  O425  1  0.64664568  0.61672438  0.37434497  1
  O  O426  1  0.63133250  0.63362611  0.88084765  1
