# generated using pymatgen
data_V85Zn86O256
_symmetry_space_group_name_H-M   'P 1'
_cell_length_a   16.93703160
_cell_length_b   16.93813495
_cell_length_c   16.91752220
_cell_angle_alpha   90.00524410
_cell_angle_beta   89.94027225
_cell_angle_gamma   90.06074302
_symmetry_Int_Tables_number   1
_chemical_formula_structural   V85Zn86O256
_chemical_formula_sum   'V85 Zn86 O256'
_cell_volume   4853.32259724
_cell_formula_units_Z   1
loop_
 _symmetry_equiv_pos_site_id
 _symmetry_equiv_pos_as_xyz
  1  'x, y, z'
loop_
 _atom_site_type_symbol
 _atom_site_label
 _atom_site_symmetry_multiplicity
 _atom_site_fract_x
 _atom_site_fract_y
 _atom_site_fract_z
 _atom_site_occupancy
  V  V0  1  0.87884926  0.37486571  0.49217411  1
  V  V1  1  0.87517352  -0.00231358  0.88100379  1
  V  V2  1  0.75001136  0.63763106  0.87901215  1
  V  V3  1  0.87235966  0.87653756  0.49766004  1
  V  V4  1  0.00092489  0.62497247  0.62240029  1
  V  V5  1  0.87857206  0.25043259  0.62511291  1
  V  V6  1  0.60706085  0.87310269  0.75723939  1
  V  V7  1  0.00615824  0.00187154  0.49914586  1
  V  V8  1  0.37526471  0.25454655  0.61745925  1
  V  V9  1  0.00675251  0.37976640  0.86926540  1
  V  V10  1  0.51180764  0.88143888  0.36941798  1
  V  V11  1  -0.00088693  0.87450897  0.37390093  1
  V  V12  1  0.49477522  0.49335783  0.00356139  1
  V  V13  1  0.75074553  0.49882066  0.75292507  1
  V  V14  1  0.13181977  0.25395795  0.88070401  1
  V  V15  1  0.88176745  0.13343191  0.23120410  1
  V  V16  1  0.49783012  0.00407816  0.50944927  1
  V  V17  1  0.74723846  0.87919242  0.62973246  1
  V  V18  1  0.62281092  0.24941520  0.87385635  1
  V  V19  1  0.00095246  0.00302006  0.00496920  1
  V  V20  1  0.89828777  0.34515371  0.01730708  1
  V  V21  1  0.74971614  0.24952948  0.49828841  1
  V  V22  1  0.12586065  0.49718922  0.12739985  1
  V  V23  1  0.37491295  0.13499556  0.25408106  1
  V  V24  1  0.25118498  0.00545072  0.25488915  1
  V  V25  1  0.50282421  0.13106988  0.13377527  1
  V  V26  1  -0.00190803  0.62771419  0.12851206  1
  V  V27  1  0.38953738  0.62657999  0.74456566  1
  V  V28  1  0.74652291  0.25315826  0.00364141  1
  V  V29  1  0.49968641  0.24412853  0.74043473  1
  V  V30  1  0.12818659  0.87589152  0.24651054  1
  V  V31  1  0.75228587  0.37423638  0.62596289  1
  V  V32  1  0.87083330  0.75573066  0.11459611  1
  V  V33  1  0.12196563  0.49401369  0.63085013  1
  V  V34  1  0.49794473  0.50353190  0.50611309  1
  V  V35  1  0.11391319  0.23619579  0.37634616  1
  V  V36  1  0.37366970  0.12315424  0.74360073  1
  V  V37  1  0.49074678  0.37266057  0.87829943  1
  V  V38  1  0.75269598  0.37580452  0.13084739  1
  V  V39  1  0.62486306  0.37577117  0.74970601  1
  V  V40  1  0.73973896  0.74068539  0.49919379  1
  V  V41  1  0.37613924  -0.00760739  0.87683398  1
  V  V42  1  0.62188116  0.24964689  0.36550232  1
  V  V43  1  0.25395856  0.62408007  0.37661295  1
  V  V44  1  0.87456588  0.49843784  0.87891702  1
  V  V45  1  0.74943968  -0.01064079  0.24980862  1
  V  V46  1  0.00739711  0.12557149  0.62157199  1
  V  V47  1  0.11529454  0.36995009  0.26062804  1
  V  V48  1  0.75155864  0.12710947  0.87637157  1
  V  V49  1  0.25129650  0.62358823  0.87036691  1
  V  V50  1  0.25435602  0.49545965  0.25166158  1
  V  V51  1  0.12602608  0.62753588  0.00128159  1
  V  V52  1  0.00080828  0.49960177  0.48790759  1
  V  V53  1  -0.00231367  0.50601041  0.00045108  1
  V  V54  1  0.85872952  0.62507696  0.25243332  1
  V  V55  1  0.00891129  0.25479587  0.75036783  1
  V  V56  1  0.62232123  0.12668363  0.50815781  1
  V  V57  1  0.12397346  0.01105402  0.12704510  1
  V  V58  1  0.62878273  0.49866248  0.13363361  1
  V  V59  1  0.74644499  0.87120533  0.10754658  1
  V  V60  1  0.85691499  0.50183125  0.36998293  1
  V  V61  1  0.87557931  0.62486462  0.75114247  1
  V  V62  1  0.24723196  0.86881576  0.63038705  1
  V  V63  1  0.00305321  0.75786626  0.74675812  1
  V  V64  1  0.87778480  0.12589582  0.75421113  1
  V  V65  1  -0.00147607  0.87564732  0.87906580  1
  V  V66  1  0.49665387  0.00262278  0.00007546  1
  V  V67  1  0.24476358  0.37257635  0.62192540  1
  V  V68  1  0.87409860  0.75084222  0.62329676  1
  V  V69  1  0.62992375  0.62816774  0.00115647  1
  V  V70  1  0.12664823  0.75714660  0.87099911  1
  V  V71  1  0.24902620  0.75782062  0.00312418  1
  V  V72  1  0.25255214  0.37022009  0.11495738  1
  V  V73  1  0.37271609  0.00158160  0.37569870  1
  V  V74  1  0.37477257  0.25306571  0.10959060  1
  V  V75  1  -0.00405395  0.74981466  0.25013853  1
  V  V76  1  0.25233998  0.12872787  0.88249165  1
  V  V77  1  0.48974261  0.36972113  0.37611371  1
  V  V78  1  0.49777374  0.62495179  0.12934701  1
  V  V79  1  0.75278923  0.12312899  0.37202624  1
  V  V80  1  0.12666920  0.74852217  0.37591843  1
  V  V81  1  0.62185334  -0.00529391  0.12894188  1
  V  V82  1  0.12442761  -0.00435506  0.63403252  1
  V  V83  1  0.24781386  0.23738685  0.49137509  1
  V  V84  1  0.62383055  0.73618733  0.37061439  1
  Zn  Zn85  1  0.50192825  0.75948034  0.24489314  1
  Zn  Zn86  1  0.24890361  0.49324175  0.74983983  1
  Zn  Zn87  1  0.38408569  0.74963872  0.62424363  1
  Zn  Zn88  1  0.74765741  -0.00019503  0.75167979  1
  Zn  Zn89  1  0.62725469  0.50342620  0.61751079  1
  Zn  Zn90  1  0.37164081  0.49552549  0.87548054  1
  Zn  Zn91  1  0.53398332  0.65212060  0.60765806  1
  Zn  Zn92  1  0.12853657  0.13101924  0.00617811  1
  Zn  Zn93  1  0.62567127  0.37492204  0.25185276  1
  Zn  Zn94  1  0.37435765  0.87202042  0.49995128  1
  Zn  Zn95  1  0.37699952  0.62881398  0.25178576  1
  Zn  Zn96  1  0.62208701  0.00504376  0.63077771  1
  Zn  Zn97  1  0.62427688  0.12621640  0.00227314  1
  Zn  Zn98  1  0.60211282  0.75541870  0.87747073  1
  Zn  Zn99  1  0.25340031  0.75016943  0.49960219  1
  Zn  Zn100  1  0.12640732  0.62218498  0.49933316  1
  Zn  Zn101  1  0.26170845  0.87926595  0.12190663  1
  Zn  Zn102  1  0.37467176  0.75212257  0.12759837  1
  Zn  Zn103  1  0.41285797  0.84298647  -0.02093025  1
  Zn  Zn104  1  0.37327309  0.49604153  0.38248285  1
  Zn  Zn105  1  0.87677648  0.00158521  0.36994089  1
  Zn  Zn106  1  0.24569801  -0.00288676  0.75345496  1
  Zn  Zn107  1  0.19185030  0.19047896  0.19319190  1
  Zn  Zn108  1  0.18992472  0.18651687  0.68881387  1
  Zn  Zn109  1  0.18895282  0.68623416  0.19029598  1
  Zn  Zn110  1  0.18598754  0.68470824  0.68750443  1
  Zn  Zn111  1  0.69433619  0.18447451  0.18717700  1
  Zn  Zn112  1  0.69121137  0.18868527  0.68824419  1
  Zn  Zn113  1  0.68205159  0.69254582  0.18570989  1
  Zn  Zn114  1  0.68604620  0.69352229  0.69522559  1
  Zn  Zn115  1  0.30620840  0.31216079  0.31190846  1
  Zn  Zn116  1  0.31056186  0.31221223  0.80471194  1
  Zn  Zn117  1  0.31746897  0.81466962  0.31179512  1
  Zn  Zn118  1  0.31336153  0.81013553  0.80817882  1
  Zn  Zn119  1  0.81626058  0.31037112  0.31197007  1
  Zn  Zn120  1  0.81812860  0.31349854  0.81993850  1
  Zn  Zn121  1  0.80781549  0.80953162  0.31268539  1
  Zn  Zn122  1  0.81470423  0.81491465  0.81346295  1
  Zn  Zn123  1  0.18936280  0.43259034  0.44206305  1
  Zn  Zn124  1  0.18530772  0.43949294  0.93725616  1
  Zn  Zn125  1  0.18844345  0.93819950  0.44061224  1
  Zn  Zn126  1  0.18638879  0.94051577  0.93554359  1
  Zn  Zn127  1  0.68225559  0.43547813  0.43947434  1
  Zn  Zn128  1  0.68706379  0.43799259  0.94376638  1
  Zn  Zn129  1  0.68653708  0.93991558  0.44125451  1
  Zn  Zn130  1  0.68279222  0.94245884  0.93722926  1
  Zn  Zn131  1  0.31277650  0.06369378  0.06501380  1
  Zn  Zn132  1  0.30927186  0.06238388  0.56332301  1
  Zn  Zn133  1  0.31312951  0.56275862  0.06184656  1
  Zn  Zn134  1  0.31534121  0.55883976  0.56123487  1
  Zn  Zn135  1  0.80945053  0.06014915  0.06005796  1
  Zn  Zn136  1  0.81500990  0.06244322  0.56266319  1
  Zn  Zn137  1  0.81236283  0.56192571  0.06635860  1
  Zn  Zn138  1  0.81114052  0.56143784  0.56289059  1
  Zn  Zn139  1  0.43928750  0.43162104  0.19257150  1
  Zn  Zn140  1  0.43269172  0.43693870  0.68787781  1
  Zn  Zn141  1  0.43366426  0.93475420  0.18349612  1
  Zn  Zn142  1  0.43215311  0.93506120  0.68699092  1
  Zn  Zn143  1  0.93671003  0.43865598  0.19148988  1
  Zn  Zn144  1  0.93837092  0.43833340  0.68487233  1
  Zn  Zn145  1  0.93317300  0.93938958  0.18576630  1
  Zn  Zn146  1  0.93567203  0.93827239  0.68965144  1
  Zn  Zn147  1  0.05792938  0.06373917  0.30963937  1
  Zn  Zn148  1  0.06311241  0.06680206  0.81568118  1
  Zn  Zn149  1  0.06260221  0.56221330  0.31081148  1
  Zn  Zn150  1  0.06474760  0.56871836  0.81033115  1
  Zn  Zn151  1  0.56403301  0.06334180  0.31242899  1
  Zn  Zn152  1  0.56084221  0.06127412  0.81145538  1
  Zn  Zn153  1  0.56011878  0.55578120  0.31491190  1
  Zn  Zn154  1  0.56480927  0.55992100  0.81493249  1
  Zn  Zn155  1  0.43706396  0.18687300  0.43813755  1
  Zn  Zn156  1  0.43930732  0.18105258  0.93588014  1
  Zn  Zn157  1  0.43767306  0.68858725  0.43979243  1
  Zn  Zn158  1  0.43753277  0.67566836  0.93919750  1
  Zn  Zn159  1  0.93757847  0.18535696  0.43460172  1
  Zn  Zn160  1  0.94610468  0.19098174  0.95155165  1
  Zn  Zn161  1  0.93328597  0.68521971  0.43581897  1
  Zn  Zn162  1  0.93646192  0.68888059  0.93638278  1
  Zn  Zn163  1  0.06740868  0.31388359  0.06238695  1
  Zn  Zn164  1  0.06473632  0.31347047  0.55471009  1
  Zn  Zn165  1  0.06204673  0.81677409  0.06313483  1
  Zn  Zn166  1  0.06568569  0.81520769  0.56078164  1
  Zn  Zn167  1  0.56125310  0.31272253  0.06570908  1
  Zn  Zn168  1  0.56143117  0.31674239  0.55828590  1
  Zn  Zn169  1  0.56213094  0.80444741  0.04832254  1
  Zn  Zn170  1  0.56149002  0.82215542  0.56125085  1
  O  O171  1  0.12875234  0.11556551  0.12810689  1
  O  O172  1  0.11201014  0.11938194  0.62900955  1
  O  O173  1  0.11837853  0.61866350  0.12264286  1
  O  O174  1  0.11677582  0.61837368  0.62002741  1
  O  O175  1  0.61702334  0.12057767  0.12638990  1
  O  O176  1  0.63119975  0.12614719  0.61283159  1
  O  O177  1  0.62216146  0.61632061  0.11982073  1
  O  O178  1  0.63249029  0.61443108  0.63968231  1
  O  O179  1  0.38629779  0.37192372  0.37064939  1
  O  O180  1  0.38752125  0.37284759  0.86819469  1
  O  O181  1  0.38504821  0.88769448  0.37717221  1
  O  O182  1  0.36851973  0.88789412  0.87665185  1
  O  O183  1  0.87111994  0.38774357  0.37980992  1
  O  O184  1  0.89043998  0.37995060  0.88871682  1
  O  O185  1  0.87862459  0.87618973  0.38200650  1
  O  O186  1  0.88481923  0.88532893  0.87188248  1
  O  O187  1  0.25935622  -0.00420554  0.36821637  1
  O  O188  1  0.25675490  0.00837221  0.87307369  1
  O  O189  1  0.25013776  0.50415305  0.37003113  1
  O  O190  1  0.24965260  0.50815601  0.87307677  1
  O  O191  1  0.74914150  0.00589400  0.36749847  1
  O  O192  1  0.75924843  0.00845708  0.87499478  1
  O  O193  1  0.75853816  0.49983422  0.37806159  1
  O  O194  1  0.75665678  0.49980640  0.86953373  1
  O  O195  1  0.24429047  0.49527407  0.13247260  1
  O  O196  1  0.23889773  0.49099353  0.62075904  1
  O  O197  1  0.24214960  0.99787380  0.13273672  1
  O  O198  1  0.23995390  0.99228170  0.62688519  1
  O  O199  1  0.74067672  0.48862401  0.11829183  1
  O  O200  1  0.75335185  0.49003926  0.63377978  1
  O  O201  1  0.74347476  0.98941449  0.12851953  1
  O  O202  1  0.74942748  0.99295713  0.62769830  1
  O  O203  1  0.01694305  0.37585200  0.24382824  1
  O  O204  1  -0.00625619  0.36759685  0.75816036  1
  O  O205  1  0.00580646  0.87133264  0.25560388  1
  O  O206  1  -0.00465693  0.86398333  0.75811340  1
  O  O207  1  0.50707872  0.37985216  0.26925573  1
  O  O208  1  0.50767367  0.36502629  0.75547880  1
  O  O209  1  0.49855790  0.87982940  0.26534526  1
  O  O210  1  0.50838940  0.87919765  0.75308063  1
  O  O211  1  0.49145323  0.12093322  0.24088673  1
  O  O212  1  0.49361090  0.13794457  0.75254000  1
  O  O213  1  0.50095008  0.62069282  0.23773859  1
  O  O214  1  0.49028898  0.62018018  0.75101495  1
  O  O215  1  0.98048887  0.11759006  0.24837557  1
  O  O216  1  0.99201871  0.13284692  0.74540031  1
  O  O217  1  0.99373175  0.63114286  0.24466635  1
  O  O218  1  0.99347569  0.63590224  0.74457858  1
  O  O219  1  0.37708892  0.24666152  0.01105922  1
  O  O220  1  0.36171489  0.24255339  0.50563369  1
  O  O221  1  0.35830037  0.74154295  0.00197357  1
  O  O222  1  0.37034947  0.75345615  0.50359625  1
  O  O223  1  0.84999262  0.25417669  -0.03100461  1
  O  O224  1  0.87119268  0.25797397  0.50192442  1
  O  O225  1  0.87786211  0.74590855  0.01529503  1
  O  O226  1  0.86632955  0.76024999  0.50134739  1
  O  O227  1  0.13276075  0.25144371  0.48576405  1
  O  O228  1  0.12576035  0.24927454  0.98561022  1
  O  O229  1  0.12535826  0.74948279  0.48506346  1
  O  O230  1  0.12757221  0.74500473  0.99320329  1
  O  O231  1  0.63128592  0.24369922  0.49307519  1
  O  O232  1  0.63030455  0.25043686  0.99061507  1
  O  O233  1  0.63509196  0.75561369  0.49350155  1
  O  O234  1  0.63936411  0.72991824  1.00446256  1
  O  O235  1  0.48776002  0.24484472  0.12516067  1
  O  O236  1  0.49125879  0.25516486  0.62984471  1
  O  O237  1  0.50385904  0.73800456  0.12562175  1
  O  O238  1  0.49841105  0.75507873  0.62286514  1
  O  O239  1  0.96471714  0.26627632  0.05365973  1
  O  O240  1  0.99862473  0.24459315  0.62982353  1
  O  O241  1  0.99226189  0.74931368  0.13138880  1
  O  O242  1  0.99681887  0.74776969  0.63020895  1
  O  O243  1  0.01428899  0.24967032  0.38059842  1
  O  O244  1  0.00741387  0.26013525  0.86873334  1
  O  O245  1  0.00569594  0.75396348  0.36984233  1
  O  O246  1  0.00453046  0.75683037  0.86906164  1
  O  O247  1  0.50773081  0.25987867  0.38089529  1
  O  O248  1  0.50797386  0.25305747  0.86893638  1
  O  O249  1  0.51232261  0.76269940  0.37900611  1
  O  O250  1  0.50196745  0.76707870  0.93291949  1
  O  O251  1  0.24458736  0.13856248  0.50496996  1
  O  O252  1  0.24915003  0.12302739  0.98693485  1
  O  O253  1  0.24697106  0.62404445  0.48777085  1
  O  O254  1  0.24372440  0.63002744  0.98978285  1
  O  O255  1  0.74554845  0.12847598  0.49281270  1
  O  O256  1  0.74623987  0.13366965  0.99343105  1
  O  O257  1  0.75541380  0.64287556  0.50339797  1
  O  O258  1  0.74238250  0.60960424  0.98804543  1
  O  O259  1  0.24587945  0.38256149  0.01573538  1
  O  O260  1  0.24670701  0.36096595  0.51241422  1
  O  O261  1  0.24123366  0.86166985  -0.00010545  1
  O  O262  1  0.24985811  0.87421205  0.51353774  1
  O  O263  1  0.75790217  0.36781534  0.00839680  1
  O  O264  1  0.75990181  0.37037809  0.50479370  1
  O  O265  1  0.75063373  0.87914311  0.00915752  1
  O  O266  1  0.75564959  0.87178981  0.50965309  1
  O  O267  1  0.13236214  0.48921411  0.24772165  1
  O  O268  1  0.12310130  0.50459541  0.73490821  1
  O  O269  1  0.13064264  0.99461361  0.24688191  1
  O  O270  1  0.12150954  1.00345926  0.73813916  1
  O  O271  1  0.62558656  0.49917154  0.23741054  1
  O  O272  1  0.63078695  0.48471405  0.75427080  1
  O  O273  1  0.63366659  1.00563442  0.23697534  1
  O  O274  1  0.62716764  0.99093966  0.74927842  1
  O  O275  1  0.36766188  0.00603733  0.25486163  1
  O  O276  1  0.37546414  0.00822611  0.75805195  1
  O  O277  1  0.36169858  0.49878807  0.25157151  1
  O  O278  1  0.37038328  0.51024844  0.75315308  1
  O  O279  1  0.86428286  0.00783714  0.24992020  1
  O  O280  1  0.87683773  0.00987177  0.76133648  1
  O  O281  1  0.87680004  0.50706427  0.26302473  1
  O  O282  1  0.87175711  0.50482835  0.75712138  1
  O  O283  1  0.12706818  0.37041657  0.36374194  1
  O  O284  1  0.11541894  0.37087390  0.87495206  1
  O  O285  1  0.12141977  0.86963498  0.36512909  1
  O  O286  1  0.11838697  0.86386802  0.87473390  1
  O  O287  1  0.62133341  0.36347992  0.37262710  1
  O  O288  1  0.61893299  0.36654012  0.86828664  1
  O  O289  1  0.61387240  0.87495639  0.37776748  1
  O  O290  1  0.63001647  0.87668433  0.86109817  1
  O  O291  1  0.38050041  0.13582690  0.13157671  1
  O  O292  1  0.36787105  0.13379637  0.63725470  1
  O  O293  1  0.38462927  0.62532683  0.12783332  1
  O  O294  1  0.36876473  0.62476351  0.64062667  1
  O  O295  1  0.86972754  0.12446917  0.13144785  1
  O  O296  1  0.88430253  0.13030953  0.63340016  1
  O  O297  1  0.87924093  0.63130649  0.13308843  1
  O  O298  1  0.88070628  0.63130564  0.62954273  1
  O  O299  1  0.26360173  0.25554402  0.12668116  1
  O  O300  1  0.25278739  0.25274678  0.61657090  1
  O  O301  1  0.24675380  0.75168226  0.11617406  1
  O  O302  1  0.24468060  0.76061099  0.62357927  1
  O  O303  1  0.74491069  0.25720661  0.11181643  1
  O  O304  1  0.75954691  0.25453121  0.61919994  1
  O  O305  1  0.75440136  0.76486353  0.12889890  1
  O  O306  1  0.75344854  0.75857759  0.61564116  1
  O  O307  1  0.24295791  0.25148418  0.38715875  1
  O  O308  1  0.24222820  0.24426588  0.86717848  1
  O  O309  1  0.24237729  0.74236765  0.37210561  1
  O  O310  1  0.24193191  0.74550219  0.88008333  1
  O  O311  1  0.74390740  0.24285742  0.38033614  1
  O  O312  1  0.73508398  0.24812548  0.87439118  1
  O  O313  1  0.73493769  0.75657877  0.38689932  1
  O  O314  1  0.75527974  0.73841825  0.87485106  1
  O  O315  1  0.01069855  0.10714625  -0.00771833  1
  O  O316  1  -0.00937080  0.11373455  0.51031071  1
  O  O317  1  0.00576007  0.62314613  0.00591156  1
  O  O318  1  -0.00135201  0.61736707  0.50534421  1
  O  O319  1  0.50213569  0.12023419  0.01374197  1
  O  O320  1  0.51148774  0.11688701  0.49295235  1
  O  O321  1  0.51004792  0.61228034  0.01185321  1
  O  O322  1  0.49825262  0.61003660  0.50241061  1
  O  O323  1  0.50223551  0.38054068  0.48403934  1
  O  O324  1  0.50583113  0.38016929  0.99015413  1
  O  O325  1  0.49854714  0.88895677  0.48824835  1
  O  O326  1  0.50902229  0.90036288  1.01105960  1
  O  O327  1  0.98539194  0.38350324  0.50428242  1
  O  O328  1  1.00313177  0.39225459  0.99129669  1
  O  O329  1  0.99172440  0.87935161  0.49453216  1
  O  O330  1  1.00521148  0.88391471  0.98661912  1
  O  O331  1  0.49694514  0.48923852  0.38447454  1
  O  O332  1  0.50131312  0.48828479  0.88370782  1
  O  O333  1  0.49755019  0.99365798  0.38024537  1
  O  O334  1  0.48857722  1.01160669  0.88666472  1
  O  O335  1  0.99401951  0.50403413  0.38541686  1
  O  O336  1  0.99861344  0.49808181  0.87927890  1
  O  O337  1  0.99872334  0.99364898  0.38322726  1
  O  O338  1  0.99661944  0.99224163  0.87858996  1
  O  O339  1  0.00949637  -0.00906708  0.11566743  1
  O  O340  1  0.00375380  0.00549417  0.62086334  1
  O  O341  1  0.00507547  0.50594197  0.11848613  1
  O  O342  1  0.00335258  0.50516656  0.61573674  1
  O  O343  1  0.50638241  0.01016458  0.12463117  1
  O  O344  1  0.49846890  -0.00243166  0.61296233  1
  O  O345  1  0.50672451  0.49985998  0.12065763  1
  O  O346  1  0.50268643  0.48738277  0.61190462  1
  O  O347  1  0.24118919  0.38092208  0.24226426  1
  O  O348  1  0.25037746  0.37524229  0.73122470  1
  O  O349  1  0.24340572  0.88505225  0.24868710  1
  O  O350  1  0.25073988  0.87772229  0.73640161  1
  O  O351  1  0.75124117  0.36791089  0.23463852  1
  O  O352  1  0.74556730  0.37628631  0.74822862  1
  O  O353  1  0.75200303  0.88698276  0.24668353  1
  O  O354  1  0.75435755  0.87697635  0.73766596  1
  O  O355  1  0.25882320  0.11276863  0.24763029  1
  O  O356  1  0.25801741  0.12173619  0.75855829  1
  O  O357  1  0.24783246  0.61442578  0.26066710  1
  O  O358  1  0.24848721  0.62241497  0.76288705  1
  O  O359  1  0.75715154  0.11456041  0.25601604  1
  O  O360  1  0.76374718  0.12658624  0.75545208  1
  O  O361  1  0.75984578  0.62959963  0.24424796  1
  O  O362  1  0.75755059  0.61901109  0.76109855  1
  O  O363  1  0.38338355  0.11178877  0.36638080  1
  O  O364  1  0.36845966  0.12224308  0.86458810  1
  O  O365  1  0.36664575  0.62130878  0.37177311  1
  O  O366  1  0.36768202  0.62064932  0.86578540  1
  O  O367  1  0.86123230  0.12181473  0.37571207  1
  O  O368  1  0.87517634  0.12047889  0.86942596  1
  O  O369  1  0.87444163  0.61250345  0.36734917  1
  O  O370  1  0.86976079  0.61840077  0.87186588  1
  O  O371  1  0.13221474  0.37618034  0.13340982  1
  O  O372  1  0.12843589  0.38257474  0.62144264  1
  O  O373  1  0.12593696  0.88140039  0.13827867  1
  O  O374  1  0.13392039  0.88253207  0.62434129  1
  O  O375  1  0.63268729  0.38070881  0.12770183  1
  O  O376  1  0.63448889  0.37284130  0.63417837  1
  O  O377  1  0.63687511  0.88040677  0.11994363  1
  O  O378  1  0.63249066  0.87985779  0.63801834  1
  O  O379  1  0.13136389  0.26023703  0.26312735  1
  O  O380  1  0.11287084  0.24534439  0.75731943  1
  O  O381  1  0.11986968  0.75743421  0.25783870  1
  O  O382  1  0.11401808  0.74388829  0.75889657  1
  O  O383  1  0.62944450  0.24566205  0.26295389  1
  O  O384  1  0.61922053  0.25622155  0.75323326  1
  O  O385  1  0.62215135  0.75030240  0.26611420  1
  O  O386  1  0.62623267  0.76762986  0.75983008  1
  O  O387  1  0.36827188  0.23688725  0.24859769  1
  O  O388  1  0.38314820  0.24323257  0.74158208  1
  O  O389  1  0.38285942  0.74783120  0.24706590  1
  O  O390  1  0.37177163  0.73124273  0.74993599  1
  O  O391  1  0.87029549  0.23252225  0.25061298  1
  O  O392  1  0.88576619  0.24456166  0.74844781  1
  O  O393  1  0.87819629  0.74281855  0.24638460  1
  O  O394  1  0.88190371  0.74487458  0.74313627  1
  O  O395  1  0.38922263  0.49612426  0.49960899  1
  O  O396  1  0.39024739  0.50365219  0.99732508  1
  O  O397  1  0.38138293  1.00342490  0.49269886  1
  O  O398  1  0.38248937  1.00733309  0.99135232  1
  O  O399  1  0.87772842  0.49521443  0.48908249  1
  O  O400  1  0.88883206  0.50345583  0.99720040  1
  O  O401  1  0.88345482  0.98843928  0.50026192  1
  O  O402  1  0.88375196  1.00450761  0.98883216  1
  O  O403  1  0.12065387  0.00020993  0.01135720  1
  O  O404  1  0.11096280  -0.00526733  0.51010496  1
  O  O405  1  0.11550238  0.50797992  0.00541169  1
  O  O406  1  0.11434514  0.49896711  0.50574788  1
  O  O407  1  0.62101545  0.00728069  0.01234277  1
  O  O408  1  0.61735567  0.00951284  0.50387810  1
  O  O409  1  0.61607103  0.50455367  0.00929655  1
  O  O410  1  0.60871661  0.49403763  0.50134464  1
  O  O411  1  0.36982700  0.35996812  0.13063639  1
  O  O412  1  0.36679020  0.35967888  0.62755478  1
  O  O413  1  0.37749825  0.86982146  0.10969451  1
  O  O414  1  0.35942570  0.87448262  0.62290017  1
  O  O415  1  0.87000374  0.38335718  0.11477645  1
  O  O416  1  0.87110254  0.36853052  0.61752117  1
  O  O417  1  0.86014762  0.86797867  0.12852609  1
  O  O418  1  0.87000538  0.86978661  0.61784908  1
  O  O419  1  0.12377108  0.13706764  0.36810829  1
  O  O420  1  0.13493397  0.13504940  0.87464207  1
  O  O421  1  0.13079122  0.63343819  0.37420173  1
  O  O422  1  0.13004028  0.63604319  0.88055358  1
  O  O423  1  0.63520485  0.12952327  0.38211408  1
  O  O424  1  0.63046691  0.13396843  0.87429963  1
  O  O425  1  0.61865665  0.63784786  0.37553919  1
  O  O426  1  0.63170367  0.62945663  0.88122883  1
