# generated using pymatgen
data_V85Zn86O256
_symmetry_space_group_name_H-M   'P 1'
_cell_length_a   16.94123779
_cell_length_b   16.92460972
_cell_length_c   16.94284072
_cell_angle_alpha   90.14193368
_cell_angle_beta   90.03918097
_cell_angle_gamma   89.98438108
_symmetry_Int_Tables_number   1
_chemical_formula_structural   V85Zn86O256
_chemical_formula_sum   'V85 Zn86 O256'
_cell_volume   4857.90009470
_cell_formula_units_Z   1
loop_
 _symmetry_equiv_pos_site_id
 _symmetry_equiv_pos_as_xyz
  1  'x, y, z'
loop_
 _atom_site_type_symbol
 _atom_site_label
 _atom_site_symmetry_multiplicity
 _atom_site_fract_x
 _atom_site_fract_y
 _atom_site_fract_z
 _atom_site_occupancy
  V  V0  1  0.37934615  0.61917141  0.26065074  1
  V  V1  1  0.36828263  0.25215674  0.61356645  1
  V  V2  1  0.62849356  0.75730627  0.86932934  1
  V  V3  1  0.12626889  0.50039727  0.62505247  1
  V  V4  1  0.37587160  0.74665544  0.12190041  1
  V  V5  1  0.88116781  0.24506102  0.13131519  1
  V  V6  1  0.24970592  -0.00088627  0.25181832  1
  V  V7  1  0.62017527  0.24541246  0.87448174  1
  V  V8  1  0.11472781  0.37682227  0.24309490  1
  V  V9  1  0.36538145  -0.00164706  0.87323179  1
  V  V10  1  0.86935385  0.00164036  0.38055483  1
  V  V11  1  0.22526782  0.11319687  0.85092831  1
  V  V12  1  0.87836339  0.12922072  0.26238134  1
  V  V13  1  0.75340921  0.36801169  0.12133669  1
  V  V14  1  0.75102958  0.38270205  0.62630302  1
  V  V15  1  0.87496409  0.62589954  0.24681137  1
  V  V16  1  0.12858314  0.12464436  0.49982581  1
  V  V17  1  0.12343935  0.00030504  0.12512917  1
  V  V18  1  0.11714273  0.87257083  0.24826523  1
  V  V19  1  0.50057548  0.11423380  0.61727614  1
  V  V20  1  0.50286467  0.88001931  0.37886620  1
  V  V21  1  0.62508851  0.37117984  0.25319016  1
  V  V22  1  0.37547820  0.12339594  0.24841682  1
  V  V23  1  0.12059231  0.26176367  0.87887845  1
  V  V24  1  0.87602807  0.87540916  0.50404840  1
  V  V25  1  0.00171294  0.11677662  0.62187840  1
  V  V26  1  -0.00375838  0.50103376  0.49615577  1
  V  V27  1  0.87446384  0.87978947  0.00226784  1
  V  V28  1  0.62708073  0.75125929  0.37617344  1
  V  V29  1  0.87449421  0.12643391  0.75207718  1
  V  V30  1  0.49888568  0.25322640  0.74374323  1
  V  V31  1  0.49363715  0.50296700  0.49793841  1
  V  V32  1  0.75243375  -0.00077577  0.24064645  1
  V  V33  1  0.76660601  0.25073093  -0.01625374  1
  V  V34  1  0.63026137  0.49974417  0.12633616  1
  V  V35  1  0.87532761  0.00566749  0.87193707  1
  V  V36  1  0.04081334  0.69304114  0.19285847  1
  V  V37  1  0.25380514  0.49438215  0.25212181  1
  V  V38  1  0.36957272  0.86802058  -0.00251393  1
  V  V39  1  0.24811954  0.63180775  0.88867917  1
  V  V40  1  0.11325728  0.25287705  0.37357339  1
  V  V41  1  0.75693403  0.49747709  0.25318434  1
  V  V42  1  0.88147116  0.61715693  0.75873450  1
  V  V43  1  0.75673988  0.62086360  0.37903320  1
  V  V44  1  0.25185928  0.13698754  0.37752303  1
  V  V45  1  0.62109128  0.62656671  0.50604791  1
  V  V46  1  0.00336004  0.87395035  0.86029848  1
  V  V47  1  0.49930655  0.12506363  0.12392042  1
  V  V48  1  0.70792212  0.09093110  0.82368742  1
  V  V49  1  0.87305339  0.38104111  0.49284871  1
  V  V50  1  0.37294640  0.25102803  0.12372854  1
  V  V51  1  0.75187267  0.61108087  0.87151863  1
  V  V52  1  0.37696214  0.00087322  0.37575114  1
  V  V53  1  0.50241407  0.50021295  0.00121770  1
  V  V54  1  0.62832878  0.12426561  0.00103602  1
  V  V55  1  0.74536566  0.88183708  0.64178591  1
  V  V56  1  0.37376235  0.37462790  -0.00282723  1
  V  V57  1  0.74509467  0.24810977  0.49432592  1
  V  V58  1  0.12443669  0.37771175  0.74897431  1
  V  V59  1  0.87535897  0.25270541  0.62285458  1
  V  V60  1  0.62816614  0.38073577  0.75078514  1
  V  V61  1  0.00094068  0.63387363  0.63275205  1
  V  V62  1  0.38230291  0.75024144  0.62447912  1
  V  V63  1  0.37988145  0.62743572  0.74629386  1
  V  V64  1  0.62687279  0.11168980  0.49388839  1
  V  V65  1  0.37370271  0.50080260  0.87317805  1
  V  V66  1  0.12496674  0.62582026  0.50231907  1
  V  V67  1  0.37652162  0.88353982  0.50220827  1
  V  V68  1  0.24952784  0.75427430  0.50228861  1
  V  V69  1  0.25031166  0.87206802  0.12360022  1
  V  V70  1  0.24005937  0.89106124  0.63771580  1
  V  V71  1  0.24894542  0.24886030  -0.00421740  1
  V  V72  1  0.75208656  0.75151048  0.50608034  1
  V  V73  1  0.49328102  0.37750703  0.37388393  1
  V  V74  1  0.12405774  0.75041397  0.86995831  1
  V  V75  1  -0.01639601  0.47000397  -0.01446078  1
  V  V76  1  0.11872647  0.13159633  0.00608624  1
  V  V77  1  0.50201039  0.75146176  0.24980988  1
  V  V78  1  0.37667621  0.12351693  0.75058812  1
  V  V79  1  0.87140728  0.76115173  0.13327491  1
  V  V80  1  0.61974284  0.50492341  0.62948521  1
  V  V81  1  0.49681730  -0.00384770  0.00242172  1
  V  V82  1  0.11911671  0.74826756  0.37563591  1
  V  V83  1  0.75246650  0.75108514  0.00261407  1
  V  V84  1  0.00055416  0.25693019  0.74838735  1
  Zn  Zn85  1  0.50230687  0.24836008  0.25076608  1
  Zn  Zn86  1  0.62548054  0.24383544  0.37338620  1
  Zn  Zn87  1  -0.00044984  0.00441296  -0.00039938  1
  Zn  Zn88  1  0.62809231  0.00021903  0.64650501  1
  Zn  Zn89  1  0.50795609  0.75403227  0.74243314  1
  Zn  Zn90  1  0.50426050  0.62385513  0.12691239  1
  Zn  Zn91  1  -0.00301876  0.87319729  0.37386412  1
  Zn  Zn92  1  0.24512627  0.36904231  0.61737183  1
  Zn  Zn93  1  0.49956356  0.37609055  0.87342874  1
  Zn  Zn94  1  0.63362981  -0.00621819  0.11998505  1
  Zn  Zn95  1  0.87945822  0.75260830  0.63521125  1
  Zn  Zn96  1  -0.00676991  0.37818832  0.36854846  1
  Zn  Zn97  1  0.24634641  0.38515696  0.11951282  1
  Zn  Zn98  1  0.63622629  0.87055617  0.24130061  1
  Zn  Zn99  1  0.00511464  0.13152266  0.13737058  1
  Zn  Zn100  1  0.25486111  0.61995682  0.38036812  1
  Zn  Zn101  1  0.63270586  0.62392136  0.00170273  1
  Zn  Zn102  1  0.00522103  -0.00326819  0.50087590  1
  Zn  Zn103  1  0.24997875  0.50235761  0.75045423  1
  Zn  Zn104  1  0.49958200  0.87166291  0.86905926  1
  Zn  Zn105  1  0.36702362  0.37947843  0.49214283  1
  Zn  Zn106  1  0.08853257  0.61577502  0.01760319  1
  Zn  Zn107  1  0.18941461  0.19350008  0.19165625  1
  Zn  Zn108  1  0.18121870  0.17306112  0.69160981  1
  Zn  Zn109  1  0.20510360  0.68082924  0.18462212  1
  Zn  Zn110  1  0.19403098  0.69000748  0.69155106  1
  Zn  Zn111  1  0.69276841  0.18203299  0.18816439  1
  Zn  Zn112  1  0.68221096  0.19454090  0.67335044  1
  Zn  Zn113  1  0.69092221  0.68716476  0.18568259  1
  Zn  Zn114  1  0.69532667  0.68589615  0.69118419  1
  Zn  Zn115  1  0.31260607  0.31279169  0.31022649  1
  Zn  Zn116  1  0.30712826  0.31120997  0.80863862  1
  Zn  Zn117  1  0.31136332  0.81036237  0.31368685  1
  Zn  Zn118  1  0.30772047  0.80889437  0.81041240  1
  Zn  Zn119  1  0.81118038  0.31193231  0.31450455  1
  Zn  Zn120  1  0.80044103  0.29962449  0.81001610  1
  Zn  Zn121  1  0.81204577  0.81518893  0.31644301  1
  Zn  Zn122  1  0.81883031  0.80573901  0.81496896  1
  Zn  Zn123  1  0.18929588  0.43503651  0.43520582  1
  Zn  Zn124  1  0.18367916  0.44575979  0.94174012  1
  Zn  Zn125  1  0.18913227  0.93933472  0.43730393  1
  Zn  Zn126  1  0.18475676  0.93569161  0.93948960  1
  Zn  Zn127  1  0.68450577  0.43964460  0.43778971  1
  Zn  Zn128  1  0.69044845  0.43408471  0.93969812  1
  Zn  Zn129  1  0.69298341  0.93648230  0.43469618  1
  Zn  Zn130  1  0.69009573  0.93652278  0.93951568  1
  Zn  Zn131  1  0.30640916  0.06373051  0.05788510  1
  Zn  Zn132  1  0.31137784  0.06478895  0.56080017  1
  Zn  Zn133  1  0.31481230  0.56169280  0.06772502  1
  Zn  Zn134  1  0.31030895  0.56463438  0.56514223  1
  Zn  Zn135  1  0.81868129  0.07442337  0.06184906  1
  Zn  Zn136  1  0.80956999  0.06250807  0.56596679  1
  Zn  Zn137  1  0.86503895  0.58275893  0.03884669  1
  Zn  Zn138  1  0.81383273  0.56309759  0.57080616  1
  Zn  Zn139  1  0.43749351  0.43695510  0.18710632  1
  Zn  Zn140  1  0.43917683  0.43804438  0.68578147  1
  Zn  Zn141  1  0.44167379  0.93393041  0.18679057  1
  Zn  Zn142  1  0.43432250  0.93238920  0.69182996  1
  Zn  Zn143  1  0.93571373  0.44400096  0.17136626  1
  Zn  Zn144  1  0.93931674  0.44357308  0.68876452  1
  Zn  Zn145  1  0.93808407  0.94217395  0.18775368  1
  Zn  Zn146  1  0.93100016  0.94053300  0.68762401  1
  Zn  Zn147  1  0.05974357  0.05931497  0.31913868  1
  Zn  Zn148  1  0.05641417  0.06707737  0.81446217  1
  Zn  Zn149  1  0.06988615  0.55430486  0.31684091  1
  Zn  Zn150  1  0.06076547  0.55547274  0.82548852  1
  Zn  Zn151  1  0.56549989  0.06054924  0.31062380  1
  Zn  Zn152  1  0.54181717  0.05580596  0.81185064  1
  Zn  Zn153  1  0.56756534  0.56240453  0.31611494  1
  Zn  Zn154  1  0.56275501  0.56830377  0.81476038  1
  Zn  Zn155  1  0.44504086  0.18761535  0.43571702  1
  Zn  Zn156  1  0.43605841  0.18410395  0.93518998  1
  Zn  Zn157  1  0.44014159  0.69245938  0.44010624  1
  Zn  Zn158  1  0.44185556  0.68423412  0.93697335  1
  Zn  Zn159  1  0.93760791  0.18987436  0.43979438  1
  Zn  Zn160  1  0.93057771  0.21213114  0.93285838  1
  Zn  Zn161  1  0.93732914  0.68741036  0.43974672  1
  Zn  Zn162  1  0.94142378  0.69465852  0.93248416  1
  Zn  Zn163  1  0.05579919  0.32619413  0.06366475  1
  Zn  Zn164  1  0.06360687  0.31013202  0.55897402  1
  Zn  Zn165  1  0.06263122  0.81218902  0.04660869  1
  Zn  Zn166  1  0.06491308  0.81568596  0.56693020  1
  Zn  Zn167  1  0.56362347  0.31277017  0.06173199  1
  Zn  Zn168  1  0.56001786  0.31321371  0.55995316  1
  Zn  Zn169  1  0.56459225  0.81298139  0.05998467  1
  Zn  Zn170  1  0.56463254  0.81976733  0.56463306  1
  O  O171  1  0.12609446  0.12054591  0.12460128  1
  O  O172  1  0.11477994  0.13164327  0.61133997  1
  O  O173  1  0.11138769  0.63980291  0.13400058  1
  O  O174  1  0.12065766  0.62100249  0.62344456  1
  O  O175  1  0.61667449  0.12066799  0.11783026  1
  O  O176  1  0.61667722  0.12033001  0.61494310  1
  O  O177  1  0.62657681  0.61351055  0.12297962  1
  O  O178  1  0.63281929  0.61785445  0.61814372  1
  O  O179  1  0.38887992  0.37198612  0.37307547  1
  O  O180  1  0.37452210  0.38312468  0.87736142  1
  O  O181  1  0.38135814  0.87832595  0.38211623  1
  O  O182  1  0.36946848  0.88028341  0.88229882  1
  O  O183  1  0.87491697  0.37388878  0.38811624  1
  O  O184  1  0.83873230  0.29564681  0.91544470  1
  O  O185  1  0.87671517  0.88037588  0.38680086  1
  O  O186  1  0.88368198  0.88453657  0.87724435  1
  O  O187  1  0.25768772  0.00775944  0.36796396  1
  O  O188  1  0.25670577  0.00796575  0.88276794  1
  O  O189  1  0.24763503  0.50304930  0.35924463  1
  O  O190  1  0.26205965  0.50799708  0.87425468  1
  O  O191  1  0.76396129  -0.00162807  0.36732195  1
  O  O192  1  0.75585165  0.01380866  0.87839958  1
  O  O193  1  0.74641211  0.50893101  0.36655707  1
  O  O194  1  0.74754558  0.51238757  0.88083875  1
  O  O195  1  0.25251079  0.50187724  0.14259117  1
  O  O196  1  0.23538071  0.50334129  0.62887556  1
  O  O197  1  0.24008013  0.99530114  0.13060664  1
  O  O198  1  0.25519933  0.99018610  0.62474189  1
  O  O199  1  0.73869172  0.48675452  0.13299670  1
  O  O200  1  0.73758194  0.48883674  0.62052555  1
  O  O201  1  0.75490722  1.00582135  0.13672105  1
  O  O202  1  0.75046476  0.98580895  0.62886713  1
  O  O203  1  0.01185969  0.38675107  0.24981477  1
  O  O204  1  0.01105996  0.36861581  0.74218048  1
  O  O205  1  0.01325490  0.87860697  0.25089563  1
  O  O206  1  -0.00027866  0.88497455  0.76152686  1
  O  O207  1  0.50861876  0.37457600  0.25551193  1
  O  O208  1  0.51076401  0.36915675  0.75099986  1
  O  O209  1  0.49820139  0.86187022  0.25875610  1
  O  O210  1  0.49805478  0.86802927  0.75573690  1
  O  O211  1  0.49437283  0.12444982  0.24151777  1
  O  O212  1  0.49116711  0.13418703  0.74162928  1
  O  O213  1  0.49807056  0.63410133  0.25217253  1
  O  O214  1  0.48551907  0.63317183  0.75830846  1
  O  O215  1  0.98456403  0.12086577  0.25516083  1
  O  O216  1  0.99113439  0.13327921  0.74062454  1
  O  O217  1  0.99274219  0.62188603  0.25675151  1
  O  O218  1  0.99036702  0.61837092  0.74702007  1
  O  O219  1  0.37024449  0.25391374  0.00238221  1
  O  O220  1  0.38147831  0.24979564  0.51196599  1
  O  O221  1  0.38352823  0.75685597  0.00866698  1
  O  O222  1  0.36777562  0.75875259  0.50412970  1
  O  O223  1  0.86216573  0.20591308  0.02411572  1
  O  O224  1  0.86744455  0.25795461  0.50597282  1
  O  O225  1  0.87047099  0.76167661  0.00843297  1
  O  O226  1  0.86740688  0.75607839  0.50562167  1
  O  O227  1  0.12237614  0.23945939  0.48709304  1
  O  O228  1  0.12808122  0.25028253  0.99639552  1
  O  O229  1  0.13196712  0.74797058  0.49430761  1
  O  O230  1  0.10797490  0.73094566  0.98142662  1
  O  O231  1  0.63127760  0.24172495  0.50165386  1
  O  O232  1  0.62805972  0.24323190  0.98946076  1
  O  O233  1  0.63165462  0.74402265  0.49870235  1
  O  O234  1  0.63637869  0.74603441  0.99496805  1
  O  O235  1  0.48951904  0.24344020  0.12284771  1
  O  O236  1  0.49447813  0.24136077  0.62937597  1
  O  O237  1  0.49270708  0.74779158  0.13346334  1
  O  O238  1  0.48661446  0.75474416  0.62044563  1
  O  O239  1  0.98425086  0.25319787  0.12469768  1
  O  O240  1  0.99606054  0.24376231  0.63273336  1
  O  O241  1  0.99086575  0.75813337  0.12744216  1
  O  O242  1  1.00252460  0.73715267  0.62322344  1
  O  O243  1  0.00927467  0.25426182  0.37476228  1
  O  O244  1  0.00778830  0.24767265  0.85769466  1
  O  O245  1  0.01407049  0.75313572  0.38177341  1
  O  O246  1  0.00169555  0.76739770  0.86862827  1
  O  O247  1  0.50619253  0.26073087  0.37149019  1
  O  O248  1  0.50594061  0.25017375  0.86565260  1
  O  O249  1  0.50678763  0.75879909  0.36923752  1
  O  O250  1  0.52022305  0.74748043  0.88116117  1
  O  O251  1  0.24339794  0.12324485  0.48866480  1
  O  O252  1  0.23647642  0.13140638  0.99127989  1
  O  O253  1  0.24368373  0.63479493  0.49967999  1
  O  O254  1  0.25371811  0.61982711  0.98830547  1
  O  O255  1  0.73616463  0.13383559  0.50931717  1
  O  O256  1  0.73272819  0.13027432  1.00238459  1
  O  O257  1  0.74627961  0.63059940  0.49685359  1
  O  O258  1  0.76172950  0.63503532  0.98837088  1
  O  O259  1  0.25466096  0.36970523  0.00012937  1
  O  O260  1  0.25544928  0.38092040  0.50512718  1
  O  O261  1  0.26158125  0.87887493  0.00778146  1
  O  O262  1  0.25849658  0.87049976  0.50263718  1
  O  O263  1  0.73667633  0.35910659  0.01280967  1
  O  O264  1  0.75409686  0.37245254  0.50640993  1
  O  O265  1  0.76572510  0.86838088  -0.00729954  1
  O  O266  1  0.75896561  0.86766456  0.50540280  1
  O  O267  1  0.13613625  0.48548104  0.25184531  1
  O  O268  1  0.12402290  0.49265842  0.74477943  1
  O  O269  1  0.12966248  0.99221854  0.24566015  1
  O  O270  1  0.16094049  1.07266177  0.77243878  1
  O  O271  1  0.63439573  0.49400841  0.24474552  1
  O  O272  1  0.61822635  0.49212142  0.74431873  1
  O  O273  1  0.64358217  1.00311995  0.24916442  1
  O  O274  1  0.64063279  1.03132634  0.76224652  1
  O  O275  1  0.37020098  0.00367966  0.25362152  1
  O  O276  1  0.37790285  0.01115317  0.76083416  1
  O  O277  1  0.36926337  0.50675625  0.24921926  1
  O  O278  1  0.37649304  0.50565281  0.75719556  1
  O  O279  1  0.86960151  0.00710675  0.25792851  1
  O  O280  1  0.87477479  0.01070865  0.76220058  1
  O  O281  1  0.86373069  0.50774875  0.24172913  1
  O  O282  1  0.86893686  0.51712513  0.73989167  1
  O  O283  1  0.12049759  0.36852216  0.36572276  1
  O  O284  1  0.13320353  0.36623629  0.86589376  1
  O  O285  1  0.12591530  0.86686384  0.36497646  1
  O  O286  1  0.11159611  0.86914163  0.88212531  1
  O  O287  1  0.61969266  0.37527812  0.36353268  1
  O  O288  1  0.62660607  0.36383101  0.86720797  1
  O  O289  1  0.61884565  0.86979344  0.37252126  1
  O  O290  1  0.62642858  0.86060013  0.88029475  1
  O  O291  1  0.37872232  0.13061385  0.12598496  1
  O  O292  1  0.38269875  0.13306184  0.62827116  1
  O  O293  1  0.38040076  0.63185352  0.13651513  1
  O  O294  1  0.37011058  0.63659177  0.63373282  1
  O  O295  1  0.88134526  0.12691633  0.14648645  1
  O  O296  1  0.88150293  0.13257295  0.62948238  1
  O  O297  1  0.87238898  0.63987787  0.14134366  1
  O  O298  1  0.88461808  0.62838443  0.63374902  1
  O  O299  1  0.26249259  0.24829526  0.11674299  1
  O  O300  1  0.26728467  0.24526217  0.62856412  1
  O  O301  1  0.26742261  0.75610168  0.12813099  1
  O  O302  1  0.25681852  0.75763593  0.61407989  1
  O  O303  1  0.75600679  0.25269873  0.11708260  1
  O  O304  1  0.75330361  0.26448393  0.61444522  1
  O  O305  1  0.75826894  0.74876656  0.11325012  1
  O  O306  1  0.74871835  0.75887669  0.61633023  1
  O  O307  1  0.24407838  0.24003082  0.36943660  1
  O  O308  1  0.23766479  0.23991824  0.87644025  1
  O  O309  1  0.24079922  0.75048329  0.38614414  1
  O  O310  1  0.24463698  0.73954113  0.87986262  1
  O  O311  1  0.74566900  0.25482414  0.39039356  1
  O  O312  1  0.72445016  0.21679245  0.86477258  1
  O  O313  1  0.74599723  0.74571152  0.38783994  1
  O  O314  1  0.74286453  0.74549741  0.88359772  1
  O  O315  1  0.01251964  0.12875975  0.00586001  1
  O  O316  1  0.00545349  0.12496865  0.50738882  1
  O  O317  1  -0.02726498  0.61680194  0.00423994  1
  O  O318  1  0.00427775  0.61965640  0.50905489  1
  O  O319  1  0.50588884  0.11834527  0.00441022  1
  O  O320  1  0.51347434  0.12564129  0.50647632  1
  O  O321  1  0.50304315  0.61012196  0.00421623  1
  O  O322  1  0.51442163  0.62092730  0.49342890  1
  O  O323  1  0.49846856  0.38467206  0.49118053  1
  O  O324  1  0.49603268  0.38424374  0.99625504  1
  O  O325  1  0.49094986  0.87131750  0.49025855  1
  O  O326  1  0.48767116  0.88181000  0.99526928  1
  O  O327  1  0.98966090  0.38303935  0.50268627  1
  O  O328  1  0.99592582  0.36690241  0.97941877  1
  O  O329  1  0.98688385  0.87581547  0.50506580  1
  O  O330  1  0.98740349  0.88190420  0.98959597  1
  O  O331  1  0.50881841  0.49170220  0.38550892  1
  O  O332  1  0.49036985  0.50049808  0.88265582  1
  O  O333  1  0.49447727  0.98686010  0.36633615  1
  O  O334  1  0.48300527  0.99698332  0.88767961  1
  O  O335  1  1.00246695  0.49916179  0.39215700  1
  O  O336  1  0.98676220  0.49649907  0.88260770  1
  O  O337  1  0.98576945  0.99416875  0.37955552  1
  O  O338  1  0.99370189  0.99519668  0.87698253  1
  O  O339  1  0.01363356  0.00374314  0.12377453  1
  O  O340  1  -0.00447934  0.01309639  0.62402291  1
  O  O341  1  0.00320327  0.48260370  0.09433516  1
  O  O342  1  0.01049560  0.50991181  0.61829292  1
  O  O343  1  0.49419956  0.00688031  0.11254321  1
  O  O344  1  0.50269113  0.01187569  0.63423374  1
  O  O345  1  0.51265029  0.49723999  0.11989129  1
  O  O346  1  0.51322743  0.49620695  0.61649076  1
  O  O347  1  0.24685521  0.38343017  0.24716732  1
  O  O348  1  0.23716101  0.37665098  0.74179747  1
  O  O349  1  0.23992883  0.87751572  0.24398535  1
  O  O350  1  0.25243909  0.87567215  0.73668775  1
  O  O351  1  0.74398102  0.38056417  0.24737005  1
  O  O352  1  0.73754882  0.36737492  0.74241460  1
  O  O353  1  0.75382304  0.89259975  0.25351479  1
  O  O354  1  0.75497909  0.86921789  0.73938879  1
  O  O355  1  0.25677259  0.11985663  0.25679919  1
  O  O356  1  0.27495984  0.15153083  0.75458943  1
  O  O357  1  0.26166572  0.61482992  0.25610662  1
  O  O358  1  0.26430387  0.62367697  0.76098056  1
  O  O359  1  0.76367648  0.11290192  0.25217156  1
  O  O360  1  0.76183276  0.13507495  0.73879121  1
  O  O361  1  0.75591345  0.61806718  0.25819236  1
  O  O362  1  0.75653485  0.62209378  0.76533051  1
  O  O363  1  0.37044539  0.12259966  0.37070133  1
  O  O364  1  0.36770244  0.11670102  0.86770608  1
  O  O365  1  0.37616276  0.63287377  0.36401653  1
  O  O366  1  0.36725119  0.62027639  0.87224454  1
  O  O367  1  0.87575273  0.11994089  0.37031691  1
  O  O368  1  0.87976052  0.12230834  0.86158567  1
  O  O369  1  0.86354313  0.63346702  0.36551199  1
  O  O370  1  0.86514918  0.62850678  0.86552058  1
  O  O371  1  0.13062905  0.36560437  0.14002889  1
  O  O372  1  0.12334900  0.38321471  0.62986880  1
  O  O373  1  0.12837846  0.87961529  0.12699775  1
  O  O374  1  0.14073251  0.87860250  0.62081977  1
  O  O375  1  0.63047926  0.37655568  0.13674372  1
  O  O376  1  0.62994928  0.38125806  0.63184489  1
  O  O377  1  0.61372654  0.88301372  0.13062694  1
  O  O378  1  0.63915961  0.88159310  0.62541535  1
  O  O379  1  0.12958195  0.26579863  0.25893865  1
  O  O380  1  0.11825736  0.25625928  0.75537516  1
  O  O381  1  0.12002283  0.75063989  0.25255311  1
  O  O382  1  0.12907998  0.74538454  0.76815580  1
  O  O383  1  0.62640136  0.25660273  0.25050581  1
  O  O384  1  0.61350072  0.25463394  0.75087137  1
  O  O385  1  0.61981919  0.74931674  0.25588090  1
  O  O386  1  0.62755874  0.74313411  0.76589225  1
  O  O387  1  0.37673915  0.24307201  0.23907722  1
  O  O388  1  0.38851512  0.25049225  0.74386277  1
  O  O389  1  0.38345055  0.74410275  0.24521740  1
  O  O390  1  0.37434879  0.74451380  0.73953594  1
  O  O391  1  0.86724721  0.23641705  0.24880685  1
  O  O392  1  0.88219016  0.24748998  0.74297792  1
  O  O393  1  0.86971710  0.74721617  0.24163488  1
  O  O394  1  0.86910294  0.72900511  0.74730178  1
  O  O395  1  0.39051481  0.50480758  0.50720110  1
  O  O396  1  0.38260263  0.49473501  0.99534525  1
  O  O397  1  0.37365226  0.99068966  0.49325993  1
  O  O398  1  0.37811094  0.99373420  0.99478111  1
  O  O399  1  0.88253030  0.49234796  0.50925765  1
  O  O400  1  0.87995050  0.47863146  0.99920410  1
  O  O401  1  0.87314174  0.99309768  0.49653749  1
  O  O402  1  0.87521539  1.00021433  0.98943248  1
  O  O403  1  0.12520258  0.01087488  0.00964746  1
  O  O404  1  0.12127609  0.01747561  0.48716193  1
  O  O405  1  0.10241293  0.50650104  -0.01534458  1
  O  O406  1  0.11852083  0.50616795  0.50768658  1
  O  O407  1  0.61491311  0.00574024  -0.00194457  1
  O  O408  1  0.63245654  0.01074057  0.50109236  1
  O  O409  1  0.61974177  0.49785163  0.00861342  1
  O  O410  1  0.61879175  0.50857299  0.50816043  1
  O  O411  1  0.37394750  0.36629060  0.11712801  1
  O  O412  1  0.37729732  0.35984531  0.62474883  1
  O  O413  1  0.37248102  0.86709696  0.11825553  1
  O  O414  1  0.36713775  0.87043651  0.61612771  1
  O  O415  1  0.85957094  0.36095263  0.13705953  1
  O  O416  1  0.86690505  0.37276554  0.61991172  1
  O  O417  1  0.87879097  0.87124791  0.11742212  1
  O  O418  1  0.86496647  0.87268906  0.62142007  1
  O  O419  1  0.13188036  0.13435358  0.37516065  1
  O  O420  1  0.11977639  0.14130339  0.89066184  1
  O  O421  1  0.12786282  0.63262908  0.38287952  1
  O  O422  1  0.14215949  0.62680851  0.86944135  1
  O  O423  1  0.62042642  0.12499253  0.38944100  1
  O  O424  1  0.61301152  0.12499621  0.88222201  1
  O  O425  1  0.63815982  0.63115607  0.38380969  1
  O  O426  1  0.63906934  0.63075303  0.88014254  1
