# generated using pymatgen
data_V85Zn86O256
_symmetry_space_group_name_H-M   'P 1'
_cell_length_a   16.94260911
_cell_length_b   16.95022347
_cell_length_c   16.94756596
_cell_angle_alpha   90.02615387
_cell_angle_beta   89.95631023
_cell_angle_gamma   89.98916836
_symmetry_Int_Tables_number   1
_chemical_formula_structural   V85Zn86O256
_chemical_formula_sum   'V85 Zn86 O256'
_cell_volume   4867.01711037
_cell_formula_units_Z   1
loop_
 _symmetry_equiv_pos_site_id
 _symmetry_equiv_pos_as_xyz
  1  'x, y, z'
loop_
 _atom_site_type_symbol
 _atom_site_label
 _atom_site_symmetry_multiplicity
 _atom_site_fract_x
 _atom_site_fract_y
 _atom_site_fract_z
 _atom_site_occupancy
  V  V0  1  0.24919688  0.12693097  0.87329094  1
  V  V1  1  0.12134035  0.87032462  0.74556963  1
  V  V2  1  0.87173281  0.87469736  0.49912721  1
  V  V3  1  -0.00112109  0.74940625  0.24993345  1
  V  V4  1  -0.00461701  0.49663262  0.50180058  1
  V  V5  1  0.75038863  0.37580759  0.61635878  1
  V  V6  1  0.61873590  0.37524322  0.24503689  1
  V  V7  1  0.12499818  0.74982917  0.37630501  1
  V  V8  1  0.00472689  0.37936526  0.86382276  1
  V  V9  1  0.50028698  0.37515906  0.37475644  1
  V  V10  1  0.87410490  0.25223467  0.62203472  1
  V  V11  1  0.87288306  0.24611081  0.12666771  1
  V  V12  1  0.26066652  0.49678289  0.25152048  1
  V  V13  1  0.87165672  0.49245739  0.37654057  1
  V  V14  1  0.12589199  0.25968369  0.86974183  1
  V  V15  1  0.36609685  0.39323966  0.49258781  1
  V  V16  1  0.00091493  0.50305070  -0.00149505  1
  V  V17  1  0.87377993  0.75148966  0.62427295  1
  V  V18  1  0.12715833  0.12651151  0.00008989  1
  V  V19  1  0.37470387  0.24455886  0.59828553  1
  V  V20  1  0.50493288  0.74760467  0.74194636  1
  V  V21  1  0.14314467  0.74828705  0.87769863  1
  V  V22  1  0.50602607  0.87786374  0.86604642  1
  V  V23  1  0.12337252  0.62413400  0.50327749  1
  V  V24  1  -0.00232790  0.87822849  0.37459929  1
  V  V25  1  0.24737203  0.87715538  0.62189469  1
  V  V26  1  0.74830037  0.12550366  0.87670442  1
  V  V27  1  0.75594160  0.24949831  -0.00355786  1
  V  V28  1  0.63306220  0.76269881  0.37264342  1
  V  V29  1  0.75107940  0.38246272  0.12618046  1
  V  V30  1  0.60769431  0.14176553  0.01749474  1
  V  V31  1  0.74211976  0.62538758  0.87580577  1
  V  V32  1  0.74477069  0.74820931  0.00235906  1
  V  V33  1  0.00044952  0.62347376  0.12529350  1
  V  V34  1  0.87718662  0.63024149  0.75008205  1
  V  V35  1  0.74434674  -0.00271403  0.75139449  1
  V  V36  1  0.87487844  0.62424644  0.25015132  1
  V  V37  1  0.87409203  0.01648279  0.37065310  1
  V  V38  1  0.49897168  0.00037604  0.00315321  1
  V  V39  1  0.25539449  0.62019179  0.37514521  1
  V  V40  1  0.37137248  0.86469019  -0.00429388  1
  V  V41  1  0.62508095  0.24736586  0.86471800  1
  V  V42  1  0.50258421  0.36916657  0.87306634  1
  V  V43  1  0.00649183  0.24648619  0.74156201  1
  V  V44  1  0.61654680  0.37101867  0.74191297  1
  V  V45  1  0.62213659  -0.00249315  0.12892427  1
  V  V46  1  -0.00156435  0.86490474  0.87225722  1
  V  V47  1  0.37398539  -0.00087598  0.87178332  1
  V  V48  1  0.12538158  0.12144361  0.51287098  1
  V  V49  1  -0.00178361  0.24878002  0.24972829  1
  V  V50  1  0.62033965  0.63411543  0.50432869  1
  V  V51  1  0.75298921  0.62870024  0.38609815  1
  V  V52  1  0.38044617  0.51281006  0.87141520  1
  V  V53  1  0.87553350  0.50178688  0.87394944  1
  V  V54  1  0.24838025  0.86352649  0.11798395  1
  V  V55  1  0.37435999  0.00088959  0.36428268  1
  V  V56  1  -0.00258188  0.37317369  0.37895977  1
  V  V57  1  0.75085466  0.87691087  0.13770456  1
  V  V58  1  0.37949788  0.13666402  0.75248448  1
  V  V59  1  0.62931123  0.75760503  0.86662495  1
  V  V60  1  0.74838126  0.49993416  0.74520062  1
  V  V61  1  0.25297248  0.26099562  0.00181987  1
  V  V62  1  0.49719483  0.00330577  0.49989445  1
  V  V63  1  0.62223241  -0.00179384  0.62786900  1
  V  V64  1  0.51882645  0.50748292  0.00123155  1
  V  V65  1  0.87649660  0.00165835  0.87513743  1
  V  V66  1  0.00223433  0.12528626  0.12783407  1
  V  V67  1  0.75101861  0.02379500  0.25278086  1
  V  V68  1  0.75115849  0.24772318  0.49251354  1
  V  V69  1  0.62932861  0.12531134  0.49172436  1
  V  V70  1  0.12470046  0.24474843  0.37941636  1
  V  V71  1  0.87919821  0.12437198  0.74467835  1
  V  V72  1  0.37564227  0.87366674  0.49680923  1
  V  V73  1  0.38040733  0.74318705  0.61844361  1
  V  V74  1  0.60984513  0.50198700  0.62111712  1
  V  V75  1  0.00156358  0.63106481  0.62791687  1
  V  V76  1  0.87198481  0.87772845  0.00072150  1
  V  V77  1  0.87855614  0.37454769  -0.00236603  1
  V  V78  1  0.00065298  0.00309672  0.51492953  1
  V  V79  1  0.12534536  0.87614607  0.24656392  1
  V  V80  1  0.37887233  0.37876614  0.00309443  1
  V  V81  1  0.74592266  0.87172091  0.62592741  1
  V  V82  1  0.24517509  0.00066584  0.74539986  1
  V  V83  1  0.13025837  0.49399663  0.12845072  1
  V  V84  1  0.24619129  0.12057608  0.37235137  1
  Zn  Zn85  1  0.50779920  0.88036955  0.36665668  1
  Zn  Zn86  1  0.30448079  0.32615169  0.16681779  1
  Zn  Zn87  1  0.50385765  0.13060742  0.62950985  1
  Zn  Zn88  1  0.37394910  0.62704870  0.74691415  1
  Zn  Zn89  1  0.49702488  0.50539815  0.49564138  1
  Zn  Zn90  1  0.74715581  0.50349579  0.24589365  1
  Zn  Zn91  1  0.25350703  -0.00377481  0.24335963  1
  Zn  Zn92  1  0.12386688  -0.00165213  0.12228726  1
  Zn  Zn93  1  0.24351813  0.36999853  0.62899632  1
  Zn  Zn94  1  0.00026444  0.00127089  -0.00106652  1
  Zn  Zn95  1  0.14410801  0.63919642  0.00492858  1
  Zn  Zn96  1  0.51703379  0.63151805  0.11490188  1
  Zn  Zn97  1  0.23825232  0.50130371  0.74688067  1
  Zn  Zn98  1  0.25130349  0.74983202  0.49904325  1
  Zn  Zn99  1  0.50359510  0.75703997  0.24315136  1
  Zn  Zn100  1  0.11740617  0.48040047  0.63937820  1
  Zn  Zn101  1  0.39232676  0.14901890  0.22882472  1
  Zn  Zn102  1  0.87339055  0.74982666  0.12544056  1
  Zn  Zn103  1  0.62559188  0.24521343  0.36582985  1
  Zn  Zn104  1  0.38184911  0.62558624  0.24480050  1
  Zn  Zn105  1  0.38041851  0.74581499  0.12523090  1
  Zn  Zn106  1  0.12912597  0.37367000  0.25139106  1
  Zn  Zn107  1  0.19898847  0.19055946  0.19237193  1
  Zn  Zn108  1  0.19346341  0.19345685  0.68437243  1
  Zn  Zn109  1  0.18910941  0.68444670  0.18861778  1
  Zn  Zn110  1  0.19281134  0.68689938  0.69134202  1
  Zn  Zn111  1  0.57162062  0.19104759  0.19104321  1
  Zn  Zn112  1  0.68930770  0.18373374  0.68279831  1
  Zn  Zn113  1  0.68978424  0.68958059  0.19388048  1
  Zn  Zn114  1  0.68697888  0.68847455  0.68614386  1
  Zn  Zn115  1  0.30810221  0.30726047  0.33054352  1
  Zn  Zn116  1  0.31168275  0.32093046  0.81702934  1
  Zn  Zn117  1  0.31408673  0.80992705  0.30968050  1
  Zn  Zn118  1  0.31632631  0.81160095  0.80608161  1
  Zn  Zn119  1  0.81109368  0.30992012  0.30777732  1
  Zn  Zn120  1  0.81235267  0.31432280  0.80546864  1
  Zn  Zn121  1  0.81232301  0.81172483  0.31732199  1
  Zn  Zn122  1  0.81368332  0.81380550  0.80968468  1
  Zn  Zn123  1  0.18244965  0.43886196  0.43952445  1
  Zn  Zn124  1  0.21277505  0.47510189  0.95789549  1
  Zn  Zn125  1  0.18602202  0.93940083  0.43796474  1
  Zn  Zn126  1  0.18703530  0.93678318  0.93536312  1
  Zn  Zn127  1  0.68282637  0.43823542  0.43500344  1
  Zn  Zn128  1  0.69307812  0.43113919  0.92922520  1
  Zn  Zn129  1  0.69500991  0.94752053  0.43961732  1
  Zn  Zn130  1  0.68534165  0.94015854  0.94217759  1
  Zn  Zn131  1  0.30681845  0.05280882  0.06205549  1
  Zn  Zn132  1  0.31027757  0.06240244  0.56203493  1
  Zn  Zn133  1  0.32190280  0.56763951  0.06488948  1
  Zn  Zn134  1  0.30263415  0.56299970  0.57096362  1
  Zn  Zn135  1  0.80944484  0.06602918  0.06485824  1
  Zn  Zn136  1  0.81284401  0.06314881  0.56316819  1
  Zn  Zn137  1  0.69287882  0.56249749  0.06200002  1
  Zn  Zn138  1  0.81141437  0.56051231  0.56206413  1
  Zn  Zn139  1  0.44697490  0.44697838  0.18523451  1
  Zn  Zn140  1  0.41086630  0.41871905  0.69816876  1
  Zn  Zn141  1  0.43924373  0.92870482  0.18596094  1
  Zn  Zn142  1  0.43480229  0.93660916  0.68586782  1
  Zn  Zn143  1  0.93734373  0.43659839  0.19003752  1
  Zn  Zn144  1  0.93671553  0.43783331  0.68613092  1
  Zn  Zn145  1  0.93548082  0.94254857  0.18812582  1
  Zn  Zn146  1  0.93611858  0.93505539  0.69149176  1
  Zn  Zn147  1  0.05997112  0.06188366  0.31282667  1
  Zn  Zn148  1  0.06331492  0.06066838  0.81264932  1
  Zn  Zn149  1  0.06540628  0.56011387  0.31362427  1
  Zn  Zn150  1  0.06735833  0.56943629  0.81049336  1
  Zn  Zn151  1  0.56176234  0.05924927  0.31032967  1
  Zn  Zn152  1  0.56073121  0.06546630  0.81486675  1
  Zn  Zn153  1  0.56810442  0.55938357  0.31049750  1
  Zn  Zn154  1  0.55815893  0.56073248  0.80735332  1
  Zn  Zn155  1  0.44476936  0.18183854  0.42148134  1
  Zn  Zn156  1  0.43008410  0.18448131  1.04903553  1
  Zn  Zn157  1  0.46091063  0.67029309  0.39802621  1
  Zn  Zn158  1  0.44798092  0.68831241  0.93719503  1
  Zn  Zn159  1  0.94108496  0.18707941  0.44421330  1
  Zn  Zn160  1  0.94211663  0.18759566  0.93397691  1
  Zn  Zn161  1  0.93647830  0.68862644  0.43998066  1
  Zn  Zn162  1  0.93395468  0.68741736  0.94068316  1
  Zn  Zn163  1  0.06471227  0.31379771  0.05900102  1
  Zn  Zn164  1  0.06132840  0.30944813  0.55990687  1
  Zn  Zn165  1  0.05954843  0.81027851  0.05879657  1
  Zn  Zn166  1  0.06020582  0.81269550  0.56312750  1
  Zn  Zn167  1  0.57179612  0.32320768  0.05542309  1
  Zn  Zn168  1  0.55515824  0.31059113  0.55726023  1
  Zn  Zn169  1  0.56484509  0.81536147  0.06006316  1
  Zn  Zn170  1  0.56273735  0.81481490  0.55498734  1
  O  O171  1  0.12039786  0.12650317  0.11607935  1
  O  O172  1  0.13143677  0.12618609  0.61171386  1
  O  O173  1  0.11620657  0.61645008  0.12301403  1
  O  O174  1  0.11464201  0.63277124  0.61709217  1
  O  O175  1  0.63255663  0.11183859  0.11653554  1
  O  O176  1  0.62303223  0.11364516  0.61749976  1
  O  O177  1  0.62982446  0.61921741  0.13381227  1
  O  O178  1  0.63174520  0.61817597  0.61220931  1
  O  O179  1  0.38324023  0.37104778  0.38700000  1
  O  O180  1  0.39094342  0.38053939  0.88350315  1
  O  O181  1  0.37120899  0.88359978  0.38434740  1
  O  O182  1  0.38172014  0.87973935  0.87765310  1
  O  O183  1  0.87963298  0.38567202  0.37071706  1
  O  O184  1  0.88123164  0.38166410  0.87536838  1
  O  O185  1  0.87866124  0.88084008  0.38494483  1
  O  O186  1  0.87920187  0.88074434  0.88003508  1
  O  O187  1  0.25803979  0.00249428  0.37304245  1
  O  O188  1  0.25457042  0.00458025  0.86658524  1
  O  O189  1  0.23756121  0.50971880  0.36441186  1
  O  O190  1  0.28065595  0.49059299  0.86356318  1
  O  O191  1  0.75798189  0.00180800  0.36085971  1
  O  O192  1  0.75329689  0.00529315  0.86889109  1
  O  O193  1  0.75936764  0.50708801  0.37692114  1
  O  O194  1  0.75487602  0.50834458  0.86699768  1
  O  O195  1  0.24028585  0.50207892  0.13863346  1
  O  O196  1  0.23653548  0.49060559  0.62175220  1
  O  O197  1  0.24127030  0.98271952  0.12555299  1
  O  O198  1  0.25380767  0.98705087  0.63123052  1
  O  O199  1  0.75997282  0.48573465  0.12148299  1
  O  O200  1  0.74432423  0.49167597  0.62783662  1
  O  O201  1  0.74812212  0.99632711  0.13588966  1
  O  O202  1  0.74405070  0.99392797  0.63274869  1
  O  O203  1  0.00161010  0.36819826  0.26288072  1
  O  O204  1  -0.00705787  0.36602856  0.75935509  1
  O  O205  1  0.00280464  0.86790283  0.25342353  1
  O  O206  1  0.00993952  0.87977216  0.75833269  1
  O  O207  1  0.51070504  0.37763516  0.25319906  1
  O  O208  1  0.51077845  0.37600634  0.75428227  1
  O  O209  1  0.50453078  0.87215298  0.25477240  1
  O  O210  1  0.49542915  0.86959101  0.76075473  1
  O  O211  1  0.49998367  0.13765479  0.25895784  1
  O  O212  1  0.48262552  0.11752408  0.74786458  1
  O  O213  1  0.49304335  0.63878525  0.28469375  1
  O  O214  1  0.50225105  0.64472465  0.75150831  1
  O  O215  1  1.00552669  0.13244899  0.23618066  1
  O  O216  1  0.99105484  0.13337847  0.75510877  1
  O  O217  1  0.99681883  0.62920618  0.24583747  1
  O  O218  1  0.98512050  0.62282409  0.74203310  1
  O  O219  1  0.36447878  0.26337690  -0.00417288  1
  O  O220  1  0.37225510  0.23904698  0.49884577  1
  O  O221  1  0.38351400  0.76223943  -0.00290008  1
  O  O222  1  0.37491998  0.76433277  0.50264339  1
  O  O223  1  0.87476710  0.25530695  0.00268581  1
  O  O224  1  0.86880932  0.24299090  0.51439573  1
  O  O225  1  0.86222596  0.75842747  0.00128660  1
  O  O226  1  0.87836645  0.76100392  0.51151580  1
  O  O227  1  0.10863304  0.22847257  0.49210632  1
  O  O228  1  0.12700973  0.24301148  0.98839468  1
  O  O229  1  0.12307559  0.74352870  0.49190499  1
  O  O230  1  0.12518241  0.75327265  0.98431193  1
  O  O231  1  0.63398570  0.24078056  0.50338141  1
  O  O232  1  0.63936830  0.25059791  0.98349812  1
  O  O233  1  0.63176657  0.73782166  0.50040844  1
  O  O234  1  0.63906858  0.75925544  0.98506250  1
  O  O235  1  0.53351803  0.22086429  0.08589848  1
  O  O236  1  0.48134520  0.24531326  0.62017947  1
  O  O237  1  0.50405692  0.74764491  0.12378729  1
  O  O238  1  0.49362657  0.76326533  0.63100855  1
  O  O239  1  0.99696826  0.24660394  0.13154626  1
  O  O240  1  0.98974423  0.25327147  0.63560954  1
  O  O241  1  0.99768765  0.73753636  0.12762836  1
  O  O242  1  0.99029235  0.73868898  0.62163788  1
  O  O243  1  0.00133080  0.25431534  0.36960616  1
  O  O244  1  0.00570916  0.25719454  0.86293921  1
  O  O245  1  0.00813677  0.75617071  0.37246698  1
  O  O246  1  -0.00447740  0.76327630  0.87747672  1
  O  O247  1  0.50787005  0.26630094  0.38000105  1
  O  O248  1  0.51665417  0.26511551  0.87875848  1
  O  O249  1  0.52576128  0.76380909  0.38995625  1
  O  O250  1  0.51214792  0.75870878  0.86808637  1
  O  O251  1  0.23150628  0.11104892  0.49034727  1
  O  O252  1  0.24336718  0.13485336  0.99133886  1
  O  O253  1  0.23511145  0.62668413  0.49552779  1
  O  O254  1  0.23923461  0.58215500  0.99448011  1
  O  O255  1  0.74158078  0.13407556  0.50708061  1
  O  O256  1  0.74142063  0.13272177  0.99493551  1
  O  O257  1  0.74451462  0.62209205  0.49168723  1
  O  O258  1  0.75098709  0.63533842  0.98842168  1
  O  O259  1  0.26537847  0.37462566  -0.00787141  1
  O  O260  1  0.26491671  0.37724389  0.49203028  1
  O  O261  1  0.25988762  0.87802197  0.00353430  1
  O  O262  1  0.25494991  0.87550762  0.50608307  1
  O  O263  1  0.76029773  0.36941792  0.00170635  1
  O  O264  1  0.74328179  0.36810719  0.51107017  1
  O  O265  1  0.75972920  0.87215038  0.00532151  1
  O  O266  1  0.76534008  0.88732726  0.51163940  1
  O  O267  1  0.13034387  0.49741032  0.24278239  1
  O  O268  1  0.12263136  0.49492572  0.75328615  1
  O  O269  1  0.11829257  0.98264310  0.24963252  1
  O  O270  1  0.13750307  0.98916821  0.75630643  1
  O  O271  1  0.63279426  0.48292652  0.25481013  1
  O  O272  1  0.62904245  0.49340455  0.74015479  1
  O  O273  1  0.63945230  1.00497532  0.24184854  1
  O  O274  1  0.63306687  1.00714013  0.74192495  1
  O  O275  1  0.37501877  -0.00162467  0.25956500  1
  O  O276  1  0.36283096  0.00255407  0.75272164  1
  O  O277  1  0.36452172  0.50242860  0.24572264  1
  O  O278  1  0.40910910  0.51199110  0.76840746  1
  O  O279  1  0.86294555  -0.00006150  0.25768505  1
  O  O280  1  0.86882647  0.00773997  0.75467879  1
  O  O281  1  0.87454002  0.50745500  0.25998614  1
  O  O282  1  0.86836765  0.50816886  0.75380503  1
  O  O283  1  0.11520083  0.36257298  0.37842006  1
  O  O284  1  0.11699955  0.36263844  0.87778578  1
  O  O285  1  0.11950706  0.86781785  0.36892741  1
  O  O286  1  0.11746522  0.86605692  0.87020829  1
  O  O287  1  0.62006783  0.37026161  0.36495680  1
  O  O288  1  0.62580078  0.36758108  0.86037679  1
  O  O289  1  0.63680850  0.86465471  0.38734078  1
  O  O290  1  0.61865797  0.87102592  0.87547163  1
  O  O291  1  0.36853204  0.12445941  0.12006879  1
  O  O292  1  0.37335924  0.13309533  0.63259285  1
  O  O293  1  0.39389603  0.62649933  0.12546253  1
  O  O294  1  0.37669208  0.64096666  0.61456577  1
  O  O295  1  0.88519293  0.13892470  0.11651137  1
  O  O296  1  0.86877679  0.13224204  0.63851333  1
  O  O297  1  0.88312325  0.62708775  0.14357092  1
  O  O298  1  0.87741334  0.63252843  0.62948527  1
  O  O299  1  0.22971659  0.26017887  0.10402207  1
  O  O300  1  0.27216271  0.25291569  0.62777342  1
  O  O301  1  0.24943968  0.75893673  0.12405564  1
  O  O302  1  0.26044711  0.76254918  0.62221180  1
  O  O303  1  0.76460513  0.26274247  0.11440298  1
  O  O304  1  0.75601124  0.25691753  0.61920374  1
  O  O305  1  0.75036924  0.75923032  0.11779237  1
  O  O306  1  0.75395554  0.76562865  0.62917177  1
  O  O307  1  0.23085656  0.23752349  0.38215341  1
  O  O308  1  0.24243281  0.25054325  0.88021500  1
  O  O309  1  0.23589202  0.74485299  0.37575849  1
  O  O310  1  0.24220981  0.75314407  0.87341195  1
  O  O311  1  0.75171766  0.25554447  0.38975161  1
  O  O312  1  0.74671460  0.24453148  0.87456695  1
  O  O313  1  0.74513669  0.74274715  0.38036803  1
  O  O314  1  0.74670192  0.74609811  0.87771802  1
  O  O315  1  0.00924237  0.12794215  0.00851500  1
  O  O316  1  0.00759225  0.11005515  0.50162058  1
  O  O317  1  -0.00276450  0.61712429  0.00897543  1
  O  O318  1  0.00508719  0.61982274  0.50682233  1
  O  O319  1  0.50312387  0.10820506  -0.01223969  1
  O  O320  1  0.50632858  0.11468739  0.50094795  1
  O  O321  1  0.51378739  0.61083307  -0.00823310  1
  O  O322  1  0.51710347  0.62363470  0.49191255  1
  O  O323  1  0.49134560  0.38051169  0.49002223  1
  O  O324  1  0.50057587  0.38410524  0.99062907  1
  O  O325  1  0.49231273  0.88902476  0.49728124  1
  O  O326  1  0.49579507  0.88454508  0.98727569  1
  O  O327  1  0.99799782  0.38172338  0.48841098  1
  O  O328  1  0.99513393  0.37692094  0.98543335  1
  O  O329  1  0.99188850  0.88532840  0.49699855  1
  O  O330  1  0.98619055  0.87696977  0.99486040  1
  O  O331  1  0.50759732  0.48231327  0.37775712  1
  O  O332  1  0.50538981  0.48986563  0.88404435  1
  O  O333  1  0.49204818  0.99931160  0.38296097  1
  O  O334  1  0.49543275  0.99262891  0.87744644  1
  O  O335  1  0.99411777  0.49202374  0.38056345  1
  O  O336  1  0.99753211  0.49537968  0.88000576  1
  O  O337  1  0.99062087  0.99350490  0.37882907  1
  O  O338  1  0.99291675  0.99094625  0.87749346  1
  O  O339  1  0.00199666  0.01063404  0.12066601  1
  O  O340  1  -0.00527143  -0.00335727  0.61317500  1
  O  O341  1  0.00134698  0.50955721  0.12085003  1
  O  O342  1  -0.00213942  0.51010798  0.61762774  1
  O  O343  1  0.50958275  -0.00646935  0.11469441  1
  O  O344  1  0.50686154  0.00102824  0.61891531  1
  O  O345  1  0.50715364  0.50148167  0.10383213  1
  O  O346  1  0.50993976  0.49372828  0.62183308  1
  O  O347  1  0.24845326  0.38351624  0.25530525  1
  O  O348  1  0.29830381  0.39329502  0.73307639  1
  O  O349  1  0.23983668  0.87427054  0.24196781  1
  O  O350  1  0.24464050  0.88133129  0.74168348  1
  O  O351  1  0.74650562  0.37805669  0.24011206  1
  O  O352  1  0.73822751  0.37913267  0.73855671  1
  O  O353  1  0.75658938  0.87547626  0.23863171  1
  O  O354  1  0.75580432  0.88979867  0.74237639  1
  O  O355  1  0.23070034  0.10984085  0.26727052  1
  O  O356  1  0.25587559  0.11760068  0.75181534  1
  O  O357  1  0.25079834  0.61701494  0.25934058  1
  O  O358  1  0.26180776  0.61574679  0.73967109  1
  O  O359  1  0.75268311  0.11860150  0.24676223  1
  O  O360  1  0.75625963  0.11553685  0.75548073  1
  O  O361  1  0.76096338  0.62399499  0.26446211  1
  O  O362  1  0.75956766  0.62137506  0.75310285  1
  O  O363  1  0.36197709  0.11625559  0.37293517  1
  O  O364  1  0.36534256  0.11577984  0.86100679  1
  O  O365  1  0.35553408  0.62886916  0.38461058  1
  O  O366  1  0.38291181  0.61537507  0.87701687  1
  O  O367  1  0.88063920  0.11528842  0.37832447  1
  O  O368  1  0.86986191  0.12197846  0.86629156  1
  O  O369  1  0.87283651  0.61856600  0.37042874  1
  O  O370  1  0.86708904  0.62310566  0.86684189  1
  O  O371  1  0.11362298  0.39016289  0.12900904  1
  O  O372  1  0.12938700  0.36724513  0.62167828  1
  O  O373  1  0.12726320  0.87228652  0.13019233  1
  O  O374  1  0.13254397  0.86814737  0.63343002  1
  O  O375  1  0.63609829  0.37436955  0.13444697  1
  O  O376  1  0.62782049  0.37943645  0.62715807  1
  O  O377  1  0.63892269  0.89028787  0.11338158  1
  O  O378  1  0.63345733  0.88838872  0.61658565  1
  O  O379  1  0.11399850  0.25109528  0.25914460  1
  O  O380  1  0.11674045  0.24221160  0.75584036  1
  O  O381  1  0.11884141  0.75704023  0.25638281  1
  O  O382  1  0.12967235  0.76275231  0.76100853  1
  O  O383  1  0.63330653  0.26848230  0.25007474  1
  O  O384  1  0.63056142  0.25502947  0.75458297  1
  O  O385  1  0.63029432  0.75138945  0.27087261  1
  O  O386  1  0.62312574  0.75427563  0.75793996  1
  O  O387  1  0.32448212  0.24072290  0.24006149  1
  O  O388  1  0.37412661  0.23547369  0.75707852  1
  O  O389  1  0.37904070  0.74582179  0.24585368  1
  O  O390  1  0.38612099  0.75082103  0.73730226  1
  O  O391  1  0.88821111  0.25346520  0.24080464  1
  O  O392  1  0.88011789  0.24260843  0.74168298  1
  O  O393  1  0.88231871  0.74279369  0.25229681  1
  O  O394  1  0.87025414  0.74407514  0.73599457  1
  O  O395  1  0.37509210  0.49429651  0.50186465  1
  O  O396  1  0.39398167  0.49557514  0.98724003  1
  O  O397  1  0.38191040  0.99691828  0.49341705  1
  O  O398  1  0.38192526  0.99108204  0.99034424  1
  O  O399  1  0.88714423  0.50622052  0.49177420  1
  O  O400  1  0.88972868  0.49127335  0.99032928  1
  O  O401  1  0.88412981  0.99723196  0.49477600  1
  O  O402  1  0.87268282  0.99444067  0.99336598  1
  O  O403  1  0.12380563  0.01520867  -0.00378326  1
  O  O404  1  0.10904445  0.00608692  0.49685256  1
  O  O405  1  0.10787645  0.49238483  0.00828662  1
  O  O406  1  0.10919546  0.50954097  0.49858516  1
  O  O407  1  0.61703630  0.01086674  0.00672687  1
  O  O408  1  0.61912208  0.00691291  0.50621213  1
  O  O409  1  0.62381375  0.49472646  -0.00529462  1
  O  O410  1  0.62591092  0.51123385  0.50703735  1
  O  O411  1  0.38571395  0.38055985  0.11038476  1
  O  O412  1  0.38093060  0.36012427  0.59833222  1
  O  O413  1  0.36566021  0.87369392  0.11241808  1
  O  O414  1  0.36818266  0.87203505  0.61370914  1
  O  O415  1  0.87563285  0.36650456  0.11825056  1
  O  O416  1  0.86281915  0.36553127  0.63108174  1
  O  O417  1  0.86918504  0.87485685  0.11649386  1
  O  O418  1  0.87022304  0.86895071  0.62122503  1
  O  O419  1  0.12432558  0.12710997  0.38401349  1
  O  O420  1  0.12949859  0.13434051  0.87994454  1
  O  O421  1  0.12563562  0.63322282  0.38367734  1
  O  O422  1  0.11673443  0.64757770  0.87705688  1
  O  O423  1  0.62434363  0.12555779  0.38806332  1
  O  O424  1  0.62693501  0.13424382  0.88201803  1
  O  O425  1  0.63657183  0.63303682  0.38696902  1
  O  O426  1  0.63857077  0.63383936  0.86364761  1
