# generated using pymatgen
data_V85Zn86O256
_symmetry_space_group_name_H-M   'P 1'
_cell_length_a   16.96267718
_cell_length_b   16.98606728
_cell_length_c   16.99141459
_cell_angle_alpha   89.93921399
_cell_angle_beta   89.89135258
_cell_angle_gamma   90.00412170
_symmetry_Int_Tables_number   1
_chemical_formula_structural   V85Zn86O256
_chemical_formula_sum   'V85 Zn86 O256'
_cell_volume   4895.71070973
_cell_formula_units_Z   1
loop_
 _symmetry_equiv_pos_site_id
 _symmetry_equiv_pos_as_xyz
  1  'x, y, z'
loop_
 _atom_site_type_symbol
 _atom_site_label
 _atom_site_symmetry_multiplicity
 _atom_site_fract_x
 _atom_site_fract_y
 _atom_site_fract_z
 _atom_site_occupancy
  V  V0  1  0.87483369  0.62331607  0.24560503  1
  V  V1  1  -0.00112120  0.12364298  0.12349179  1
  V  V2  1  0.50523019  0.86702997  0.88118797  1
  V  V3  1  0.49852981  -0.00898767  0.49842367  1
  V  V4  1  0.87171444  0.87410305  0.00310179  1
  V  V5  1  0.87920931  0.24975663  0.62088828  1
  V  V6  1  0.26508976  0.61929185  0.86877348  1
  V  V7  1  0.87546483  0.50033144  0.87502569  1
  V  V8  1  0.37396179  0.75956078  0.61740874  1
  V  V9  1  0.00046093  0.62726990  0.12499726  1
  V  V10  1  0.75555003  0.74917019  0.50087597  1
  V  V11  1  0.12154198  0.37539921  0.24851363  1
  V  V12  1  0.24790339  0.87549513  0.12313635  1
  V  V13  1  0.12399264  0.12494800  -0.00193930  1
  V  V14  1  0.62477049  0.50029315  0.62625320  1
  V  V15  1  0.12470158  -0.00102518  0.12340551  1
  V  V16  1  0.86000820  -0.00039236  0.86649853  1
  V  V17  1  0.49685481  0.48681332  0.49280162  1
  V  V18  1  0.87897319  0.74968158  0.62514707  1
  V  V19  1  0.25308137  0.00040397  0.74369864  1
  V  V20  1  0.00401846  0.75566085  0.26008035  1
  V  V21  1  0.62738167  0.86903258  0.75191061  1
  V  V22  1  0.11894342  0.24973851  0.37554059  1
  V  V23  1  0.55891917  0.05683781  -0.04770564  1
  V  V24  1  0.37431831  0.74233983  0.12762509  1
  V  V25  1  0.87160570  0.75300594  0.12447660  1
  V  V26  1  0.86786463  0.12300703  0.24707048  1
  V  V27  1  0.73950184  0.74705407  0.00148188  1
  V  V28  1  0.12295247  0.24912721  0.86362293  1
  V  V29  1  0.00074179  0.50237301  0.50383676  1
  V  V30  1  0.12970100  0.87516043  0.74651480  1
  V  V31  1  0.87201302  0.49947226  0.37209064  1
  V  V32  1  0.75025060  -0.02017604  0.24783460  1
  V  V33  1  0.00613692  -0.00057792  0.49768909  1
  V  V34  1  0.24964377  0.00239178  0.24961512  1
  V  V35  1  0.87714910  0.62602563  0.75219773  1
  V  V36  1  0.49126351  0.62285557  0.62672194  1
  V  V37  1  0.24798323  0.25021858  -0.00122858  1
  V  V38  1  0.37487952  -0.00063790  0.88110537  1
  V  V39  1  0.61663328  0.76764610  0.38146868  1
  V  V40  1  0.50348894  0.12643241  0.62311063  1
  V  V41  1  0.63306430  -0.00086419  0.62345893  1
  V  V42  1  0.00015463  0.36986563  0.86760380  1
  V  V43  1  0.87200315  0.24907688  0.12130119  1
  V  V44  1  0.37755234  0.38187113  -0.00753140  1
  V  V45  1  0.87099322  0.13390498  0.75642200  1
  V  V46  1  0.63404289  0.13667073  0.49696294  1
  V  V47  1  0.38547918  0.12875157  0.25239481  1
  V  V48  1  0.74272720  0.23650225  -0.00442589  1
  V  V49  1  0.37714869  -0.00329055  0.38097703  1
  V  V50  1  0.38362970  0.25059924  0.12896966  1
  V  V51  1  0.75457827  0.87771054  0.62992800  1
  V  V52  1  0.25076176  0.50832600  0.25185807  1
  V  V53  1  0.36427947  0.49420740  0.38203255  1
  V  V54  1  0.11918282  0.12936217  0.50194620  1
  V  V55  1  0.26366634  0.49866694  0.74567004  1
  V  V56  1  0.88659826  0.87245038  0.49942931  1
  V  V57  1  0.75001656  0.50123266  0.74841717  1
  V  V58  1  -0.00258451  -0.00083395  -0.00270003  1
  V  V59  1  0.00271176  0.74996817  0.74884559  1
  V  V60  1  0.87179331  0.37665957  0.00015733  1
  V  V61  1  0.86176719  0.37473483  0.49947371  1
  V  V62  1  0.62730450  0.37340682  0.75466869  1
  V  V63  1  0.56785606  0.30920603  0.30748457  1
  V  V64  1  0.00001821  0.49867061  -0.00106538  1
  V  V65  1  0.73422274  0.50072342  0.24463898  1
  V  V66  1  0.37542503  0.12702850  0.75088320  1
  V  V67  1  0.62371064  0.62492515  0.49906597  1
  V  V68  1  0.73420715  0.37980967  0.12453115  1
  V  V69  1  0.12582811  0.87306623  0.26438487  1
  V  V70  1  0.87830467  -0.00348574  0.37612536  1
  V  V71  1  0.25140556  0.75172484  -0.00492429  1
  V  V72  1  0.49625503  0.74542054  0.75185241  1
  V  V73  1  0.24736151  0.12923315  0.37204699  1
  V  V74  1  0.12432543  0.50023657  0.12458357  1
  V  V75  1  0.25020690  0.75508439  0.47790438  1
  V  V76  1  0.61485732  -0.01002964  0.14184508  1
  V  V77  1  0.12669642  0.74787596  0.87185050  1
  V  V78  1  -0.00737696  0.37436103  0.37422987  1
  V  V79  1  0.00014369  0.87600242  0.87362735  1
  V  V80  1  0.12582046  0.62430004  -0.00312567  1
  V  V81  1  0.73622126  0.62953794  0.87883474  1
  V  V82  1  0.50168112  0.25249106  0.75402548  1
  V  V83  1  0.25039924  0.37411987  0.12603271  1
  V  V84  1  -0.00298273  0.24874286  0.24577548  1
  Zn  Zn85  1  0.00746277  0.62366288  0.62584186  1
  Zn  Zn86  1  0.37895981  0.26408582  0.61489509  1
  Zn  Zn87  1  0.38000909  0.62454950  0.25727369  1
  Zn  Zn88  1  0.12601436  0.00269937  0.62462751  1
  Zn  Zn89  1  0.51701789  0.51648236  -0.00015918  1
  Zn  Zn90  1  0.26083651  0.25883704  0.49575907  1
  Zn  Zn91  1  0.50520249  0.12228175  0.12581125  1
  Zn  Zn92  1  0.50987845  0.75788252  0.25357858  1
  Zn  Zn93  1  0.25631872  0.87758951  0.62031091  1
  Zn  Zn94  1  0.24827315  0.12439301  0.87342757  1
  Zn  Zn95  1  0.13936481  0.62793408  0.49056183  1
  Zn  Zn96  1  0.25308170  0.37623200  0.60906094  1
  Zn  Zn97  1  0.74745351  0.36773672  0.62492689  1
  Zn  Zn98  1  0.75065789  0.62751132  0.37486237  1
  Zn  Zn99  1  0.49702790  0.38573987  0.87429493  1
  Zn  Zn100  1  0.74261277  0.12923718  0.37194955  1
  Zn  Zn101  1  0.12577862  0.37829807  0.74273961  1
  Zn  Zn102  1  0.52050530  0.61515620  0.12953278  1
  Zn  Zn103  1  0.00353209  0.13011425  0.63326667  1
  Zn  Zn104  1  0.62696555  0.23858117  0.87716890  1
  Zn  Zn105  1  0.37985490  0.87930052  0.00291463  1
  Zn  Zn106  1  0.12788598  0.50155187  0.62624669  1
  Zn  Zn107  1  0.18800407  0.18822912  0.18662798  1
  Zn  Zn108  1  0.19263039  0.19052362  0.68160265  1
  Zn  Zn109  1  0.18735270  0.69159079  0.18858674  1
  Zn  Zn110  1  0.19001970  0.67997562  0.68191097  1
  Zn  Zn111  1  0.68483251  0.18015891  0.17778028  1
  Zn  Zn112  1  0.69530955  0.18619597  0.68881825  1
  Zn  Zn113  1  0.69115441  0.70018437  0.19954786  1
  Zn  Zn114  1  0.68604978  0.68757777  0.68714146  1
  Zn  Zn115  1  0.31390902  0.31724013  0.31428402  1
  Zn  Zn116  1  0.31102065  0.31263323  0.80751602  1
  Zn  Zn117  1  0.34076725  0.82308471  0.30640248  1
  Zn  Zn118  1  0.31879389  0.81159797  0.80963676  1
  Zn  Zn119  1  0.73480484  0.30822498  0.31455429  1
  Zn  Zn120  1  0.80975095  0.30922759  0.81410396  1
  Zn  Zn121  1  0.82052802  0.80717261  0.32044387  1
  Zn  Zn122  1  0.81201059  0.81116516  0.81509993  1
  Zn  Zn123  1  0.18256899  0.43486670  0.43768907  1
  Zn  Zn124  1  0.18973855  0.43707395  0.93263074  1
  Zn  Zn125  1  0.19723943  0.93772123  0.44202867  1
  Zn  Zn126  1  0.18924503  0.93842153  0.93331073  1
  Zn  Zn127  1  0.68370875  0.44087441  0.43405305  1
  Zn  Zn128  1  0.68874404  0.43384828  0.93305870  1
  Zn  Zn129  1  0.69605156  0.94325589  0.44315751  1
  Zn  Zn130  1  0.68814579  0.92653858  0.94112472  1
  Zn  Zn131  1  0.31417964  0.06604129  0.06348111  1
  Zn  Zn132  1  0.32892516  0.10221195  0.54569191  1
  Zn  Zn133  1  0.31412682  0.56048043  0.06077705  1
  Zn  Zn134  1  0.31317189  0.56885609  0.55909115  1
  Zn  Zn135  1  0.80670037  0.05446046  0.06650370  1
  Zn  Zn136  1  0.81705485  0.06466698  0.56564553  1
  Zn  Zn137  1  0.68491049  0.56678856  0.06513243  1
  Zn  Zn138  1  0.81541850  0.56314087  0.56364157  1
  Zn  Zn139  1  0.44417668  0.43844563  0.18850303  1
  Zn  Zn140  1  0.43620196  0.43865144  0.68764873  1
  Zn  Zn141  1  0.43620855  0.93090066  0.19672915  1
  Zn  Zn142  1  0.44204703  0.93805648  0.68938938  1
  Zn  Zn143  1  0.93124200  0.43739992  0.18474441  1
  Zn  Zn144  1  0.93726612  0.43530675  0.68604858  1
  Zn  Zn145  1  0.93937736  0.93480804  0.18722181  1
  Zn  Zn146  1  0.94127180  0.94198289  0.68681246  1
  Zn  Zn147  1  0.05922912  0.05901332  0.31351933  1
  Zn  Zn148  1  0.05845980  0.06252880  0.81111098  1
  Zn  Zn149  1  0.06577236  0.56322068  0.31422891  1
  Zn  Zn150  1  0.06727454  0.55956812  0.81016481  1
  Zn  Zn151  1  0.56469429  0.06089869  0.31729273  1
  Zn  Zn152  1  0.56669104  0.05698355  0.79284478  1
  Zn  Zn153  1  0.55537943  0.57385780  0.31568315  1
  Zn  Zn154  1  0.55496789  0.55982123  0.81597610  1
  Zn  Zn155  1  0.44728653  0.18885456  0.43312682  1
  Zn  Zn156  1  0.43243378  0.19581179  0.93414248  1
  Zn  Zn157  1  0.43372493  0.68055630  0.44028878  1
  Zn  Zn158  1  0.44433139  0.68557241  0.94243734  1
  Zn  Zn159  1  0.89401945  0.21278670  0.40977302  1
  Zn  Zn160  1  0.93478304  0.18670519  0.93471716  1
  Zn  Zn161  1  0.97259123  0.67088120  0.41951484  1
  Zn  Zn162  1  0.93568892  0.68740025  0.93737853  1
  Zn  Zn163  1  0.06165206  0.31272975  0.05801430  1
  Zn  Zn164  1  0.06118816  0.31726220  0.56501490  1
  Zn  Zn165  1  0.06177947  0.81199627  0.06406015  1
  Zn  Zn166  1  0.07071771  0.80905762  0.56122324  1
  Zn  Zn167  1  0.56107873  0.31259578  0.06092385  1
  Zn  Zn168  1  0.56474652  0.31195278  0.56794776  1
  Zn  Zn169  1  0.56081243  0.81004416  0.06593647  1
  Zn  Zn170  1  0.56395943  0.81139851  0.56388353  1
  O  O171  1  0.11955027  0.11907682  0.11799146  1
  O  O172  1  0.12205592  0.12416455  0.61647204  1
  O  O173  1  0.12047732  0.62063167  0.11673739  1
  O  O174  1  0.12317126  0.62155766  0.61226769  1
  O  O175  1  0.62126379  0.10157738  0.12671428  1
  O  O176  1  0.62210549  0.11667631  0.62429053  1
  O  O177  1  0.63218720  0.64153000  0.12799706  1
  O  O178  1  0.61994632  0.62077317  0.61545723  1
  O  O179  1  0.37863848  0.39431066  0.36857996  1
  O  O180  1  0.37415055  0.36397295  0.89034241  1
  O  O181  1  0.35649873  0.90088558  0.39049784  1
  O  O182  1  0.38644040  0.88439251  0.87389873  1
  O  O183  1  0.87897959  0.38351022  0.38336132  1
  O  O184  1  0.88101751  0.37691056  0.88062347  1
  O  O185  1  0.86984744  0.88712946  0.38734556  1
  O  O186  1  0.87961913  0.88394077  0.87950360  1
  O  O187  1  0.25273607  0.01566323  0.37132208  1
  O  O188  1  0.25917627  0.00165591  0.86382080  1
  O  O189  1  0.25701987  0.49839741  0.36822096  1
  O  O190  1  0.24838657  0.51447239  0.86955645  1
  O  O191  1  0.75752448  0.00468264  0.36388907  1
  O  O192  1  0.76254793  -0.00535164  0.88021502  1
  O  O193  1  0.76092654  0.50270951  0.36753413  1
  O  O194  1  0.75737117  0.51153378  0.86851024  1
  O  O195  1  0.24348643  0.49301233  0.13093969  1
  O  O196  1  0.25376283  0.50724524  0.63799280  1
  O  O197  1  0.24514417  0.99417870  0.12729271  1
  O  O198  1  0.25300035  0.99953959  0.63928219  1
  O  O199  1  0.74978458  0.49277812  0.13486187  1
  O  O200  1  0.74298715  0.50079111  0.63345760  1
  O  O201  1  0.74236953  0.99605480  0.14267979  1
  O  O202  1  0.74564200  0.98856824  0.61901117  1
  O  O203  1  0.00139148  0.36970972  0.25242539  1
  O  O204  1  0.00189266  0.38073437  0.76489917  1
  O  O205  1  0.01501884  0.86756935  0.23968164  1
  O  O206  1  0.00928143  0.87195097  0.75477868  1
  O  O207  1  0.50990430  0.36527659  0.24771538  1
  O  O208  1  0.50811299  0.36738600  0.75203407  1
  O  O209  1  0.45034990  0.85168778  0.27203929  1
  O  O210  1  0.50839402  0.86949089  0.75898151  1
  O  O211  1  0.48806573  0.12208369  0.25311856  1
  O  O212  1  0.49741589  0.13168178  0.74295480  1
  O  O213  1  0.49633676  0.64039960  0.24580852  1
  O  O214  1  0.51123065  0.63478905  0.73839627  1
  O  O215  1  0.99167165  0.12513884  0.24117286  1
  O  O216  1  0.97946879  0.11189881  0.74655499  1
  O  O217  1  0.99589096  0.63439398  0.24181476  1
  O  O218  1  0.99298228  0.63029672  0.74973664  1
  O  O219  1  0.36177869  0.25242081  0.00759747  1
  O  O220  1  0.37027703  0.21160142  0.50987272  1
  O  O221  1  0.36153545  0.75402948  0.00811875  1
  O  O222  1  0.37074168  0.75039061  0.51223335  1
  O  O223  1  0.86881243  0.25749597  0.00237522  1
  O  O224  1  0.88084081  0.26120304  0.51298578  1
  O  O225  1  0.87318438  0.75624570  0.00661297  1
  O  O226  1  0.87090563  0.75766100  0.50533236  1
  O  O227  1  0.11676394  0.24350615  0.48917312  1
  O  O228  1  0.13427765  0.24539021  0.99470329  1
  O  O229  1  0.14511700  0.75286044  0.49691007  1
  O  O230  1  0.13425590  0.74654761  0.99340506  1
  O  O231  1  0.62799720  0.23491873  0.51118901  1
  O  O232  1  0.63806731  0.24930149  0.99872252  1
  O  O233  1  0.63507484  0.74349362  0.50007941  1
  O  O234  1  0.64144332  0.76208449  1.00127013  1
  O  O235  1  0.48646642  0.24356727  0.11920151  1
  O  O236  1  0.49982049  0.24138454  0.63613691  1
  O  O237  1  0.47821382  0.75942250  0.12845979  1
  O  O238  1  0.49180297  0.74441624  0.62714053  1
  O  O239  1  0.99390080  0.24351233  0.12538750  1
  O  O240  1  0.98570901  0.25181976  0.62880742  1
  O  O241  1  0.99159632  0.74428302  0.12792882  1
  O  O242  1  0.99560523  0.74900100  0.63152959  1
  O  O243  1  -0.00459205  0.25683538  0.36450502  1
  O  O244  1  0.00989932  0.25856974  0.88269795  1
  O  O245  1  -0.01975845  0.76552503  0.35626325  1
  O  O246  1  0.00583908  0.75640067  0.86876954  1
  O  O247  1  0.51055500  0.25339922  0.36869548  1
  O  O248  1  0.50580350  0.25046294  0.86359950  1
  O  O249  1  0.51611735  0.74902416  0.39088553  1
  O  O250  1  0.49489684  0.75647367  0.86424974  1
  O  O251  1  0.23225092  0.12507250  0.48689210  1
  O  O252  1  0.24308076  0.13301531  0.99756199  1
  O  O253  1  0.25542902  0.64678191  0.49812762  1
  O  O254  1  0.24519584  0.63143637  0.98861976  1
  O  O255  1  0.73619757  0.11595971  0.50153561  1
  O  O256  1  0.75697500  0.13886494  1.00620112  1
  O  O257  1  0.74543278  0.63341827  0.50110590  1
  O  O258  1  0.75131590  0.63175278  0.98564817  1
  O  O259  1  0.25348083  0.36627174  0.00461148  1
  O  O260  1  0.25283360  0.37133343  0.49203042  1
  O  O261  1  0.24954359  0.86736821  0.00309570  1
  O  O262  1  0.25122241  0.86188203  0.50691883  1
  O  O263  1  0.75903114  0.36721407  0.00572060  1
  O  O264  1  0.75899032  0.38095562  0.50232745  1
  O  O265  1  0.76556324  0.86309660  -0.00530808  1
  O  O266  1  0.76208418  0.86936539  0.51126506  1
  O  O267  1  0.12672381  0.49430615  0.24524060  1
  O  O268  1  0.13814874  0.49908529  0.74801153  1
  O  O269  1  0.12917414  0.99478770  0.24163156  1
  O  O270  1  0.13453972  0.99276356  0.75160910  1
  O  O271  1  0.63686069  0.50973575  0.26082882  1
  O  O272  1  0.62982684  0.49237544  0.74590073  1
  O  O273  1  0.63596637  0.99570158  0.25001444  1
  O  O274  1  0.62473594  0.98434667  0.73251683  1
  O  O275  1  0.36683763  0.01058106  0.25949501  1
  O  O276  1  0.37288694  0.00494939  0.76011067  1
  O  O277  1  0.36475649  0.50173226  0.25753213  1
  O  O278  1  0.36271009  0.50279228  0.75411351  1
  O  O279  1  0.86769922  -0.00045551  0.25367609  1
  O  O280  1  0.87399867  -0.00243464  0.76400100  1
  O  O281  1  0.87257584  0.50802892  0.25533738  1
  O  O282  1  0.87028933  0.50757912  0.75417010  1
  O  O283  1  0.11163310  0.36886334  0.36682334  1
  O  O284  1  0.11653940  0.36515601  0.87695256  1
  O  O285  1  0.13161187  0.88459077  0.36207643  1
  O  O286  1  0.12237087  0.86874642  0.86430560  1
  O  O287  1  0.63863621  0.36389966  0.36447009  1
  O  O288  1  0.62511359  0.36872827  0.86181543  1
  O  O289  1  0.62774091  0.86509587  0.39407482  1
  O  O290  1  0.61891187  0.87942328  0.86315440  1
  O  O291  1  0.37609161  0.13118431  0.13512981  1
  O  O292  1  0.39087013  0.11727781  0.64183714  1
  O  O293  1  0.36500632  0.63961044  0.12244312  1
  O  O294  1  0.38809370  0.63538152  0.62213517  1
  O  O295  1  0.87968226  0.12509131  0.12895601  1
  O  O296  1  0.87955479  0.13558122  0.63089758  1
  O  O297  1  0.88397053  0.63284298  0.13732300  1
  O  O298  1  0.87188853  0.63204040  0.64084462  1
  O  O299  1  0.25249128  0.25575008  0.11644221  1
  O  O300  1  0.25895774  0.25035811  0.61649790  1
  O  O301  1  0.24886694  0.75803512  0.11225972  1
  O  O302  1  0.27003379  0.75126449  0.63430994  1
  O  O303  1  0.75545329  0.25568464  0.11536488  1
  O  O304  1  0.77075501  0.25287569  0.63353953  1
  O  O305  1  0.76625838  0.74708862  0.11766432  1
  O  O306  1  0.75666626  0.75521197  0.61648728  1
  O  O307  1  0.24196749  0.24077790  0.37161163  1
  O  O308  1  0.24177504  0.24762659  0.88256152  1
  O  O309  1  0.26567974  0.76082566  0.38094562  1
  O  O310  1  0.24736085  0.74353672  0.87768109  1
  O  O311  1  0.78751418  0.23270138  0.37277760  1
  O  O312  1  0.74815078  0.24806839  0.89040583  1
  O  O313  1  0.74598222  0.74943307  0.39035493  1
  O  O314  1  0.75777303  0.73620920  0.88401309  1
  O  O315  1  0.00332697  0.11914573  0.00431586  1
  O  O316  1  0.01302415  0.11523303  0.49850565  1
  O  O317  1  0.00458424  0.61941045  0.00465271  1
  O  O318  1  -0.02725783  0.60517776  0.51229866  1
  O  O319  1  0.49569619  0.11988831  0.00156476  1
  O  O320  1  0.51573266  0.11968170  0.51101405  1
  O  O321  1  0.50279847  0.63122156  0.01415197  1
  O  O322  1  0.50833278  0.61690177  0.50970992  1
  O  O323  1  0.50550510  0.38918553  0.50699496  1
  O  O324  1  0.48259931  0.36771687  0.99835236  1
  O  O325  1  0.50162148  0.89322963  0.50993164  1
  O  O326  1  0.49828010  0.86821796  0.98553904  1
  O  O327  1  0.98929849  0.38556997  0.49360313  1
  O  O328  1  0.99262395  0.37937046  0.99175602  1
  O  O329  1  0.99149689  0.87870497  0.50707218  1
  O  O330  1  0.99208151  0.87778119  0.99290667  1
  O  O331  1  0.49918181  0.49984596  0.39026005  1
  O  O332  1  0.49946344  0.49801346  0.88644902  1
  O  O333  1  0.49405724  1.00465981  0.39016250  1
  O  O334  1  0.50090215  0.99835838  0.88223002  1
  O  O335  1  0.98658299  0.49233009  0.37819626  1
  O  O336  1  0.99493398  0.49432097  0.88139488  1
  O  O337  1  0.99380888  0.99703947  0.38743902  1
  O  O338  1  0.99323937  0.99244011  0.88208512  1
  O  O339  1  0.00491918  0.00399602  0.11647535  1
  O  O340  1  0.00161779  0.00275250  0.61050644  1
  O  O341  1  0.00484552  0.50577514  0.11879398  1
  O  O342  1  0.00130194  0.49891040  0.61612584  1
  O  O343  1  0.50878266  -0.00163615  0.13918068  1
  O  O344  1  0.50847408  0.00799213  0.61931278  1
  O  O345  1  0.48367303  0.50724556  0.11300663  1
  O  O346  1  0.50532599  0.50782435  0.61965008  1
  O  O347  1  0.24024834  0.38271123  0.24428234  1
  O  O348  1  0.24748359  0.39299773  0.75855873  1
  O  O349  1  0.24445739  0.88307762  0.23962986  1
  O  O350  1  0.24493748  0.88172404  0.75032178  1
  O  O351  1  0.75773658  0.38895243  0.23536554  1
  O  O352  1  0.74469321  0.38269305  0.75116298  1
  O  O353  1  0.75814055  0.88232839  0.25502411  1
  O  O354  1  0.74437713  0.86416222  0.73812679  1
  O  O355  1  0.25232083  0.11967621  0.25539678  1
  O  O356  1  0.26023223  0.11885226  0.75169941  1
  O  O357  1  0.24238617  0.60952516  0.24626409  1
  O  O358  1  0.24805389  0.61700523  0.76276710  1
  O  O359  1  0.76202227  0.11526236  0.24637996  1
  O  O360  1  0.77119873  0.11840170  0.74558426  1
  O  O361  1  0.76105880  0.61956713  0.25403307  1
  O  O362  1  0.75700961  0.62423816  0.75881623  1
  O  O363  1  0.36554965  0.12336977  0.36702759  1
  O  O364  1  0.37654763  0.11789836  0.86515550  1
  O  O365  1  0.38297313  0.60391416  0.37280606  1
  O  O366  1  0.36198753  0.63288700  0.87716444  1
  O  O367  1  0.88299893  0.10671892  0.36065983  1
  O  O368  1  0.87709015  0.11249215  0.86617314  1
  O  O369  1  0.87867975  0.61714547  0.36182643  1
  O  O370  1  0.87260792  0.62043684  0.86481471  1
  O  O371  1  0.12863552  0.38012608  0.12866638  1
  O  O372  1  0.13285262  0.38085911  0.62570386  1
  O  O373  1  0.13505451  0.88079105  0.12458251  1
  O  O374  1  0.12886287  0.87800882  0.63799569  1
  O  O375  1  0.63580972  0.36805808  0.12552834  1
  O  O376  1  0.62814089  0.38032787  0.63721462  1
  O  O377  1  0.62149501  0.89114767  0.12202320  1
  O  O378  1  0.63579869  0.88013593  0.62709395  1
  O  O379  1  0.11606621  0.25417039  0.25370893  1
  O  O380  1  0.13098454  0.25131948  0.76153952  1
  O  O381  1  0.11686920  0.76080852  0.24658519  1
  O  O382  1  0.12277355  0.75598700  0.75233472  1
  O  O383  1  0.63898095  0.24985648  0.25668558  1
  O  O384  1  0.62097662  0.25398027  0.75184515  1
  O  O385  1  0.62792773  0.75773954  0.27652475  1
  O  O386  1  0.61346292  0.76257207  0.73838325  1
  O  O387  1  0.36367181  0.24112792  0.23924656  1
  O  O388  1  0.38437457  0.24038752  0.75279267  1
  O  O389  1  0.34590191  0.73700889  0.22895643  1
  O  O390  1  0.39053628  0.75305104  0.73893912  1
  O  O391  1  0.88245485  0.23592554  0.23548105  1
  O  O392  1  0.87674369  0.23877647  0.74922153  1
  O  O393  1  0.87864138  0.74470802  0.24158770  1
  O  O394  1  0.88279948  0.74406667  0.74793918  1
  O  O395  1  0.38564185  0.50286231  0.49208438  1
  O  O396  1  0.36219997  0.48030724  0.99737675  1
  O  O397  1  0.39195206  1.01560900  0.49637276  1
  O  O398  1  0.36789610  0.99951217  0.98558286  1
  O  O399  1  0.87440528  0.49216929  0.49116262  1
  O  O400  1  0.88083095  0.48523539  0.99164690  1
  O  O401  1  0.88215434  0.99483879  0.49311661  1
  O  O402  1  0.87715722  0.99196867  0.99374388  1
  O  O403  1  0.11935416  0.00484780  0.00224117  1
  O  O404  1  0.12012309  0.00467807  0.50100605  1
  O  O405  1  0.12079960  0.50420749  0.00431037  1
  O  O406  1  0.11048238  0.50395162  0.49543501  1
  O  O407  1  0.62225176  -0.00130782  0.00712093  1
  O  O408  1  0.61762274  0.00469227  0.50957412  1
  O  O409  1  0.63031682  0.49144248  0.00481937  1
  O  O410  1  0.61709317  0.50589032  0.50431996  1
  O  O411  1  0.36705393  0.36553479  0.11832966  1
  O  O412  1  0.36677043  0.37392277  0.63288574  1
  O  O413  1  0.35946942  0.86932132  0.12128830  1
  O  O414  1  0.37908216  0.86276444  0.62833085  1
  O  O415  1  0.87191847  0.36773890  0.11400054  1
  O  O416  1  0.87293554  0.36777760  0.61765765  1
  O  O417  1  0.88231275  0.86646686  0.11363227  1
  O  O418  1  0.87124590  0.87021351  0.62174785  1
  O  O419  1  0.12844036  0.13138018  0.37622599  1
  O  O420  1  0.12329912  0.13188998  0.88051170  1
  O  O421  1  0.08167595  0.63753869  0.39244068  1
  O  O422  1  0.12924585  0.63321659  0.88088927  1
  O  O423  1  0.62663022  0.12267332  0.39257286  1
  O  O424  1  0.61358750  0.11209580  0.88530023  1
  O  O425  1  0.62828175  0.63094927  0.39113459  1
  O  O426  1  0.63916053  0.62694415  0.86547020  1
