# generated using pymatgen
data_V85Zn86O256
_symmetry_space_group_name_H-M   'P 1'
_cell_length_a   16.95991993
_cell_length_b   16.96763996
_cell_length_c   16.96982439
_cell_angle_alpha   89.96148041
_cell_angle_beta   89.97218752
_cell_angle_gamma   90.03309564
_symmetry_Int_Tables_number   1
_chemical_formula_structural   V85Zn86O256
_chemical_formula_sum   'V85 Zn86 O256'
_cell_volume   4883.40073429
_cell_formula_units_Z   1
loop_
 _symmetry_equiv_pos_site_id
 _symmetry_equiv_pos_as_xyz
  1  'x, y, z'
loop_
 _atom_site_type_symbol
 _atom_site_label
 _atom_site_symmetry_multiplicity
 _atom_site_fract_x
 _atom_site_fract_y
 _atom_site_fract_z
 _atom_site_occupancy
  V  V0  1  0.45857535  0.85268356  0.90630048  1
  V  V1  1  0.00875261  0.74247744  0.74510573  1
  V  V2  1  0.87984961  0.74512037  0.12382943  1
  V  V3  1  0.49430031  0.87143296  0.37332192  1
  V  V4  1  0.22709408  0.87492403  0.63288320  1
  V  V5  1  -0.00357653  0.51003759  0.49906412  1
  V  V6  1  0.75741741  0.00130528  0.26588952  1
  V  V7  1  0.87278617  0.61802408  0.74712161  1
  V  V8  1  0.86842532  0.51498748  0.36604539  1
  V  V9  1  0.87212282  0.25058536  0.12719121  1
  V  V10  1  0.62723400  0.62068659  0.00307091  1
  V  V11  1  0.00887401  -0.00123276  0.50219428  1
  V  V12  1  0.12963219  0.50999647  0.12639643  1
  V  V13  1  0.24931945  0.50020407  0.75049189  1
  V  V14  1  0.37098926  0.62823713  0.74542279  1
  V  V15  1  -0.00268240  -0.00004877  -0.00296215  1
  V  V16  1  0.62118041  0.38753424  0.24368274  1
  V  V17  1  0.38586282  0.37886563  0.50476933  1
  V  V18  1  0.00460632  0.50284034  0.00013998  1
  V  V19  1  0.37395343  0.49854544  0.87794747  1
  V  V20  1  0.48385459  0.75779641  0.24324165  1
  V  V21  1  0.87300142  0.37394099  0.00106779  1
  V  V22  1  0.37087579  0.01133447  0.86827710  1
  V  V23  1  0.12357585  0.12860932  -0.00013090  1
  V  V24  1  0.13136107  0.25012256  0.87632713  1
  V  V25  1  0.74896876  0.61587642  0.86958497  1
  V  V26  1  0.50382212  0.49650126  0.01119272  1
  V  V27  1  0.12288306  0.37949212  0.25094068  1
  V  V28  1  0.63452271  0.12351554  0.49621794  1
  V  V29  1  0.49773428  0.13025490  0.62685873  1
  V  V30  1  0.49977549  0.00166575  0.50046187  1
  V  V31  1  0.75090557  0.38153249  0.62539977  1
  V  V32  1  0.87274713  0.74411690  0.62538230  1
  V  V33  1  0.75227204  0.74903549  -0.00720122  1
  V  V34  1  -0.00667233  0.37454261  0.37600326  1
  V  V35  1  0.12033496  0.50685042  0.62268891  1
  V  V36  1  0.74582715  -0.00008814  0.74918953  1
  V  V37  1  0.36665935  0.00174377  0.37851010  1
  V  V38  1  0.24982233  -0.00340926  0.25201370  1
  V  V39  1  0.87344264  0.24885016  0.62266698  1
  V  V40  1  0.61889594  0.12057079  0.00182086  1
  V  V41  1  0.12515735  0.24255927  0.37566905  1
  V  V42  1  0.62074199  0.87358459  0.75666719  1
  V  V43  1  0.74533582  0.12614732  0.87517427  1
  V  V44  1  -0.00050334  0.74100889  0.25548458  1
  V  V45  1  0.87411433  0.12166916  0.26483170  1
  V  V46  1  0.65040135  0.85644573  0.27097970  1
  V  V47  1  0.37650395  0.37011752  0.00577562  1
  V  V48  1  0.87094213  -0.00222634  0.87253076  1
  V  V49  1  0.25068158  0.37625949  0.13020415  1
  V  V50  1  0.25477453  0.37352780  0.62289619  1
  V  V51  1  0.87351435  0.12493259  0.74778743  1
  V  V52  1  0.54956179  0.55040679  0.45505267  1
  V  V53  1  0.88265600  0.87281903  -0.00897036  1
  V  V54  1  0.87404503  0.88086940  0.49955901  1
  V  V55  1  0.36453108  0.50234319  0.37363479  1
  V  V56  1  0.24560854  0.62461945  0.88794881  1
  V  V57  1  0.62938474  0.38307058  0.75233913  1
  V  V58  1  0.02022394  0.88729072  0.85800804  1
  V  V59  1  0.36580998  0.12987764  0.74566992  1
  V  V60  1  0.47306208  -0.01572113  0.01789431  1
  V  V61  1  0.00460419  0.63167908  0.11945848  1
  V  V62  1  0.00892972  0.12175640  0.62465381  1
  V  V63  1  0.49352509  0.75239406  0.74580767  1
  V  V64  1  0.25450793  0.24311230  0.00192171  1
  V  V65  1  -0.00049798  0.37337736  0.87440671  1
  V  V66  1  0.75638982  0.87867741  0.11666131  1
  V  V67  1  0.37212490  0.86904420  0.51465011  1
  V  V68  1  0.49809742  0.25045721  0.75016723  1
  V  V69  1  0.49378116  0.12536894  0.14101630  1
  V  V70  1  0.62294172  -0.00016469  0.62604671  1
  V  V71  1  0.12138110  0.73925107  0.89212411  1
  V  V72  1  0.25768952  0.24362553  0.50402604  1
  V  V73  1  -0.00421052  0.12347839  0.12602350  1
  V  V74  1  0.50351464  0.61764693  0.62788988  1
  V  V75  1  0.30497123  0.16767377  0.31956461  1
  V  V76  1  0.12429674  0.87216373  0.25056431  1
  V  V77  1  0.12620331  0.37519692  0.74823633  1
  V  V78  1  0.63254268  -0.00248173  0.12683650  1
  V  V79  1  0.50132341  0.37344729  0.87866535  1
  V  V80  1  0.74839306  0.86795476  0.62460271  1
  V  V81  1  0.62562629  0.24249852  0.36114481  1
  V  V82  1  0.49346022  0.63350639  0.12314022  1
  V  V83  1  0.12720201  -0.00791743  0.12060075  1
  V  V84  1  -0.00451725  0.87928586  0.37407347  1
  Zn  Zn85  1  0.87227834  0.49553108  0.86943602  1
  Zn  Zn86  1  0.75360492  0.51892957  0.24160489  1
  Zn  Zn87  1  0.37458465  0.24306721  0.14358668  1
  Zn  Zn88  1  0.50216288  0.37004555  0.37165729  1
  Zn  Zn89  1  0.74462071  0.25101765  0.00126669  1
  Zn  Zn90  1  0.62264719  0.24798363  0.87662903  1
  Zn  Zn91  1  0.74458377  0.38569865  0.12517957  1
  Zn  Zn92  1  0.13444702  0.11826019  0.50040830  1
  Zn  Zn93  1  0.12715599  0.62615447  0.49712203  1
  Zn  Zn94  1  0.00132836  0.25105285  0.74655695  1
  Zn  Zn95  1  0.12426753  0.74782922  0.38238327  1
  Zn  Zn96  1  0.32538076  0.83925029  0.04884031  1
  Zn  Zn97  1  0.62367651  0.74993981  0.87465209  1
  Zn  Zn98  1  -0.00273895  0.24899706  0.25276650  1
  Zn  Zn99  1  0.24848082  0.74406275  0.50433052  1
  Zn  Zn100  1  0.24319237  0.63064480  0.36765377  1
  Zn  Zn101  1  0.62940636  0.50365883  0.62321691  1
  Zn  Zn102  1  0.22094268  -0.00269865  0.74893557  1
  Zn  Zn103  1  0.36956388  0.61820082  0.24627620  1
  Zn  Zn104  1  0.68664088  0.67944677  0.47354076  1
  Zn  Zn105  1  0.75058719  0.24686930  0.49545836  1
  Zn  Zn106  1  0.87322922  0.37424970  0.49772077  1
  Zn  Zn107  1  0.18039420  0.19081609  0.18356384  1
  Zn  Zn108  1  0.18806837  0.19245824  0.68510037  1
  Zn  Zn109  1  0.21391211  0.70074084  0.18301416  1
  Zn  Zn110  1  0.19231453  0.68972575  0.68334453  1
  Zn  Zn111  1  0.69222828  0.18228728  0.18687739  1
  Zn  Zn112  1  0.68396359  0.19210560  0.68664743  1
  Zn  Zn113  1  0.69076055  0.69208327  0.17659745  1
  Zn  Zn114  1  0.68411940  0.68587157  0.68764276  1
  Zn  Zn115  1  0.31071054  0.33322537  0.31663873  1
  Zn  Zn116  1  0.31462164  0.31153788  0.81396245  1
  Zn  Zn117  1  0.30837225  0.81339279  0.31629807  1
  Zn  Zn118  1  0.29928535  0.80859968  0.81080223  1
  Zn  Zn119  1  0.80385884  0.31073882  0.31003321  1
  Zn  Zn120  1  0.81094827  0.31000196  0.81010206  1
  Zn  Zn121  1  0.82075051  0.81248661  0.30864048  1
  Zn  Zn122  1  0.81392007  0.80839791  0.80831477  1
  Zn  Zn123  1  0.18593774  0.43567773  0.44077962  1
  Zn  Zn124  1  0.18813615  0.43497111  0.94230622  1
  Zn  Zn125  1  0.18798530  0.93079690  0.43807494  1
  Zn  Zn126  1  0.18372514  0.94659994  0.91565474  1
  Zn  Zn127  1  0.69306628  0.42661441  0.43069653  1
  Zn  Zn128  1  0.68698721  0.43709752  0.94019417  1
  Zn  Zn129  1  0.67958337  0.85252715  0.44247221  1
  Zn  Zn130  1  0.68441200  0.93866844  0.93930861  1
  Zn  Zn131  1  0.30962341  0.05480627  0.06593981  1
  Zn  Zn132  1  0.31024281  0.05580185  0.57152989  1
  Zn  Zn133  1  0.31451474  0.55878720  0.06610598  1
  Zn  Zn134  1  0.31269671  0.56169926  0.55937252  1
  Zn  Zn135  1  0.81314597  0.06614027  0.05952606  1
  Zn  Zn136  1  0.81551846  0.05699988  0.56324933  1
  Zn  Zn137  1  0.81621982  0.56074412  0.06089721  1
  Zn  Zn138  1  0.81178957  0.56064453  0.55687234  1
  Zn  Zn139  1  0.44286179  0.43441201  0.19175291  1
  Zn  Zn140  1  0.43728329  0.43789108  0.69018790  1
  Zn  Zn141  1  0.43463519  0.94469918  0.19098418  1
  Zn  Zn142  1  0.43811509  0.93978566  0.69115475  1
  Zn  Zn143  1  0.93741639  0.43907203  0.18728797  1
  Zn  Zn144  1  0.93871285  0.43656252  0.68494588  1
  Zn  Zn145  1  0.93771439  0.93517975  0.18609846  1
  Zn  Zn146  1  0.93843951  0.93747952  0.68500867  1
  Zn  Zn147  1  0.05987390  0.05950177  0.31353393  1
  Zn  Zn148  1  0.06066990  0.06986289  0.81204538  1
  Zn  Zn149  1  0.06214656  0.56226772  0.31272468  1
  Zn  Zn150  1  0.06093791  0.56187738  0.81047802  1
  Zn  Zn151  1  0.57015819  0.05056964  0.31753157  1
  Zn  Zn152  1  0.55172218  0.05373607  0.82015394  1
  Zn  Zn153  1  0.60338074  0.60082631  0.28589871  1
  Zn  Zn154  1  0.55998448  0.56172607  0.81690709  1
  Zn  Zn155  1  0.44529621  0.19360050  0.44368823  1
  Zn  Zn156  1  0.43988395  0.18255897  0.94185011  1
  Zn  Zn157  1  0.43380347  0.69148056  0.43365129  1
  Zn  Zn158  1  0.43281515  0.68325806  0.93745558  1
  Zn  Zn159  1  0.94131161  0.18772693  0.44217727  1
  Zn  Zn160  1  0.93573791  0.18950041  0.93602428  1
  Zn  Zn161  1  0.89822977  0.67733542  0.45147695  1
  Zn  Zn162  1  0.93968398  0.68572160  0.93225065  1
  Zn  Zn163  1  0.06099206  0.31386090  0.06470898  1
  Zn  Zn164  1  0.06395796  0.31416351  0.55889192  1
  Zn  Zn165  1  0.16538116  0.81933098  0.05274385  1
  Zn  Zn166  1  0.05821658  0.80762702  0.56209253  1
  Zn  Zn167  1  0.56066243  0.30440798  0.07010948  1
  Zn  Zn168  1  0.56884535  0.30910715  0.56441251  1
  Zn  Zn169  1  0.56836090  0.80948945  0.06790546  1
  Zn  Zn170  1  0.55468487  0.80891748  0.56885946  1
  O  O171  1  0.11045989  0.12046315  0.12095636  1
  O  O172  1  0.11220005  0.13065230  0.62445189  1
  O  O173  1  0.12109610  0.61303395  0.12621025  1
  O  O174  1  0.12932510  0.60900050  0.62637918  1
  O  O175  1  0.62034655  0.11771286  0.11996047  1
  O  O176  1  0.61667481  0.11861785  0.62085202  1
  O  O177  1  0.61182831  0.63298279  0.10757321  1
  O  O178  1  0.61641049  0.62162244  0.62235057  1
  O  O179  1  0.38319041  0.38539073  0.38454268  1
  O  O180  1  0.38133995  0.37888394  0.88437447  1
  O  O181  1  0.37866376  0.88534061  0.38601972  1
  O  O182  1  0.37187313  0.89040477  0.85890263  1
  O  O183  1  0.88645671  0.36727995  0.37341884  1
  O  O184  1  0.88167938  0.37357607  0.88031007  1
  O  O185  1  0.88238412  0.86884188  0.38853682  1
  O  O186  1  0.87824229  0.88188025  0.87346249  1
  O  O187  1  0.25825648  0.00044666  0.37244672  1
  O  O188  1  0.26891394  0.00873875  0.86382462  1
  O  O189  1  0.26288795  0.49346508  0.37493842  1
  O  O190  1  0.25166462  0.50283082  0.87050192  1
  O  O191  1  0.75231515  -0.00930915  0.36053816  1
  O  O192  1  0.75206059  0.00937668  0.86988113  1
  O  O193  1  0.76672799  0.49625735  0.37416020  1
  O  O194  1  0.75301555  0.51192817  0.88018484  1
  O  O195  1  0.23981874  0.48884270  0.11774744  1
  O  O196  1  0.24234465  0.48998370  0.63029743  1
  O  O197  1  0.23548083  1.00816696  0.13814454  1
  O  O198  1  0.24726794  0.98499865  0.63436307  1
  O  O199  1  0.75810639  0.49847631  0.12931306  1
  O  O200  1  0.75096680  0.48638982  0.62023350  1
  O  O201  1  0.74340929  0.99913765  0.12270177  1
  O  O202  1  0.74229499  0.99312788  0.63292595  1
  O  O203  1  0.00615885  0.37101437  0.25709114  1
  O  O204  1  0.00625053  0.37338404  0.75865254  1
  O  O205  1  0.00370492  0.87152966  0.25716638  1
  O  O206  1  -0.00608970  0.86348699  0.75792965  1
  O  O207  1  0.51477876  0.36932902  0.25174911  1
  O  O208  1  0.50398887  0.36767902  0.75699304  1
  O  O209  1  0.49408977  0.87268677  0.25773942  1
  O  O210  1  0.50577787  0.86647014  0.75089187  1
  O  O211  1  0.50802109  0.11080782  0.23814686  1
  O  O212  1  0.49824863  0.13264902  0.74466706  1
  O  O213  1  0.50373063  0.64058558  0.23912388  1
  O  O214  1  0.49302084  0.63132246  0.74816165  1
  O  O215  1  0.99239332  0.12448058  0.24171358  1
  O  O216  1  0.99306187  0.12777745  0.74212539  1
  O  O217  1  1.00658368  0.63597971  0.23823421  1
  O  O218  1  0.99040424  0.63648382  0.75520349  1
  O  O219  1  0.36825285  0.25245399  0.00234451  1
  O  O220  1  0.36427117  0.26133172  0.49380969  1
  O  O221  1  0.39930847  0.78649204  -0.02784090  1
  O  O222  1  0.37606107  0.76765595  0.49888647  1
  O  O223  1  0.87486068  0.26004886  0.00588563  1
  O  O224  1  0.87233838  0.24838425  0.51211505  1
  O  O225  1  0.87304320  0.75520951  0.00025451  1
  O  O226  1  0.89002904  0.76830636  0.51939616  1
  O  O227  1  0.13879920  0.25223410  0.48996738  1
  O  O228  1  0.13179329  0.24898521  0.99616719  1
  O  O229  1  0.12477805  0.74415111  0.50114823  1
  O  O230  1  0.10915537  0.73878194  0.98970777  1
  O  O231  1  0.62819111  0.23645568  0.49681385  1
  O  O232  1  0.62305013  0.23372022  0.99949151  1
  O  O233  1  0.62806348  0.76762833  0.49790291  1
  O  O234  1  0.63559802  0.74359087  0.99559377  1
  O  O235  1  0.49339885  0.23001600  0.12704320  1
  O  O236  1  0.50513621  0.24016507  0.63567776  1
  O  O237  1  0.49410343  0.74612065  0.12718729  1
  O  O238  1  0.49763823  0.73804359  0.63941537  1
  O  O239  1  0.98992750  0.24166690  0.12642849  1
  O  O240  1  0.99246470  0.24356583  0.62364302  1
  O  O241  1  0.99672257  0.73867238  0.12886951  1
  O  O242  1  0.99032672  0.75476127  0.64072300  1
  O  O243  1  0.00897487  0.25768535  0.37672582  1
  O  O244  1  0.00619481  0.26170511  0.87498587  1
  O  O245  1  -0.00201826  0.76026461  0.36300179  1
  O  O246  1  0.00839439  0.75376155  0.86377662  1
  O  O247  1  0.51982938  0.25175958  0.38137947  1
  O  O248  1  0.50075104  0.25649222  0.87122445  1
  O  O249  1  0.49388673  0.76213025  0.36263568  1
  O  O250  1  0.50172464  0.75689943  0.86563595  1
  O  O251  1  0.25020820  0.13720304  0.51414848  1
  O  O252  1  0.24200110  0.13747032  1.00942868  1
  O  O253  1  0.24887371  0.62545956  0.49387400  1
  O  O254  1  0.25630790  0.61782023  0.98678358  1
  O  O255  1  0.73676865  0.11856669  0.50638676  1
  O  O256  1  0.74118184  0.12542229  0.99044148  1
  O  O257  1  0.78765262  0.64431743  0.48790197  1
  O  O258  1  0.74363559  0.62952904  0.99361103  1
  O  O259  1  0.25442465  0.36438286  0.01166600  1
  O  O260  1  0.25806486  0.36867145  0.50712850  1
  O  O261  1  0.23414085  0.89468666  0.00223674  1
  O  O262  1  0.26084987  0.87984109  0.51354620  1
  O  O263  1  0.75890507  0.37098951  0.00191060  1
  O  O264  1  0.75322517  0.36782455  0.51019241  1
  O  O265  1  0.75992058  0.86927329  -0.00191444  1
  O  O266  1  0.75990143  0.88427900  0.51638681  1
  O  O267  1  0.11633133  0.48680918  0.24013624  1
  O  O268  1  0.12839734  0.49342901  0.74348798  1
  O  O269  1  0.12687765  0.99152354  0.24431038  1
  O  O270  1  0.12433665  0.97977450  0.81155310  1
  O  O271  1  0.62041855  0.48730095  0.25216920  1
  O  O272  1  0.61958722  0.48584256  0.75166124  1
  O  O273  1  0.64177591  0.98710631  0.24522658  1
  O  O274  1  0.62461374  0.99286640  0.74789994  1
  O  O275  1  0.36084421  -0.00074433  0.26223988  1
  O  O276  1  0.38664458  0.01571169  0.75806670  1
  O  O277  1  0.38437390  0.49664215  0.26982684  1
  O  O278  1  0.36836079  0.50446515  0.76017457  1
  O  O279  1  0.86594462  0.00723999  0.24393626  1
  O  O280  1  0.86642968  0.00596830  0.75300882  1
  O  O281  1  0.87354232  0.49288142  0.26349900  1
  O  O282  1  0.88318789  0.51369324  0.75023160  1
  O  O283  1  0.11801082  0.36912421  0.36802468  1
  O  O284  1  0.11896428  0.36739608  0.87193758  1
  O  O285  1  0.11506808  0.87330713  0.36619339  1
  O  O286  1  0.12036053  0.84907742  0.87877823  1
  O  O287  1  0.62363417  0.36214695  0.36232618  1
  O  O288  1  0.61957002  0.37168856  0.87033393  1
  O  O289  1  0.60018147  0.89560532  0.36772195  1
  O  O290  1  0.63287235  0.87348891  0.86074944  1
  O  O291  1  0.38976714  0.11749546  0.12903390  1
  O  O292  1  0.38930684  0.11989825  0.63249648  1
  O  O293  1  0.38905958  0.61977991  0.12600163  1
  O  O294  1  0.37948059  0.61575485  0.64108295  1
  O  O295  1  0.88374448  0.12989818  0.12776483  1
  O  O296  1  0.88146044  0.13043757  0.62956188  1
  O  O297  1  0.88504619  0.63897107  0.11526629  1
  O  O298  1  0.86898015  0.63499294  0.63367354  1
  O  O299  1  0.25316007  0.25590303  0.11976264  1
  O  O300  1  0.24737588  0.26457229  0.61780444  1
  O  O301  1  0.25165217  0.77014071  0.10781213  1
  O  O302  1  0.24823079  0.76767281  0.62246596  1
  O  O303  1  0.76394405  0.24650254  0.12121311  1
  O  O304  1  0.75828519  0.25662119  0.62456304  1
  O  O305  1  0.76119679  0.75616090  0.11261014  1
  O  O306  1  0.75763243  0.75945078  0.63283659  1
  O  O307  1  0.24700259  0.24409641  0.37892481  1
  O  O308  1  0.24190267  0.25692053  0.88710166  1
  O  O309  1  0.24445986  0.75239599  0.38390439  1
  O  O310  1  0.23147412  0.73874311  0.87393565  1
  O  O311  1  0.73270722  0.24940219  0.37911229  1
  O  O312  1  0.74637413  0.23625166  0.87590983  1
  O  O313  1  0.71512173  0.80154993  0.34513879  1
  O  O314  1  0.75117630  0.73934644  0.88050974  1
  O  O315  1  0.00079653  0.12082690  0.00630698  1
  O  O316  1  0.00242451  0.11570547  0.50833683  1
  O  O317  1  -0.00329756  0.61341326  0.00494166  1
  O  O318  1  -0.00695825  0.61155757  0.49555069  1
  O  O319  1  0.50482839  0.10950507  0.01107301  1
  O  O320  1  0.50477407  0.11900815  0.51033836  1
  O  O321  1  0.50458079  0.61759048  0.00247745  1
  O  O322  1  0.49048417  0.61943233  0.51043296  1
  O  O323  1  0.48767013  0.36659677  0.50595356  1
  O  O324  1  0.49788155  0.37882081  1.00065992  1
  O  O325  1  0.48889741  0.88318621  0.49640438  1
  O  O326  1  0.52068163  0.88560864  0.99252668  1
  O  O327  1  0.99855576  0.38171595  0.48918489  1
  O  O328  1  0.99313754  0.37858347  0.99360075  1
  O  O329  1  0.99586641  0.88216651  0.49418220  1
  O  O330  1  0.99495425  0.88653008  0.97659430  1
  O  O331  1  0.49692580  0.49702342  0.38732552  1
  O  O332  1  0.49357985  0.49261627  0.88616156  1
  O  O333  1  0.48523692  0.99808596  0.38339005  1
  O  O334  1  0.48434479  0.98339746  0.89017258  1
  O  O335  1  0.99055362  0.49150196  0.37896345  1
  O  O336  1  1.00162989  0.48830305  0.88217885  1
  O  O337  1  1.00009398  0.98711640  0.38211932  1
  O  O338  1  0.98622446  0.99874299  0.87527046  1
  O  O339  1  0.00355643  0.00709477  0.11853555  1
  O  O340  1  -0.00179620  0.00964975  0.61808411  1
  O  O341  1  0.00359723  0.51058718  0.11903557  1
  O  O342  1  0.00829983  0.49193452  0.61205784  1
  O  O343  1  0.51754092  0.00555388  0.12379670  1
  O  O344  1  0.50532767  0.00598748  0.61915318  1
  O  O345  1  0.49745724  0.50619009  0.11444073  1
  O  O346  1  0.50375061  0.51313623  0.63424275  1
  O  O347  1  0.23957889  0.37364766  0.23785496  1
  O  O348  1  0.24719779  0.37940521  0.74344886  1
  O  O349  1  0.23876520  0.88755233  0.25472204  1
  O  O350  1  0.24741610  0.87618255  0.73609915  1
  O  O351  1  0.73367157  0.37510831  0.24682221  1
  O  O352  1  0.73990093  0.36958236  0.74279063  1
  O  O353  1  0.75850853  0.88833005  0.23269700  1
  O  O354  1  0.74316482  0.87927222  0.74239251  1
  O  O355  1  0.23922818  0.11651331  0.25445062  1
  O  O356  1  0.26300354  0.12374211  0.73902484  1
  O  O357  1  0.25652286  0.62789855  0.25211519  1
  O  O358  1  0.25575093  0.61920926  0.75607558  1
  O  O359  1  0.75921955  0.10945616  0.24805782  1
  O  O360  1  0.75038665  0.12022666  0.75607353  1
  O  O361  1  0.71116360  0.62429575  0.25945321  1
  O  O362  1  0.75771507  0.62945106  0.75899778  1
  O  O363  1  0.37442436  0.11982896  0.38336795  1
  O  O364  1  0.38616581  0.11919352  0.86003946  1
  O  O365  1  0.37704387  0.60985144  0.37479551  1
  O  O366  1  0.36648471  0.61745681  0.86814655  1
  O  O367  1  0.88241513  0.12872346  0.36355010  1
  O  O368  1  0.86543180  0.12030945  0.86941964  1
  O  O369  1  0.88228968  0.61308954  0.35890869  1
  O  O370  1  0.86680217  0.62208642  0.86648887  1
  O  O371  1  0.12977210  0.37930234  0.13294510  1
  O  O372  1  0.13201941  0.38136084  0.63011537  1
  O  O373  1  0.11104980  0.88915154  0.13249822  1
  O  O374  1  0.12841527  0.87662219  0.62574439  1
  O  O375  1  0.62634665  0.36577237  0.13916935  1
  O  O376  1  0.63375172  0.37570888  0.63479095  1
  O  O377  1  0.63906193  0.88385793  0.12568466  1
  O  O378  1  0.62951291  0.88003368  0.63629202  1
  O  O379  1  0.12218743  0.26011203  0.25776091  1
  O  O380  1  0.12551718  0.25686513  0.75967551  1
  O  O381  1  0.11647046  0.76494122  0.24429405  1
  O  O382  1  0.11011288  0.74027310  0.75104770  1
  O  O383  1  0.62795912  0.24326737  0.25968979  1
  O  O384  1  0.61280404  0.25785082  0.75404621  1
  O  O385  1  0.61050452  0.77081299  0.23156937  1
  O  O386  1  0.61445795  0.75680595  0.75216560  1
  O  O387  1  0.35746608  0.23938427  0.26200434  1
  O  O388  1  0.38755809  0.24384244  0.75401336  1
  O  O389  1  0.38157967  0.75289345  0.24782543  1
  O  O390  1  0.38046628  0.73897498  0.75983374  1
  O  O391  1  0.87428053  0.24027201  0.24264202  1
  O  O392  1  0.87699422  0.24250717  0.73980699  1
  O  O393  1  0.88739006  0.75593946  0.23565575  1
  O  O394  1  0.88295967  0.74054053  0.74362611  1
  O  O395  1  0.37327495  0.48904577  0.48960373  1
  O  O396  1  0.38270179  0.48960591  0.99695538  1
  O  O397  1  0.38152284  0.99448910  0.49745908  1
  O  O398  1  0.37607893  1.02386343  0.97896517  1
  O  O399  1  0.88195157  0.49439558  0.48570395  1
  O  O400  1  0.88690768  0.48738365  0.99666320  1
  O  O401  1  0.88759740  0.98720801  0.50692200  1
  O  O402  1  0.87838482  0.99474188  0.99255320  1
  O  O403  1  0.11587980  0.01124465  0.00502727  1
  O  O404  1  0.11387543  0.00116960  0.49427207  1
  O  O405  1  0.11185623  0.48914389  0.01139957  1
  O  O406  1  0.11534636  0.49953268  0.50666054  1
  O  O407  1  0.62463859  0.00831535  0.00954324  1
  O  O408  1  0.60831188  0.00652048  0.50496299  1
  O  O409  1  0.61522804  0.50849116  -0.00435656  1
  O  O410  1  0.61706928  0.48817506  0.50175888  1
  O  O411  1  0.36752129  0.36967831  0.12509809  1
  O  O412  1  0.36563631  0.38308314  0.61851966  1
  O  O413  1  0.39961755  0.92629719  0.08494887  1
  O  O414  1  0.37941599  0.87856874  0.61457201  1
  O  O415  1  0.87776204  0.36555607  0.11748756  1
  O  O416  1  0.86862883  0.36563513  0.62606885  1
  O  O417  1  0.87743055  0.86547583  0.11138487  1
  O  O418  1  0.86488419  0.86893716  0.62523923  1
  O  O419  1  0.11735881  0.13875137  0.37731357  1
  O  O420  1  0.11711271  0.14395837  0.88370245  1
  O  O421  1  0.12387255  0.62779182  0.37740842  1
  O  O422  1  0.13010308  0.63092985  0.87269794  1
  O  O423  1  0.62067178  0.13077691  0.38379358  1
  O  O424  1  0.62776190  0.12012009  0.88324640  1
  O  O425  1  0.60940645  0.61478260  0.40236759  1
  O  O426  1  0.63096601  0.62679768  0.88345999  1
