# generated using pymatgen
data_V85Zn86O256
_symmetry_space_group_name_H-M   'P 1'
_cell_length_a   16.92041697
_cell_length_b   16.92306531
_cell_length_c   16.91997635
_cell_angle_alpha   90.01097726
_cell_angle_beta   90.01185810
_cell_angle_gamma   89.98131983
_symmetry_Int_Tables_number   1
_chemical_formula_structural   V85Zn86O256
_chemical_formula_sum   'V85 Zn86 O256'
_cell_volume   4844.95561401
_cell_formula_units_Z   1
loop_
 _symmetry_equiv_pos_site_id
 _symmetry_equiv_pos_as_xyz
  1  'x, y, z'
loop_
 _atom_site_type_symbol
 _atom_site_label
 _atom_site_symmetry_multiplicity
 _atom_site_fract_x
 _atom_site_fract_y
 _atom_site_fract_z
 _atom_site_occupancy
  V  V0  1  0.12354906  0.12458896  0.50302868  1
  V  V1  1  0.24779693  0.25097655  -0.00881788  1
  V  V2  1  0.11434159  0.75263829  0.37946870  1
  V  V3  1  0.25370346  0.49726052  0.75305880  1
  V  V4  1  0.88654572  0.75553625  0.62229957  1
  V  V5  1  0.74800976  0.00016629  0.25299619  1
  V  V6  1  0.87366931  0.87449079  -0.00140020  1
  V  V7  1  0.87282095  0.12490914  0.25275120  1
  V  V8  1  0.50525002  0.12531675  0.61640438  1
  V  V9  1  -0.00233310  -0.00123497  -0.00110945  1
  V  V10  1  0.62155570  0.87205230  0.26545216  1
  V  V11  1  0.50485420  0.62045500  0.12775644  1
  V  V12  1  0.62195757  0.12949677  0.00625755  1
  V  V13  1  -0.00138735  0.12300773  0.62529691  1
  V  V14  1  0.12176207  0.75378805  0.86201372  1
  V  V15  1  0.74589006  0.87491764  0.12529374  1
  V  V16  1  -0.00157732  0.50114742  -0.00092236  1
  V  V17  1  0.37725359  0.62600908  0.75021951  1
  V  V18  1  0.25242106  0.25255790  0.50073937  1
  V  V19  1  0.88034110  -0.01247965  0.37999256  1
  V  V20  1  0.25045219  0.62703627  0.37574255  1
  V  V21  1  0.37551087  0.62865268  0.24939216  1
  V  V22  1  0.49846950  0.00224784  -0.00061153  1
  V  V23  1  0.37591826  0.12426255  0.75070885  1
  V  V24  1  0.74667298  0.12710223  0.39261175  1
  V  V25  1  0.62125610  0.37650824  0.75066102  1
  V  V26  1  0.75281792  0.87211774  0.62354766  1
  V  V27  1  0.74409030  0.62372067  0.87119687  1
  V  V28  1  0.86946848  0.24977509  0.61874629  1
  V  V29  1  0.62299563  0.62946668  0.00149435  1
  V  V30  1  0.72923617  0.48749413  0.24012657  1
  V  V31  1  0.87498455  0.74743133  0.12723344  1
  V  V32  1  0.37290493  0.38303634  -0.01946010  1
  V  V33  1  0.62748077  0.25533443  0.87761984  1
  V  V34  1  -0.00048309  0.12500606  0.12562779  1
  V  V35  1  0.50127166  0.25131414  0.75315219  1
  V  V36  1  0.25046295  -0.00494569  0.75353937  1
  V  V37  1  0.25661527  0.37236794  0.12300222  1
  V  V38  1  0.87414757  0.36986775  -0.00214413  1
  V  V39  1  0.00184529  0.61247246  0.63324909  1
  V  V40  1  0.12340908  0.00062915  0.12556282  1
  V  V41  1  0.63073050  0.25542231  0.38191205  1
  V  V42  1  0.63109825  -0.00039834  0.63699704  1
  V  V43  1  0.86803499  -0.00280279  0.86969600  1
  V  V44  1  0.24817804  0.75224693  0.00051273  1
  V  V45  1  0.74757167  0.37340666  0.61420599  1
  V  V46  1  0.25282419  0.75192218  0.50054927  1
  V  V47  1  0.25053808  0.87324323  0.62998368  1
  V  V48  1  0.87982834  0.37794060  0.48907488  1
  V  V49  1  0.50431418  0.75339193  0.26199963  1
  V  V50  1  0.00346629  0.24821158  0.75291281  1
  V  V51  1  -0.00121169  0.25219910  0.25773753  1
  V  V52  1  0.74561252  0.75132233  -0.00916967  1
  V  V53  1  0.12350388  0.62629872  -0.00071853  1
  V  V54  1  0.25122411  0.49960823  0.24922789  1
  V  V55  1  0.61671496  0.00190773  0.12887708  1
  V  V56  1  0.24990421  0.87626240  0.12602575  1
  V  V57  1  0.24635832  0.38333143  0.61691167  1
  V  V58  1  0.38436589  0.12832364  0.24542881  1
  V  V59  1  0.50396885  0.37514846  0.36431214  1
  V  V60  1  0.00624305  0.37183759  0.87401303  1
  V  V61  1  0.12626224  0.49923196  0.12351271  1
  V  V62  1  0.75032806  0.49867627  0.74938894  1
  V  V63  1  0.50202968  0.61960024  0.62166111  1
  V  V64  1  0.25359712  0.62159541  0.87589212  1
  V  V65  1  0.75152991  0.62453431  0.37462750  1
  V  V66  1  0.87104471  0.25108895  0.12253475  1
  V  V67  1  0.51069390  -0.01116798  0.49918743  1
  V  V68  1  0.12462406  -0.00293157  0.63306724  1
  V  V69  1  0.37985113  0.49957428  0.37893780  1
  V  V70  1  0.12503256  0.37604850  0.74389383  1
  V  V71  1  0.12547670  0.61584402  0.50521636  1
  V  V72  1  0.61954285  0.62553411  0.49075939  1
  V  V73  1  0.87528333  0.61081632  0.25493353  1
  V  V74  1  0.50458376  0.86736510  0.87321754  1
  V  V75  1  0.00165064  0.87082684  0.86198632  1
  V  V76  1  0.11590102  0.87412842  0.25147760  1
  V  V77  1  0.38498097  0.37808998  0.50138808  1
  V  V78  1  0.49142735  0.50599348  -0.01940146  1
  V  V79  1  0.12291222  0.37289655  0.25264481  1
  V  V80  1  0.74681480  0.12629006  0.87863969  1
  V  V81  1  0.86511193  0.12461850  0.74883974  1
  V  V82  1  0.37795242  -0.00410418  0.37911490  1
  V  V83  1  0.25254101  0.12092620  0.37542521  1
  V  V84  1  0.12395758  0.12905349  -0.00767944  1
  Zn  Zn85  1  -0.00960769  -0.02214418  0.50493411  1
  Zn  Zn86  1  0.87181291  0.49954319  0.87553955  1
  Zn  Zn87  1  0.00022081  0.62591398  0.12715468  1
  Zn  Zn88  1  -0.00661368  0.75089598  0.25709836  1
  Zn  Zn89  1  0.63922343  0.86818355  0.75845983  1
  Zn  Zn90  1  0.37904965  0.75206891  0.62675443  1
  Zn  Zn91  1  0.37777045  0.25152951  0.62483566  1
  Zn  Zn92  1  0.51224913  0.74741100  0.74969575  1
  Zn  Zn93  1  0.51175727  0.25085122  0.24033545  1
  Zn  Zn94  1  0.12164162  0.24650735  0.37614276  1
  Zn  Zn95  1  0.24998905  0.00146739  0.25173667  1
  Zn  Zn96  1  0.62116599  0.49771744  0.61645446  1
  Zn  Zn97  1  0.38365256  0.24570709  0.11646598  1
  Zn  Zn98  1  0.75195833  0.75241781  0.49423634  1
  Zn  Zn99  1  0.37763827  0.87467018  0.49881459  1
  Zn  Zn100  1  0.37715873  0.75402645  0.12746487  1
  Zn  Zn101  1  0.37689522  0.87704682  0.00197603  1
  Zn  Zn102  1  0.71114352  0.30548863  0.05741842  1
  Zn  Zn103  1  0.37499859  -0.00019482  0.87676654  1
  Zn  Zn104  1  0.87722846  0.62828462  0.75187758  1
  Zn  Zn105  1  0.24622472  0.12658087  0.87151533  1
  Zn  Zn106  1  -0.00579378  0.49698348  0.49046281  1
  Zn  Zn107  1  0.19125473  0.18796356  0.18396824  1
  Zn  Zn108  1  0.18905114  0.19033959  0.68694539  1
  Zn  Zn109  1  0.18448058  0.68936423  0.18849483  1
  Zn  Zn110  1  0.18754687  0.68569438  0.68666323  1
  Zn  Zn111  1  0.68401294  0.18413933  0.19632068  1
  Zn  Zn112  1  0.68635664  0.18789196  0.68412603  1
  Zn  Zn113  1  0.68864085  0.68641896  0.18785523  1
  Zn  Zn114  1  0.68646318  0.69010619  0.68343450  1
  Zn  Zn115  1  0.31230264  0.31017938  0.31430694  1
  Zn  Zn116  1  0.30996883  0.30880089  0.80963786  1
  Zn  Zn117  1  0.30885487  0.81445193  0.31265802  1
  Zn  Zn118  1  0.31804764  0.81293531  0.81673189  1
  Zn  Zn119  1  0.80572133  0.31250561  0.30967588  1
  Zn  Zn120  1  0.81192987  0.31293323  0.81155354  1
  Zn  Zn121  1  0.80815918  0.80859677  0.31136514  1
  Zn  Zn122  1  0.81437710  0.80952446  0.80380532  1
  Zn  Zn123  1  0.16213102  0.45008657  0.42394241  1
  Zn  Zn124  1  0.18513791  0.43629747  0.93389944  1
  Zn  Zn125  1  0.15623459  0.92070523  0.45630094  1
  Zn  Zn126  1  0.18477798  0.93823329  0.93636701  1
  Zn  Zn127  1  0.69056143  0.44531343  0.43207386  1
  Zn  Zn128  1  0.67603083  0.43700170  0.95287739  1
  Zn  Zn129  1  0.69219984  0.93934585  0.44411734  1
  Zn  Zn130  1  0.68484818  0.94135533  0.93784050  1
  Zn  Zn131  1  0.31057859  0.06353191  0.06376974  1
  Zn  Zn132  1  0.31561929  0.06173148  0.56416196  1
  Zn  Zn133  1  0.31434626  0.56411663  0.06353916  1
  Zn  Zn134  1  0.31310871  0.56205966  0.56375171  1
  Zn  Zn135  1  0.80751897  0.06422826  0.06261341  1
  Zn  Zn136  1  0.81212538  0.05589279  0.56300965  1
  Zn  Zn137  1  0.81131491  0.56156933  0.06438690  1
  Zn  Zn138  1  0.81328377  0.56097752  0.56140826  1
  Zn  Zn139  1  0.43785309  0.44104518  0.18308941  1
  Zn  Zn140  1  0.43598975  0.43997985  0.69012249  1
  Zn  Zn141  1  0.43694929  0.93848841  0.19140938  1
  Zn  Zn142  1  0.43829323  0.93733939  0.68763349  1
  Zn  Zn143  1  0.93648614  0.43338106  0.18391333  1
  Zn  Zn144  1  0.93374191  0.43736709  0.68513091  1
  Zn  Zn145  1  0.93433557  0.93726127  0.18968136  1
  Zn  Zn146  1  0.93340150  0.93645844  0.68782495  1
  Zn  Zn147  1  0.06181134  0.06219228  0.31403821  1
  Zn  Zn148  1  0.05806913  0.06008110  0.81245535  1
  Zn  Zn149  1  0.05789397  0.56274351  0.31544600  1
  Zn  Zn150  1  0.06848577  0.55852437  0.81300376  1
  Zn  Zn151  1  0.56480523  0.06432602  0.31910658  1
  Zn  Zn152  1  0.56063545  0.06206512  0.81369468  1
  Zn  Zn153  1  0.56323543  0.56091300  0.31400774  1
  Zn  Zn154  1  0.56840857  0.56856852  0.81014603  1
  Zn  Zn155  1  0.44110288  0.18940339  0.43506367  1
  Zn  Zn156  1  0.43907984  0.19004280  0.93599189  1
  Zn  Zn157  1  0.43853307  0.68862281  0.43937602  1
  Zn  Zn158  1  0.43256931  0.69028084  0.93841987  1
  Zn  Zn159  1  0.93469759  0.18388439  0.43922437  1
  Zn  Zn160  1  0.93797018  0.18667017  0.93523966  1
  Zn  Zn161  1  0.93569967  0.68278630  0.44302843  1
  Zn  Zn162  1  0.93393694  0.68726659  0.93421852  1
  Zn  Zn163  1  0.06186923  0.31081822  0.06634854  1
  Zn  Zn164  1  0.06038743  0.31076703  0.56434503  1
  Zn  Zn165  1  0.06010822  0.81294145  0.05981866  1
  Zn  Zn166  1  0.06565209  0.80941019  0.56920766  1
  Zn  Zn167  1  0.54938520  0.33188896  0.06711932  1
  Zn  Zn168  1  0.56470276  0.30983726  0.55945269  1
  Zn  Zn169  1  0.56027229  0.81173675  0.06766197  1
  Zn  Zn170  1  0.56876935  0.80617173  0.56701480  1
  O  O171  1  0.11971499  0.11915973  0.11772959  1
  O  O172  1  0.11898864  0.12156003  0.62224450  1
  O  O173  1  0.12223087  0.61908552  0.11838741  1
  O  O174  1  0.10931607  0.63397093  0.61981418  1
  O  O175  1  0.62976026  0.11577819  0.11768789  1
  O  O176  1  0.61726911  0.11493290  0.63017999  1
  O  O177  1  0.61641913  0.62996654  0.11553924  1
  O  O178  1  0.61813404  0.62047108  0.61564685  1
  O  O179  1  0.38013794  0.38120293  0.38052009  1
  O  O180  1  0.36540391  0.37876682  0.88119868  1
  O  O181  1  0.36796568  0.89214782  0.37515572  1
  O  O182  1  0.38609054  0.87975055  0.88265401  1
  O  O183  1  0.87077309  0.36208334  0.39153407  1
  O  O184  1  0.89110665  0.37499854  0.87573054  1
  O  O185  1  0.86978044  0.88898503  0.36841782  1
  O  O186  1  0.87781157  0.88118828  0.87727799  1
  O  O187  1  0.25792105  0.01339914  0.37942165  1
  O  O188  1  0.25151608  0.00311962  0.86784168  1
  O  O189  1  0.25672285  0.50678537  0.36693455  1
  O  O190  1  0.24387874  0.51011855  0.86723464  1
  O  O191  1  0.75703196  0.01021498  0.37450784  1
  O  O192  1  0.75675509  0.01073093  0.87684739  1
  O  O193  1  0.74533652  0.51328908  0.35587089  1
  O  O194  1  0.74626915  0.50684442  0.86976020  1
  O  O195  1  0.24552378  0.49363681  0.12879412  1
  O  O196  1  0.25560691  0.48830344  0.63456228  1
  O  O197  1  0.24127425  0.99292013  0.12604911  1
  O  O198  1  0.24560189  0.99485673  0.63404991  1
  O  O199  1  0.75234789  0.50625367  0.14249456  1
  O  O200  1  0.74864337  0.49087584  0.63321495  1
  O  O201  1  0.74044410  0.99486122  0.13152208  1
  O  O202  1  0.74227060  0.98965659  0.62185455  1
  O  O203  1  0.01127234  0.36579162  0.24275322  1
  O  O204  1  0.00616053  0.37052632  0.75236315  1
  O  O205  1  0.01128450  0.87186768  0.24595802  1
  O  O206  1  -0.00178180  0.87856212  0.76267179  1
  O  O207  1  0.49281068  0.37603404  0.26160320  1
  O  O208  1  0.51230031  0.36820904  0.74399126  1
  O  O209  1  0.50880986  0.86595444  0.24577784  1
  O  O210  1  0.49594831  0.87329571  0.76510900  1
  O  O211  1  0.48699985  0.12440224  0.25561304  1
  O  O212  1  0.49440169  0.13068185  0.74255550  1
  O  O213  1  0.49406888  0.62979287  0.24539117  1
  O  O214  1  0.49208259  0.62610602  0.74472786  1
  O  O215  1  0.99362213  0.13053409  0.24485567  1
  O  O216  1  0.99080744  0.13166557  0.74686139  1
  O  O217  1  0.98957599  0.62615590  0.24951455  1
  O  O218  1  1.00025256  0.61488071  0.73804213  1
  O  O219  1  0.36848164  0.26122147  -0.00350457  1
  O  O220  1  0.36906093  0.25813775  0.50080818  1
  O  O221  1  0.35875340  0.75168539  0.00421843  1
  O  O222  1  0.36488209  0.75407025  0.50022415  1
  O  O223  1  0.88499245  0.25525477  0.01020346  1
  O  O224  1  0.87906183  0.25492682  0.51385235  1
  O  O225  1  0.86666991  0.75480406  0.00642596  1
  O  O226  1  0.87185366  0.74264567  0.51660861  1
  O  O227  1  0.13161765  0.24042928  0.50039959  1
  O  O228  1  0.13257817  0.24052880  1.00735310  1
  O  O229  1  0.13730729  0.74082841  0.49571271  1
  O  O230  1  0.13335861  0.74445265  0.99689170  1
  O  O231  1  0.61817856  0.24392118  0.48259993  1
  O  O232  1  0.62476895  0.24179420  0.99081439  1
  O  O233  1  0.63225946  0.73125828  0.50477003  1
  O  O234  1  0.63368680  0.74309281  1.00436082  1
  O  O235  1  0.49538738  0.26058989  0.12828507  1
  O  O236  1  0.50259287  0.24208151  0.63458861  1
  O  O237  1  0.49536284  0.73850140  0.13183248  1
  O  O238  1  0.49679870  0.73725057  0.62750289  1
  O  O239  1  0.99129352  0.24324669  0.13426905  1
  O  O240  1  0.99218218  0.24374536  0.63583491  1
  O  O241  1  0.98505806  0.74938507  0.12297662  1
  O  O242  1  0.99157608  0.74101745  0.62265639  1
  O  O243  1  0.00132306  0.24195598  0.36172495  1
  O  O244  1  -0.00328632  0.25479926  0.86088534  1
  O  O245  1  0.01130007  0.74569967  0.37889628  1
  O  O246  1  0.00827425  0.75835062  0.88103632  1
  O  O247  1  0.50896002  0.25814898  0.37070015  1
  O  O248  1  0.51101408  0.24501673  0.86093025  1
  O  O249  1  0.49805816  0.74709158  0.36160365  1
  O  O250  1  0.49677958  0.76445542  0.87776270  1
  O  O251  1  0.24751338  0.13364708  0.49781712  1
  O  O252  1  0.24247235  0.13294683  0.99884595  1
  O  O253  1  0.25006468  0.63524953  0.49700600  1
  O  O254  1  0.24559002  0.63146313  0.99379592  1
  O  O255  1  0.75487728  0.12611822  0.49095645  1
  O  O256  1  0.73592761  0.12094838  0.99096250  1
  O  O257  1  0.74534221  0.62256810  0.48959947  1
  O  O258  1  0.74200078  0.63027730  0.99483755  1
  O  O259  1  0.25229290  0.37047737  0.00348446  1
  O  O260  1  0.25522602  0.36872221  0.50367799  1
  O  O261  1  0.24740456  0.86950359  0.00982088  1
  O  O262  1  0.24892548  0.86747957  0.51027160  1
  O  O263  1  0.77393767  0.36951672  -0.02290296  1
  O  O264  1  0.75664209  0.37957211  0.50958545  1
  O  O265  1  0.75259741  0.86885295  0.00297430  1
  O  O266  1  0.74907841  0.87160013  0.51498397  1
  O  O267  1  0.13133453  0.49151135  0.24164854  1
  O  O268  1  0.13655534  0.48584737  0.75167212  1
  O  O269  1  0.12636785  0.99262294  0.24529906  1
  O  O270  1  0.13318361  1.00840440  0.74045223  1
  O  O271  1  0.62864254  0.49887778  0.24437525  1
  O  O272  1  0.63285316  0.49165921  0.74871674  1
  O  O273  1  0.62706463  0.99596819  0.24518155  1
  O  O274  1  0.61954093  0.99407156  0.73941665  1
  O  O275  1  0.37350358  0.01045366  0.25896551  1
  O  O276  1  0.36791128  0.00827912  0.75076889  1
  O  O277  1  0.36954543  0.50807981  0.25610428  1
  O  O278  1  0.36288826  0.50943353  0.75023236  1
  O  O279  1  0.86844137  0.00504751  0.25884782  1
  O  O280  1  0.88025280  0.00985692  0.76194234  1
  O  O281  1  0.87826148  0.50981593  0.24712777  1
  O  O282  1  0.86106798  0.49819666  0.75305763  1
  O  O283  1  0.14513674  0.36027128  0.35408554  1
  O  O284  1  0.11324072  0.37485876  0.86595707  1
  O  O285  1  0.14162823  0.86241881  0.35874639  1
  O  O286  1  0.11373456  0.86591867  0.88159200  1
  O  O287  1  0.61793746  0.36617759  0.38230944  1
  O  O288  1  0.63164099  0.36214792  0.86682445  1
  O  O289  1  0.63060978  0.88294506  0.36420385  1
  O  O290  1  0.60977766  0.88247347  0.87489874  1
  O  O291  1  0.36960656  0.12525948  0.14196001  1
  O  O292  1  0.38320490  0.12724483  0.63568960  1
  O  O293  1  0.37744482  0.62773782  0.13879823  1
  O  O294  1  0.38128025  0.62601503  0.63275665  1
  O  O295  1  0.88080067  0.12780017  0.13047447  1
  O  O296  1  0.87701846  0.12838837  0.63144430  1
  O  O297  1  0.87668294  0.63131201  0.13485556  1
  O  O298  1  0.88917891  0.62820911  0.62561844  1
  O  O299  1  0.25688981  0.25748832  0.11322151  1
  O  O300  1  0.25327648  0.25857537  0.61430884  1
  O  O301  1  0.24844391  0.75815039  0.11818429  1
  O  O302  1  0.25119842  0.75706644  0.61979978  1
  O  O303  1  0.76401411  0.23863798  0.12835383  1
  O  O304  1  0.75763320  0.25957574  0.62969585  1
  O  O305  1  0.75937423  0.75332484  0.11588781  1
  O  O306  1  0.76065560  0.75851683  0.62086092  1
  O  O307  1  0.25186820  0.23861345  0.38674274  1
  O  O308  1  0.24774202  0.24776064  0.88635601  1
  O  O309  1  0.24588469  0.74453847  0.38255585  1
  O  O310  1  0.24259928  0.74669821  0.88305143  1
  O  O311  1  0.74196943  0.23903349  0.37506261  1
  O  O312  1  0.74297852  0.23612760  0.86794557  1
  O  O313  1  0.75341577  0.73255966  0.37492780  1
  O  O314  1  0.75826878  0.74535254  0.88619734  1
  O  O315  1  0.00544923  0.11968995  0.00444100  1
  O  O316  1  0.00914091  0.12369989  0.50796770  1
  O  O317  1  0.00331707  0.61607659  -0.00029869  1
  O  O318  1  0.00932363  0.61778067  0.50790476  1
  O  O319  1  0.51236473  0.11823492  -0.00616933  1
  O  O320  1  0.49353417  0.11783442  0.51339522  1
  O  O321  1  0.50076630  0.62490374  0.00561789  1
  O  O322  1  0.51029474  0.62657939  0.50416637  1
  O  O323  1  0.48829960  0.37115280  0.49212438  1
  O  O324  1  0.48637694  0.39775663  0.99197517  1
  O  O325  1  0.50019942  0.88602717  0.50712965  1
  O  O326  1  0.50047125  0.88287915  0.99345870  1
  O  O327  1  0.98392740  0.37330105  0.50653228  1
  O  O328  1  0.99817951  0.37893463  0.99185313  1
  O  O329  1  1.04833223  0.88392897  0.48871520  1
  O  O330  1  0.99031720  0.88145186  0.99493473  1
  O  O331  1  0.48735251  0.49359825  0.37256462  1
  O  O332  1  0.49326338  0.51501773  0.88212530  1
  O  O333  1  0.49576257  1.00631640  0.39288893  1
  O  O334  1  0.49803656  0.99323825  0.88445101  1
  O  O335  1  1.05236118  0.48660751  0.39419105  1
  O  O336  1  1.00068009  0.49274864  0.88485368  1
  O  O337  1  0.98292448  1.00543457  0.37539808  1
  O  O338  1  0.99114712  0.99301884  0.88105397  1
  O  O339  1  0.00243817  0.00489845  0.11946171  1
  O  O340  1  0.00755150  0.00305251  0.62430809  1
  O  O341  1  0.00658456  0.49803476  0.11234646  1
  O  O342  1  -0.00159533  0.50998129  0.61959869  1
  O  O343  1  0.51051496  -0.00426141  0.11929407  1
  O  O344  1  0.50677183  0.00460764  0.61715956  1
  O  O345  1  0.49206638  0.51645203  0.11433428  1
  O  O346  1  0.50013870  0.51378308  0.62935071  1
  O  O347  1  0.24981217  0.37728814  0.23916126  1
  O  O348  1  0.24472904  0.37814405  0.74206560  1
  O  O349  1  0.24205515  0.87595195  0.23708959  1
  O  O350  1  0.25677009  0.88711250  0.74731492  1
  O  O351  1  0.74836423  0.38793737  0.24936427  1
  O  O352  1  0.74008538  0.37914853  0.74317438  1
  O  O353  1  0.74203147  0.88044623  0.24444351  1
  O  O354  1  0.75530983  0.87749341  0.73303886  1
  O  O355  1  0.25655135  0.12445919  0.25999820  1
  O  O356  1  0.25768989  0.11852937  0.74936117  1
  O  O357  1  0.25696508  0.62250884  0.25454770  1
  O  O358  1  0.25309966  0.61591904  0.75512281  1
  O  O359  1  0.75680244  0.11553051  0.25754113  1
  O  O360  1  0.76078320  0.12688957  0.75474691  1
  O  O361  1  0.76081526  0.62094637  0.25326922  1
  O  O362  1  0.74915654  0.61550426  0.75520991  1
  O  O363  1  0.37097664  0.11788184  0.36965941  1
  O  O364  1  0.37429049  0.12457701  0.86176052  1
  O  O365  1  0.37231337  0.61844643  0.36738875  1
  O  O366  1  0.36014111  0.63068374  0.86883927  1
  O  O367  1  0.86323696  0.12181281  0.37091710  1
  O  O368  1  0.86735374  0.11929798  0.86996495  1
  O  O369  1  0.87141829  0.62450435  0.36229933  1
  O  O370  1  0.86167104  0.62163583  0.87269133  1
  O  O371  1  0.13724580  0.37753238  0.13096154  1
  O  O372  1  0.13421589  0.37167341  0.63033608  1
  O  O373  1  0.12912293  0.87939380  0.13071720  1
  O  O374  1  0.13953762  0.88436068  0.63082581  1
  O  O375  1  0.64179537  0.39030245  0.05791736  1
  O  O376  1  0.63112721  0.37563770  0.62959473  1
  O  O377  1  0.63049555  0.88399955  0.13015040  1
  O  O378  1  0.63635185  0.88054532  0.62789658  1
  O  O379  1  0.11612808  0.25391217  0.24578583  1
  O  O380  1  0.11664080  0.26121839  0.74535265  1
  O  O381  1  0.11959089  0.75506914  0.25881332  1
  O  O382  1  0.12965790  0.74863930  0.76321117  1
  O  O383  1  0.62359946  0.24360522  0.27046899  1
  O  O384  1  0.61979558  0.25619461  0.75535972  1
  O  O385  1  0.61784051  0.76033601  0.24514827  1
  O  O386  1  0.62592413  0.75497025  0.75053068  1
  O  O387  1  0.37595048  0.23496022  0.25237770  1
  O  O388  1  0.38372136  0.24495661  0.74763082  1
  O  O389  1  0.37983069  0.74329271  0.25108150  1
  O  O390  1  0.37357763  0.73554216  0.74943416  1
  O  O391  1  0.88064204  0.24631820  0.24402923  1
  O  O392  1  0.88096232  0.24329778  0.74161519  1
  O  O393  1  0.87505472  0.74178600  0.24193969  1
  O  O394  1  0.87294105  0.74360905  0.72982196  1
  O  O395  1  0.36712925  0.49113323  0.48910482  1
  O  O396  1  0.38133845  0.49970629  0.99643240  1
  O  O397  1  0.38646598  0.99833460  0.49606937  1
  O  O398  1  0.38818759  1.00412721  1.00235301  1
  O  O399  1  0.87539425  0.48357978  0.49831067  1
  O  O400  1  0.88349305  0.49181467  0.99943406  1
  O  O401  1  0.87741393  0.99933740  0.48667252  1
  O  O402  1  0.87635545  0.99604282  0.98996065  1
  O  O403  1  0.11836145  0.00689876  0.00667219  1
  O  O404  1  0.13632849  0.01739744  0.51784527  1
  O  O405  1  0.11904467  0.50516338  0.00353133  1
  O  O406  1  0.14962638  0.51852746  0.51605398  1
  O  O407  1  0.61553863  0.00617754  0.00862253  1
  O  O408  1  0.61385457  -0.00103654  0.50968421  1
  O  O409  1  0.60492463  0.52233132  -0.01115908  1
  O  O410  1  0.63013771  0.51716092  0.50042962  1
  O  O411  1  0.36389271  0.38001827  0.11388992  1
  O  O412  1  0.36931850  0.37462241  0.61653422  1
  O  O413  1  0.36442600  0.87568657  0.12329341  1
  O  O414  1  0.36361486  0.87424239  0.62358612  1
  O  O415  1  0.87870303  0.36316495  0.11297475  1
  O  O416  1  0.86596252  0.36657844  0.62041566  1
  O  O417  1  0.86654381  0.86913247  0.12042134  1
  O  O418  1  0.87236837  0.86490852  0.62274954  1
  O  O419  1  0.13327291  0.12427391  0.38485271  1
  O  O420  1  0.12266654  0.12053423  0.88852855  1
  O  O421  1  0.13349556  0.63536833  0.38363139  1
  O  O422  1  0.13339345  0.63221777  0.87991016  1
  O  O423  1  0.64101846  0.12866520  0.37719563  1
  O  O424  1  0.63102232  0.13097462  0.87897618  1
  O  O425  1  0.63030443  0.62417105  0.38390778  1
  O  O426  1  0.63741271  0.63078707  0.88091998  1
