# generated using pymatgen
data_V85Zn86O256
_symmetry_space_group_name_H-M   'P 1'
_cell_length_a   16.95623053
_cell_length_b   16.96030620
_cell_length_c   16.96165531
_cell_angle_alpha   89.96573984
_cell_angle_beta   90.02980787
_cell_angle_gamma   89.99951238
_symmetry_Int_Tables_number   1
_chemical_formula_structural   V85Zn86O256
_chemical_formula_sum   'V85 Zn86 O256'
_cell_volume   4877.87984155
_cell_formula_units_Z   1
loop_
 _symmetry_equiv_pos_site_id
 _symmetry_equiv_pos_as_xyz
  1  'x, y, z'
loop_
 _atom_site_type_symbol
 _atom_site_label
 _atom_site_symmetry_multiplicity
 _atom_site_fract_x
 _atom_site_fract_y
 _atom_site_fract_z
 _atom_site_occupancy
  V  V0  1  0.50351950  0.12589865  0.13246157  1
  V  V1  1  0.12402933  0.62466540  0.49124512  1
  V  V2  1  0.37823180  0.62461443  0.24863411  1
  V  V3  1  0.01565385  0.75502196  0.25448075  1
  V  V4  1  0.74529673  0.62305118  0.88075294  1
  V  V5  1  0.37197976  0.13519359  0.25229146  1
  V  V6  1  0.75438395  0.86540839  0.62295333  1
  V  V7  1  0.62304884  0.74606027  0.88415696  1
  V  V8  1  0.50057720  0.00267453  0.50617801  1
  V  V9  1  0.51278177  0.50442300  0.00311121  1
  V  V10  1  0.12711442  0.37918506  0.74242875  1
  V  V11  1  0.25088250  0.50733069  0.74644182  1
  V  V12  1  0.12388053  0.12607649  -0.00004448  1
  V  V13  1  -0.00462149  -0.00770855  0.00372924  1
  V  V14  1  0.23125046  0.86955707  0.10133308  1
  V  V15  1  0.87253768  0.12743632  0.25361429  1
  V  V16  1  0.75140164  0.25065689  0.00054824  1
  V  V17  1  0.88826197  0.86520064  0.50426703  1
  V  V18  1  0.61981175  0.36790316  0.74877742  1
  V  V19  1  0.88266194  -0.00369522  0.38499382  1
  V  V20  1  0.75387613  -0.00227215  0.25387482  1
  V  V21  1  0.24946019  0.24634264  0.49796085  1
  V  V22  1  0.73770942  0.38989144  0.12150103  1
  V  V23  1  0.01268540  0.62366179  0.62324523  1
  V  V24  1  0.37922986  -0.00143118  0.36319827  1
  V  V25  1  0.12813110  0.00281494  0.12879759  1
  V  V26  1  0.86915369  0.62727690  0.73335668  1
  V  V27  1  -0.00149802  0.13106124  0.12447311  1
  V  V28  1  0.49512321  0.74351321  0.75207570  1
  V  V29  1  0.49837672  0.49657858  0.49604096  1
  V  V30  1  0.62719280  0.87001636  0.74823559  1
  V  V31  1  0.24207494  0.37781622  0.12722646  1
  V  V32  1  0.87642510  -0.01161351  0.88003266  1
  V  V33  1  0.75535779  0.12499980  0.87716270  1
  V  V34  1  0.87621007  0.12261078  0.74963821  1
  V  V35  1  0.24912940  0.12230936  0.86937399  1
  V  V36  1  0.12533153  0.25004398  0.87205757  1
  V  V37  1  0.74778742  0.49700189  0.74867253  1
  V  V38  1  0.12287889  0.12392150  0.49598366  1
  V  V39  1  0.23960334  0.50180514  0.25105255  1
  V  V40  1  0.12403390  -0.00878811  0.62552632  1
  V  V41  1  0.62199141  0.13405193  0.50565815  1
  V  V42  1  0.37520775  0.87551679  -0.00607421  1
  V  V43  1  0.19150649  -0.05615468  0.29324472  1
  V  V44  1  0.37337777  0.87274952  0.50101720  1
  V  V45  1  0.12297984  0.86582016  0.75745829  1
  V  V46  1  0.00135549  0.24844613  0.74811705  1
  V  V47  1  0.63025220  0.87681759  0.25196578  1
  V  V48  1  0.37956735  0.22961732  0.63052955  1
  V  V49  1  0.62702579  -0.00361157  0.12633685  1
  V  V50  1  0.76593729  0.75236685  0.00250842  1
  V  V51  1  0.87644862  0.50111523  0.86845130  1
  V  V52  1  0.73404236  0.51172218  0.24297531  1
  V  V53  1  0.86833421  0.24632888  0.61653337  1
  V  V54  1  0.51163100  0.74585262  0.23638819  1
  V  V55  1  0.25682729  0.37544072  0.62580487  1
  V  V56  1  0.24798890  -0.00554431  0.74992287  1
  V  V57  1  0.76515318  0.87341913  0.12107939  1
  V  V58  1  0.36785586  0.75373365  0.12144929  1
  V  V59  1  0.74646197  0.36599330  0.61973228  1
  V  V60  1  0.00442749  0.63169707  0.11668702  1
  V  V61  1  0.00041992  0.11814620  0.62028640  1
  V  V62  1  0.41676652  0.05624054  0.81974628  1
  V  V63  1  0.50356153  0.87356934  0.37385082  1
  V  V64  1  0.37463512  0.37976757  0.00171824  1
  V  V65  1  0.62908896  0.75108731  0.38007426  1
  V  V66  1  0.37081531  0.74916985  0.62446002  1
  V  V67  1  0.37353904  0.51042018  0.87128690  1
  V  V68  1  0.49786098  0.87439590  0.87439566  1
  V  V69  1  0.25138382  0.25003417  0.00031886  1
  V  V70  1  0.87492145  0.63458587  0.24451240  1
  V  V71  1  0.51082529  0.36884751  0.36793098  1
  V  V72  1  0.25156620  0.63403095  0.37409220  1
  V  V73  1  0.23267758  0.63135962  0.88656818  1
  V  V74  1  0.75372173  -0.00516383  0.74943318  1
  V  V75  1  0.62382536  0.49692758  0.62369799  1
  V  V76  1  0.49528495  0.62231018  0.62856490  1
  V  V77  1  0.49730074  0.37224884  0.87333706  1
  V  V78  1  0.74555419  0.12953708  0.38481927  1
  V  V79  1  0.62682932  0.62234939  0.49901574  1
  V  V80  1  0.87807525  0.37954829  -0.00241641  1
  V  V81  1  0.49843086  0.00060891  0.00286251  1
  V  V82  1  0.87525939  0.25751408  0.13265159  1
  V  V83  1  0.00802215  0.25942737  0.25999213  1
  V  V84  1  0.37938089  0.25298632  0.13068385  1
  Zn  Zn85  1  0.00100724  0.86017344  0.88656236  1
  Zn  Zn86  1  0.24364803  0.12515701  0.36843918  1
  Zn  Zn87  1  0.75802286  0.62743666  0.37788405  1
  Zn  Zn88  1  0.62526382  0.24747229  0.87410538  1
  Zn  Zn89  1  0.00674833  0.51084012  -0.00755898  1
  Zn  Zn90  1  0.62835075  0.12462850  0.00345469  1
  Zn  Zn91  1  0.75724564  0.74361866  0.50644530  1
  Zn  Zn92  1  0.87389522  0.36731283  0.47805905  1
  Zn  Zn93  1  0.37842243  0.36803184  0.49750414  1
  Zn  Zn94  1  0.62452938  -0.00111773  0.62363536  1
  Zn  Zn95  1  0.01131019  0.87336332  0.37405195  1
  Zn  Zn96  1  0.12371134  0.50422990  0.11761609  1
  Zn  Zn97  1  0.50580008  0.61388286  0.12313223  1
  Zn  Zn98  1  0.37709752  0.49753445  0.37262243  1
  Zn  Zn99  1  0.49543017  0.23159110  0.75021231  1
  Zn  Zn100  1  0.53973188  0.26190335  0.25111174  1
  Zn  Zn101  1  0.00186484  0.37898496  0.86864888  1
  Zn  Zn102  1  0.87849261  0.48687875  0.36253202  1
  Zn  Zn103  1  -0.00072138  0.49273012  0.49046720  1
  Zn  Zn104  1  0.24478322  0.75289935  0.50153997  1
  Zn  Zn105  1  0.07309123  0.40765293  0.32061130  1
  Zn  Zn106  1  -0.00593675  0.74914056  0.74960120  1
  Zn  Zn107  1  0.18903390  0.18972809  0.18908373  1
  Zn  Zn108  1  0.18926403  0.18490467  0.68384950  1
  Zn  Zn109  1  0.18637074  0.68645966  0.18472100  1
  Zn  Zn110  1  0.18939568  0.68446936  0.68821288  1
  Zn  Zn111  1  0.69237680  0.18648736  0.18784510  1
  Zn  Zn112  1  0.68384025  0.18325890  0.68786648  1
  Zn  Zn113  1  0.68587572  0.69155746  0.18175412  1
  Zn  Zn114  1  0.68371512  0.68574373  0.68929419  1
  Zn  Zn115  1  0.27700448  0.33976034  0.33718113  1
  Zn  Zn116  1  0.31448705  0.31133694  0.81008112  1
  Zn  Zn117  1  0.31842447  0.80839890  0.31003866  1
  Zn  Zn118  1  0.31011028  0.80956600  0.81252781  1
  Zn  Zn119  1  0.74074850  0.31527728  0.31135682  1
  Zn  Zn120  1  0.81360854  0.31183288  0.80671616  1
  Zn  Zn121  1  0.81484422  0.81144074  0.31793780  1
  Zn  Zn122  1  0.81381129  0.80749355  0.81438452  1
  Zn  Zn123  1  0.19108357  0.44670718  0.44656351  1
  Zn  Zn124  1  0.18612948  0.44076426  0.93317943  1
  Zn  Zn125  1  0.18894944  0.93801875  0.45572219  1
  Zn  Zn126  1  0.18118269  0.93759786  0.93572893  1
  Zn  Zn127  1  0.70608835  0.43058371  0.42574272  1
  Zn  Zn128  1  0.68749103  0.43422987  0.93412376  1
  Zn  Zn129  1  0.69243289  0.93954967  0.44282954  1
  Zn  Zn130  1  0.68654380  0.93343821  0.93941375  1
  Zn  Zn131  1  0.31295975  0.06065389  0.06337361  1
  Zn  Zn132  1  0.30914301  0.05728046  0.56146045  1
  Zn  Zn133  1  0.31347852  0.56442201  0.06231247  1
  Zn  Zn134  1  0.31199605  0.56285670  0.56206873  1
  Zn  Zn135  1  0.81474480  0.06252099  0.06554025  1
  Zn  Zn136  1  0.81220883  0.05404699  0.56211789  1
  Zn  Zn137  1  0.82000498  0.56871856  0.06013648  1
  Zn  Zn138  1  0.81461918  0.54795206  0.55476779  1
  Zn  Zn139  1  0.43705292  0.43782362  0.18927556  1
  Zn  Zn140  1  0.43384085  0.43536437  0.68713492  1
  Zn  Zn141  1  0.43427971  0.92705503  0.18265051  1
  Zn  Zn142  1  0.43962096  0.92963709  0.68359418  1
  Zn  Zn143  1  0.93235660  0.44612234  0.18542889  1
  Zn  Zn144  1  0.95544689  0.41869759  0.64708981  1
  Zn  Zn145  1  0.94112959  0.93992845  0.19247273  1
  Zn  Zn146  1  0.93942619  0.93460369  0.68668379  1
  Zn  Zn147  1  0.05320927  0.07229936  0.31580859  1
  Zn  Zn148  1  0.06137080  0.05771834  0.81336055  1
  Zn  Zn149  1  0.05654332  0.57290270  0.31522305  1
  Zn  Zn150  1  0.06152336  0.56277506  0.80641168  1
  Zn  Zn151  1  0.56389852  0.06346285  0.31642172  1
  Zn  Zn152  1  0.58163668  0.05795631  0.81628810  1
  Zn  Zn153  1  0.56472294  0.56117726  0.31384684  1
  Zn  Zn154  1  0.56212258  0.55952280  0.81354128  1
  Zn  Zn155  1  0.43771619  0.19017567  0.43565796  1
  Zn  Zn156  1  0.44100143  0.19208014  0.94624253  1
  Zn  Zn157  1  0.44134920  0.68707879  0.43449135  1
  Zn  Zn158  1  0.43293048  0.68672754  0.94103599  1
  Zn  Zn159  1  0.93701131  0.18707729  0.43690844  1
  Zn  Zn160  1  0.93701564  0.18823046  0.93790280  1
  Zn  Zn161  1  0.93937651  0.68635154  0.43058265  1
  Zn  Zn162  1  0.93842167  0.68659821  0.92869962  1
  Zn  Zn163  1  0.06306376  0.31969812  0.05997979  1
  Zn  Zn164  1  0.06497260  0.30864192  0.55842960  1
  Zn  Zn165  1  0.05967268  0.81971662  0.08002131  1
  Zn  Zn166  1  0.06070481  0.80302462  0.56907556  1
  Zn  Zn167  1  0.56256131  0.31083253  0.05956631  1
  Zn  Zn168  1  0.55534377  0.30922181  0.56324664  1
  Zn  Zn169  1  0.56712197  0.80123965  0.07105733  1
  Zn  Zn170  1  0.56117235  0.81238286  0.56362058  1
  O  O171  1  0.12112063  0.12073599  0.12000419  1
  O  O172  1  0.11685490  0.11612947  0.62112683  1
  O  O173  1  0.11009585  0.62602319  0.12408734  1
  O  O174  1  0.11593122  0.62102981  0.62277701  1
  O  O175  1  0.62117905  0.11709794  0.12580036  1
  O  O176  1  0.62915687  0.11723130  0.61071121  1
  O  O177  1  0.58147548  0.69699323  0.13961397  1
  O  O178  1  0.61552598  0.61951144  0.61876175  1
  O  O179  1  0.38190469  0.38017625  0.38010701  1
  O  O180  1  0.38056177  0.37977848  0.88255758  1
  O  O181  1  0.38350993  0.87986058  0.37758346  1
  O  O182  1  0.38650020  0.86705899  0.87978744  1
  O  O183  1  0.81101612  0.38218660  0.37873084  1
  O  O184  1  0.87159228  0.38649334  0.87714414  1
  O  O185  1  0.87631376  0.87996133  0.38905170  1
  O  O186  1  0.87656566  0.88603783  0.87223579  1
  O  O187  1  0.25450843  -0.00599835  0.36432415  1
  O  O188  1  0.24595294  0.00961695  0.86292896  1
  O  O189  1  0.25694406  0.51540082  0.36620362  1
  O  O190  1  0.25729456  0.50513036  0.86750826  1
  O  O191  1  0.76192039  0.00214428  0.37097184  1
  O  O192  1  0.75729012  0.00460460  0.87351165  1
  O  O193  1  0.73218502  0.51609318  0.34944311  1
  O  O194  1  0.75256771  0.50661974  0.87038646  1
  O  O195  1  0.24680737  0.49561566  0.13011023  1
  O  O196  1  0.25901946  0.48920998  0.63375967  1
  O  O197  1  0.23696325  0.98947211  0.11449239  1
  O  O198  1  0.24003472  1.00498393  0.64035505  1
  O  O199  1  0.75122732  0.49570072  0.12018430  1
  O  O200  1  0.74213245  0.48849236  0.63104015  1
  O  O201  1  0.74523880  0.99479397  0.13078230  1
  O  O202  1  0.75104159  0.98529578  0.63364331  1
  O  O203  1  -0.00217843  0.36470825  0.24243279  1
  O  O204  1  0.00935161  0.36596307  0.74078971  1
  O  O205  1  -0.00646777  0.85843655  0.25165447  1
  O  O206  1  0.01239221  0.87376299  0.75018816  1
  O  O207  1  0.50036065  0.37663648  0.26232326  1
  O  O208  1  0.50769025  0.37557184  0.75725649  1
  O  O209  1  0.51235396  0.87322994  0.25766362  1
  O  O210  1  0.50785563  0.86645018  0.75518876  1
  O  O211  1  0.49953452  0.12678791  0.24190041  1
  O  O212  1  0.49120032  0.11333107  0.76947360  1
  O  O213  1  0.49208933  0.62701063  0.24871673  1
  O  O214  1  0.50525893  0.63127660  0.74151841  1
  O  O215  1  0.98977092  0.13747019  0.24390434  1
  O  O216  1  0.99567548  0.12965774  0.74530054  1
  O  O217  1  0.99254430  0.63767408  0.24339651  1
  O  O218  1  0.98580964  0.62006958  0.73742069  1
  O  O219  1  0.37273006  0.26140338  0.00879612  1
  O  O220  1  0.36991895  0.24545706  0.51390376  1
  O  O221  1  0.37869045  0.76189980  0.00826368  1
  O  O222  1  0.38035768  0.75615700  0.50663578  1
  O  O223  1  0.86626268  0.25631577  0.00604363  1
  O  O224  1  0.87742690  0.25101455  0.51340581  1
  O  O225  1  0.86357177  0.75253756  -0.00706831  1
  O  O226  1  0.87463154  0.76138046  0.49488913  1
  O  O227  1  0.13714495  0.23664451  0.51095881  1
  O  O228  1  0.13027380  0.24714739  0.99217374  1
  O  O229  1  0.13069242  0.73283329  0.51086926  1
  O  O230  1  0.16405112  0.82717685  1.03460332  1
  O  O231  1  0.62057795  0.23292040  0.50511115  1
  O  O232  1  0.63981697  0.24902596  0.99690587  1
  O  O233  1  0.62353501  0.74150088  0.49441206  1
  O  O234  1  0.62980443  0.75443633  0.98567920  1
  O  O235  1  0.50149419  0.24365718  0.13205738  1
  O  O236  1  0.48423601  0.24686155  0.62927133  1
  O  O237  1  0.47037375  0.79176289  0.13579688  1
  O  O238  1  0.49658118  0.74109024  0.63310311  1
  O  O239  1  0.99165544  0.24885675  0.12722140  1
  O  O240  1  0.99331393  0.23736803  0.63552548  1
  O  O241  1  1.00102285  0.74184533  0.13624480  1
  O  O242  1  0.99527601  0.72960009  0.63110706  1
  O  O243  1  -0.00900360  0.25303014  0.35934577  1
  O  O244  1  0.00206960  0.25140045  0.86122767  1
  O  O245  1  0.00228182  0.75294764  0.36006777  1
  O  O246  1  -0.00280796  0.75060814  0.86333445  1
  O  O247  1  0.49966511  0.26434202  0.37088728  1
  O  O248  1  0.49955791  0.26110492  0.87440763  1
  O  O249  1  0.51114338  0.75423691  0.36484668  1
  O  O250  1  0.50592581  0.74932437  0.86968158  1
  O  O251  1  0.24150886  0.12805708  0.49900986  1
  O  O252  1  0.24473729  0.12909335  0.99219452  1
  O  O253  1  0.24298687  0.62503986  0.49170017  1
  O  O254  1  0.25016938  0.61982183  0.98585810  1
  O  O255  1  0.73752111  0.11200504  0.49253305  1
  O  O256  1  0.75335601  0.13400240  0.99493830  1
  O  O257  1  0.73801853  0.62266682  0.50133670  1
  O  O258  1  0.75287268  0.63812420  0.99312515  1
  O  O259  1  0.25940112  0.37057527  0.00541298  1
  O  O260  1  0.25385358  0.36617364  0.51177033  1
  O  O261  1  0.27503484  0.89983440  -0.01105413  1
  O  O262  1  0.26719962  0.86956767  0.49693026  1
  O  O263  1  0.75908740  0.37153745  0.00326746  1
  O  O264  1  0.74113963  0.37206690  0.51955291  1
  O  O265  1  0.74777658  0.86272100  0.00650046  1
  O  O266  1  0.75993249  0.87118405  0.50960564  1
  O  O267  1  0.13472434  0.50423260  0.24903637  1
  O  O268  1  0.13379035  0.48799448  0.75120935  1
  O  O269  1  0.13377129  1.01893461  0.24753408  1
  O  O270  1  0.13016324  0.99175695  0.74531150  1
  O  O271  1  0.63556594  0.52442014  0.22878999  1
  O  O272  1  0.62764012  0.48980510  0.74389954  1
  O  O273  1  0.63359210  0.99398664  0.24887008  1
  O  O274  1  0.63542609  0.98769678  0.74713332  1
  O  O275  1  0.38545750  0.00439015  0.25931966  1
  O  O276  1  0.36790917  -0.00772509  0.75083856  1
  O  O277  1  0.36891715  0.51540059  0.24423335  1
  O  O278  1  0.36531344  0.49197148  0.76094606  1
  O  O279  1  0.87023337  0.00814779  0.25708576  1
  O  O280  1  0.87282985  0.00420093  0.75898516  1
  O  O281  1  0.86173222  0.51406944  0.24757617  1
  O  O282  1  0.86377328  0.50853742  0.75595377  1
  O  O283  1  0.16551986  0.37178078  0.36836663  1
  O  O284  1  0.12438984  0.36574816  0.85936497  1
  O  O285  1  0.13285192  0.89352469  0.36172674  1
  O  O286  1  0.11868979  0.87844968  0.86132572  1
  O  O287  1  0.61057206  0.38040163  0.37820733  1
  O  O288  1  0.61594335  0.37130536  0.86703784  1
  O  O289  1  0.62417483  0.86913450  0.37507826  1
  O  O290  1  0.61935962  0.86631992  0.86828428  1
  O  O291  1  0.38441311  0.12919219  0.13211339  1
  O  O292  1  0.37169266  0.13074879  0.62603641  1
  O  O293  1  0.38085201  0.63719645  0.12785460  1
  O  O294  1  0.39003602  0.63063248  0.61888441  1
  O  O295  1  0.87736344  0.13649759  0.13150606  1
  O  O296  1  0.88000413  0.12639610  0.62848922  1
  O  O297  1  0.88706133  0.62570971  0.13647329  1
  O  O298  1  0.86379575  0.62174794  0.63333826  1
  O  O299  1  0.25826420  0.25727137  0.11961238  1
  O  O300  1  0.26167232  0.25215415  0.62060123  1
  O  O301  1  0.26117591  0.75739420  0.13406893  1
  O  O302  1  0.26811759  0.73985768  0.62472861  1
  O  O303  1  0.75827841  0.26176970  0.11660025  1
  O  O304  1  0.75796139  0.25185823  0.63361585  1
  O  O305  1  0.75056320  0.75735861  0.10957617  1
  O  O306  1  0.74431766  0.76107391  0.62578718  1
  O  O307  1  0.26249258  0.24121147  0.39513734  1
  O  O308  1  0.24719468  0.24298594  0.88044604  1
  O  O309  1  0.25759769  0.73815774  0.37696230  1
  O  O310  1  0.25215751  0.72855661  0.86718881  1
  O  O311  1  0.76088174  0.22632326  0.38563262  1
  O  O312  1  0.75440316  0.24177181  0.88166876  1
  O  O313  1  0.74110246  0.74617863  0.38243018  1
  O  O314  1  0.74371188  0.74384091  0.88379977  1
  O  O315  1  0.00557794  0.12172160  0.00605979  1
  O  O316  1  0.00763384  0.13080879  0.51014248  1
  O  O317  1  -0.00915101  0.62856249  0.01364526  1
  O  O318  1  0.01000441  0.62749736  0.50472667  1
  O  O319  1  0.50421108  0.12077729  0.01432777  1
  O  O320  1  0.51382063  0.11640049  0.48965478  1
  O  O321  1  0.49878490  0.60826146  -0.00184045  1
  O  O322  1  0.51007997  0.61858582  0.50562389  1
  O  O323  1  0.49938193  0.38165597  0.49262228  1
  O  O324  1  0.49410534  0.38092351  0.99263112  1
  O  O325  1  0.49334006  0.88053062  0.49248811  1
  O  O326  1  0.49615296  0.88360367  0.99423366  1
  O  O327  1  0.98572096  0.38113437  0.53219491  1
  O  O328  1  0.98330452  0.36748779  0.99188830  1
  O  O329  1  0.99195172  0.86822757  0.49803702  1
  O  O330  1  1.00076857  0.88865366  1.00515819  1
  O  O331  1  0.49957296  0.49382429  0.38141028  1
  O  O332  1  0.49299345  0.49011039  0.88082145  1
  O  O333  1  0.49372985  0.99393918  0.38226959  1
  O  O334  1  0.49491946  0.99915537  0.88021839  1
  O  O335  1  1.00275994  0.48771087  0.36939133  1
  O  O336  1  0.98917529  0.49835280  0.87210145  1
  O  O337  1  0.98658020  0.99369067  0.36675915  1
  O  O338  1  0.99187076  0.99928385  0.88660132  1
  O  O339  1  0.00371490  0.01103140  0.12170416  1
  O  O340  1  0.00698164  0.01187260  0.63228853  1
  O  O341  1  0.00149437  0.51819929  0.12569176  1
  O  O342  1  -0.01405229  0.52337641  0.61577428  1
  O  O343  1  0.50677373  0.00448751  0.12135279  1
  O  O344  1  0.49867914  -0.00428148  0.60962560  1
  O  O345  1  0.49874206  0.49733893  0.10791636  1
  O  O346  1  0.50439357  0.50434604  0.62035041  1
  O  O347  1  0.26630514  0.39268684  0.23608941  1
  O  O348  1  0.24551397  0.38104927  0.74533712  1
  O  O349  1  0.25217783  0.87999138  0.24235932  1
  O  O350  1  0.23691937  0.88246937  0.75588683  1
  O  O351  1  0.74833043  0.40002849  0.22869839  1
  O  O352  1  0.73431838  0.37567602  0.74752817  1
  O  O353  1  0.74910664  0.87909598  0.24451025  1
  O  O354  1  0.74786612  0.87497338  0.74509566  1
  O  O355  1  0.26328528  0.12898665  0.25179440  1
  O  O356  1  0.24667099  0.11893291  0.76269087  1
  O  O357  1  0.25636531  0.62136692  0.25408432  1
  O  O358  1  0.24551884  0.61019226  0.75587967  1
  O  O359  1  0.75550855  0.11644812  0.26316278  1
  O  O360  1  0.75484637  0.11690005  0.75864262  1
  O  O361  1  0.75832218  0.62384666  0.23841920  1
  O  O362  1  0.75425279  0.61873700  0.75532897  1
  O  O363  1  0.37527365  0.11541400  0.36725858  1
  O  O364  1  0.36717256  0.12426846  0.88401442  1
  O  O365  1  0.37152784  0.62347658  0.36567065  1
  O  O366  1  0.37331920  0.61202922  0.87629614  1
  O  O367  1  0.86800050  0.11394872  0.37680145  1
  O  O368  1  0.86787437  0.11807420  0.87118909  1
  O  O369  1  0.87442852  0.62046024  0.35897249  1
  O  O370  1  0.86258283  0.61452685  0.86897823  1
  O  O371  1  0.14044775  0.36944029  0.12889296  1
  O  O372  1  0.14168808  0.36308795  0.63597705  1
  O  O373  1  0.12152980  0.90010754  0.15290972  1
  O  O374  1  0.11832016  0.88672767  0.63111912  1
  O  O375  1  0.64041096  0.37634518  0.11332815  1
  O  O376  1  0.62478962  0.37473271  0.63313586  1
  O  O377  1  0.63482239  0.88003093  0.13291655  1
  O  O378  1  0.63235931  0.87531915  0.63118049  1
  O  O379  1  0.10648690  0.24424538  0.24813671  1
  O  O380  1  0.11844636  0.25146436  0.75280310  1
  O  O381  1  0.11447641  0.75035177  0.24929495  1
  O  O382  1  0.12685793  0.76537095  0.73977510  1
  O  O383  1  0.65280035  0.26036882  0.25929067  1
  O  O384  1  0.61604605  0.25279058  0.75267595  1
  O  O385  1  0.63098930  0.76088529  0.26619238  1
  O  O386  1  0.61578826  0.75269042  0.75949432  1
  O  O387  1  0.38030598  0.23872656  0.24430008  1
  O  O388  1  0.37610392  0.24827242  0.73670287  1
  O  O389  1  0.38323965  0.73893931  0.24342923  1
  O  O390  1  0.38889798  0.75585272  0.74175786  1
  O  O391  1  0.87735698  0.24791208  0.23759412  1
  O  O392  1  0.88291861  0.24051334  0.74475992  1
  O  O393  1  0.87458250  0.73761070  0.25240029  1
  O  O394  1  0.86913952  0.72962958  0.75178938  1
  O  O395  1  0.39125483  0.50219595  0.50127223  1
  O  O396  1  0.38016888  0.49066276  0.99291231  1
  O  O397  1  0.37962845  0.99335304  0.48933348  1
  O  O398  1  0.39320515  0.99786722  1.00702811  1
  O  O399  1  0.87599490  0.48935952  0.48212645  1
  O  O400  1  0.87858891  0.49401860  0.98925444  1
  O  O401  1  0.87485224  0.98531153  0.49358980  1
  O  O402  1  0.88386737  1.00824324  0.99178109  1
  O  O403  1  0.11500016  0.00684285  0.00877540  1
  O  O404  1  0.12771132  0.00853883  0.51476068  1
  O  O405  1  0.11230660  0.47458788  0.00699903  1
  O  O406  1  0.12173206  0.51773245  0.50232048  1
  O  O407  1  0.61493860  0.00038580  0.00461012  1
  O  O408  1  0.61461223  0.00311585  0.50066440  1
  O  O409  1  0.61085474  0.49704644  -0.00798762  1
  O  O410  1  0.61674285  0.50556832  0.50461526  1
  O  O411  1  0.37148164  0.37215354  0.11657610  1
  O  O412  1  0.36655363  0.36594819  0.62279971  1
  O  O413  1  0.35148823  0.87506228  0.11308658  1
  O  O414  1  0.38239314  0.86219748  0.61275467  1
  O  O415  1  0.86710911  0.37313735  0.11511664  1
  O  O416  1  0.85820017  0.35869266  0.63831816  1
  O  O417  1  0.86364361  0.88485327  0.12617645  1
  O  O418  1  0.87182798  0.87614751  0.61221065  1
  O  O419  1  0.12508426  0.11864706  0.39105058  1
  O  O420  1  0.13108337  0.12955025  0.87978668  1
  O  O421  1  0.13333184  0.62726346  0.38421987  1
  O  O422  1  0.13295682  0.61901163  0.87564276  1
  O  O423  1  0.63834454  0.11802311  0.38617660  1
  O  O424  1  0.64271576  0.12680809  0.88163340  1
  O  O425  1  0.62316012  0.63508784  0.38475377  1
  O  O426  1  0.63741483  0.63070267  0.86844222  1
