# generated using pymatgen
data_V85Zn86O256
_symmetry_space_group_name_H-M   'P 1'
_cell_length_a   16.97102798
_cell_length_b   16.95941935
_cell_length_c   16.96561459
_cell_angle_alpha   90.01459111
_cell_angle_beta   89.98821196
_cell_angle_gamma   90.05160284
_symmetry_Int_Tables_number   1
_chemical_formula_structural   V85Zn86O256
_chemical_formula_sum   'V85 Zn86 O256'
_cell_volume   4883.02025731
_cell_formula_units_Z   1
loop_
 _symmetry_equiv_pos_site_id
 _symmetry_equiv_pos_as_xyz
  1  'x, y, z'
loop_
 _atom_site_type_symbol
 _atom_site_label
 _atom_site_symmetry_multiplicity
 _atom_site_fract_x
 _atom_site_fract_y
 _atom_site_fract_z
 _atom_site_occupancy
  V  V0  1  0.88206385  0.87986376  0.47985379  1
  V  V1  1  0.25640954  0.23638957  -0.00870256  1
  V  V2  1  0.24571615  -0.00487290  0.25055722  1
  V  V3  1  0.54777049  0.19591581  0.69015727  1
  V  V4  1  0.76646774  0.50327475  0.25188957  1
  V  V5  1  0.49368775  0.37111042  0.86741938  1
  V  V6  1  0.75198616  0.00128667  0.75010731  1
  V  V7  1  0.62693327  0.62761286  0.49494343  1
  V  V8  1  -0.00862116  0.75722690  0.24632678  1
  V  V9  1  0.74887440  0.25210698  -0.00000918  1
  V  V10  1  -0.00511405  0.49153671  -0.00358794  1
  V  V11  1  0.37322078  0.49770724  0.87514347  1
  V  V12  1  0.62729890  0.74988167  0.87648446  1
  V  V13  1  0.00551006  0.75297457  0.74765377  1
  V  V14  1  0.61858293  0.24620828  0.87666597  1
  V  V15  1  0.75170244  0.75213903  0.49872709  1
  V  V16  1  0.51157478  0.87839585  0.37512538  1
  V  V17  1  0.86935178  0.11292092  0.25920189  1
  V  V18  1  0.87266114  0.24797422  0.12340707  1
  V  V19  1  -0.00190690  0.24839600  0.24873956  1
  V  V20  1  -0.00563260  -0.01215024  0.00528195  1
  V  V21  1  0.23853075  0.49749835  0.74640190  1
  V  V22  1  0.37478606  0.36990327  0.00497191  1
  V  V23  1  0.75513635  0.37413974  0.12486250  1
  V  V24  1  0.37432499  0.62104150  0.74841734  1
  V  V25  1  0.24992763  0.36156272  0.12573205  1
  V  V26  1  0.76517495  0.75696796  0.00128377  1
  V  V27  1  0.50193429  0.37213089  0.37332071  1
  V  V28  1  0.24938404  0.62441056  0.37281963  1
  V  V29  1  0.37593600  0.50097948  0.37303602  1
  V  V30  1  0.37852047  0.87737436  0.50031845  1
  V  V31  1  0.86986496  -0.00343068  0.88231193  1
  V  V32  1  -0.00803860  0.87351364  0.87007032  1
  V  V33  1  0.25138328  0.74756623  0.00233125  1
  V  V34  1  0.12183706  0.62301808  0.00327073  1
  V  V35  1  0.62832242  0.38850138  0.74901076  1
  V  V36  1  0.50047699  0.62497102  0.62360652  1
  V  V37  1  0.76731985  0.62220539  0.37124108  1
  V  V38  1  0.18566696  0.93006770  0.79972472  1
  V  V39  1  0.00381263  0.00418190  0.48644259  1
  V  V40  1  0.62781773  0.49803523  0.12837716  1
  V  V41  1  -0.00414775  0.37984031  0.36979783  1
  V  V42  1  -0.00391783  0.50297217  0.49237921  1
  V  V43  1  0.37694467  0.12722551  0.23712895  1
  V  V44  1  0.88479034  0.13157317  0.74904511  1
  V  V45  1  0.24551304  0.88431525  0.62192129  1
  V  V46  1  0.24915983  0.12627341  0.37630584  1
  V  V47  1  0.62574788  0.87763972  0.74604734  1
  V  V48  1  0.24869111  0.49689903  0.24556382  1
  V  V49  1  0.87279859  0.62029696  0.74603728  1
  V  V50  1  0.61723793  -0.00509553  0.13115865  1
  V  V51  1  -0.00448809  0.11917918  0.12887265  1
  V  V52  1  0.37453882  0.75123198  0.62291415  1
  V  V53  1  0.49838997  0.87997383  0.88073628  1
  V  V54  1  0.49957751  0.24554217  0.23849382  1
  V  V55  1  0.50967985  0.75563342  0.25027423  1
  V  V56  1  0.50025717  0.49850426  0.00095975  1
  V  V57  1  0.23814973  0.37988801  0.62068676  1
  V  V58  1  0.37689675  0.75188332  0.12597072  1
  V  V59  1  0.12563683  0.74967729  0.87225254  1
  V  V60  1  0.87094286  0.37750587  0.49504441  1
  V  V61  1  0.75897391  0.87365027  0.12951012  1
  V  V62  1  0.24745946  0.25026356  0.49894748  1
  V  V63  1  0.24849405  0.75085506  0.49751084  1
  V  V64  1  0.62765557  0.62488119  -0.00039209  1
  V  V65  1  0.12406928  0.76036876  0.36222864  1
  V  V66  1  0.87633465  0.49033456  0.87351789  1
  V  V67  1  0.50312970  0.62561733  0.12551580  1
  V  V68  1  0.50201953  0.74928231  0.74940449  1
  V  V69  1  0.12195331  -0.00464541  0.12863749  1
  V  V70  1  0.87859399  0.75685558  0.62397664  1
  V  V71  1  0.37714694  0.62531672  0.24912447  1
  V  V72  1  0.12222407  0.24567262  0.37501253  1
  V  V73  1  0.00627379  0.62336936  0.62304374  1
  V  V74  1  0.50656880  0.01382409  0.50802585  1
  V  V75  1  0.49927279  0.50153005  0.50036065  1
  V  V76  1  0.11244342  0.36242329  0.76153182  1
  V  V77  1  -0.01524583  0.62622920  0.12973684  1
  V  V78  1  0.36958461  0.24863948  0.63477087  1
  V  V79  1  0.12619915  0.62127725  0.49818446  1
  V  V80  1  0.24983416  0.62283483  0.87434378  1
  V  V81  1  0.09981433  0.15074611  -0.01527039  1
  V  V82  1  0.74259148  0.11886691  0.38614482  1
  V  V83  1  0.37762554  0.00308221  0.37557996  1
  V  V84  1  0.75205862  0.61905358  0.87089510  1
  Zn  Zn85  1  0.62244701  0.24275163  0.38098605  1
  Zn  Zn86  1  0.37519647  0.87718844  0.00183769  1
  Zn  Zn87  1  0.62057286  0.12557145  0.01279188  1
  Zn  Zn88  1  0.36281698  0.00909302  0.87535331  1
  Zn  Zn89  1  0.12410861  0.49478206  0.12201472  1
  Zn  Zn90  1  0.63494889  0.50524760  0.62692895  1
  Zn  Zn91  1  0.62855350  0.37033377  0.25057344  1
  Zn  Zn92  1  0.24368804  0.86880983  0.13402086  1
  Zn  Zn93  1  0.48968801  0.01984375  0.01112763  1
  Zn  Zn94  1  0.74777435  0.24863482  0.50468957  1
  Zn  Zn95  1  0.76214773  0.38509608  0.63408715  1
  Zn  Zn96  1  0.63140379  0.75389058  0.36869395  1
  Zn  Zn97  1  0.12122450  0.00038892  0.62161999  1
  Zn  Zn98  1  0.35565294  0.11102943  0.75172605  1
  Zn  Zn99  1  0.62425832  0.01889169  0.62577724  1
  Zn  Zn100  1  0.74445804  -0.01176604  0.25812302  1
  Zn  Zn101  1  0.37355717  0.37537374  0.49969999  1
  Zn  Zn102  1  0.74871459  0.12443091  0.87956310  1
  Zn  Zn103  1  0.12429431  0.37155829  0.24534130  1
  Zn  Zn104  1  0.88429879  0.25825997  0.62550650  1
  Zn  Zn105  1  0.75084531  0.88087708  0.62098203  1
  Zn  Zn106  1  0.01072423  0.12776962  0.61553085  1
  Zn  Zn107  1  0.18450287  0.18218212  0.18475157  1
  Zn  Zn108  1  0.17336659  0.18086321  0.68963812  1
  Zn  Zn109  1  0.18563859  0.68275659  0.18622077  1
  Zn  Zn110  1  0.18875319  0.69023531  0.68515089  1
  Zn  Zn111  1  0.68425012  0.18261345  0.19353905  1
  Zn  Zn112  1  0.71465482  0.19411691  0.68797469  1
  Zn  Zn113  1  0.69474479  0.68754954  0.18598353  1
  Zn  Zn114  1  0.69008730  0.68699361  0.68443419  1
  Zn  Zn115  1  0.31732551  0.31146179  0.31047757  1
  Zn  Zn116  1  0.28426356  0.27911026  0.79310233  1
  Zn  Zn117  1  0.31771307  0.81432238  0.31442552  1
  Zn  Zn118  1  0.31919972  0.80753485  0.81315783  1
  Zn  Zn119  1  0.81090084  0.30728574  0.31293613  1
  Zn  Zn120  1  0.80905628  0.31066805  0.81438006  1
  Zn  Zn121  1  0.81431915  0.80576115  0.30882638  1
  Zn  Zn122  1  0.81320183  0.81124182  0.81075787  1
  Zn  Zn123  1  0.18217748  0.43585954  0.43314006  1
  Zn  Zn124  1  0.18721890  0.43260579  0.93760317  1
  Zn  Zn125  1  0.18690403  0.93874143  0.43661842  1
  Zn  Zn126  1  0.18022216  0.93469765  0.96400071  1
  Zn  Zn127  1  0.68481128  0.44144203  0.43356539  1
  Zn  Zn128  1  0.68892684  0.43355730  0.93704869  1
  Zn  Zn129  1  0.68897351  0.94251515  0.44143239  1
  Zn  Zn130  1  0.68277083  0.93896852  0.94379789  1
  Zn  Zn131  1  0.31035260  0.05885607  0.05878735  1
  Zn  Zn132  1  0.31354590  0.06777341  0.56175061  1
  Zn  Zn133  1  0.31284434  0.56011011  0.06433174  1
  Zn  Zn134  1  0.31171831  0.56166616  0.56277264  1
  Zn  Zn135  1  0.80537608  0.06186435  0.06489636  1
  Zn  Zn136  1  0.81883178  0.05811043  0.56487902  1
  Zn  Zn137  1  0.81215133  0.56227394  0.05816317  1
  Zn  Zn138  1  0.81413350  0.56053337  0.56127157  1
  Zn  Zn139  1  0.43772822  0.43343667  0.18752066  1
  Zn  Zn140  1  0.43209826  0.43297271  0.68479030  1
  Zn  Zn141  1  0.43443822  0.93618365  0.19138013  1
  Zn  Zn142  1  0.43407192  0.94340568  0.69063288  1
  Zn  Zn143  1  0.93888859  0.43563217  0.18167833  1
  Zn  Zn144  1  0.94258736  0.44337381  0.68145166  1
  Zn  Zn145  1  0.93117159  0.93080797  0.18968562  1
  Zn  Zn146  1  0.94180257  0.94318636  0.68623712  1
  Zn  Zn147  1  0.06138515  0.06089875  0.31547827  1
  Zn  Zn148  1  0.05758840  0.06472465  0.81927094  1
  Zn  Zn149  1  0.06383369  0.56440568  0.30961877  1
  Zn  Zn150  1  0.06001341  0.56144225  0.81325661  1
  Zn  Zn151  1  0.56440484  0.06091867  0.30787703  1
  Zn  Zn152  1  0.56075520  0.06112568  0.81634081  1
  Zn  Zn153  1  0.56727367  0.56341598  0.31205879  1
  Zn  Zn154  1  0.55956554  0.56225184  0.81489223  1
  Zn  Zn155  1  0.43313569  0.19048291  0.43646386  1
  Zn  Zn156  1  0.43538261  0.18219461  0.93381342  1
  Zn  Zn157  1  0.43883691  0.69020791  0.43469838  1
  Zn  Zn158  1  0.43893280  0.68758351  0.93753765  1
  Zn  Zn159  1  0.93389662  0.19046109  0.43905663  1
  Zn  Zn160  1  0.93165035  0.18251071  0.94190298  1
  Zn  Zn161  1  0.94257638  0.69461039  0.43397229  1
  Zn  Zn162  1  0.93898553  0.68264871  0.93519482  1
  Zn  Zn163  1  0.06005312  0.30721465  0.05175709  1
  Zn  Zn164  1  0.06101758  0.31075344  0.56271687  1
  Zn  Zn165  1  0.05968052  0.81069979  0.06518396  1
  Zn  Zn166  1  0.06455966  0.81543424  0.55636627  1
  Zn  Zn167  1  0.56328463  0.31290239  0.06070427  1
  Zn  Zn168  1  0.56801933  0.31864026  0.55668350  1
  Zn  Zn169  1  0.56957043  0.81614614  0.06391108  1
  Zn  Zn170  1  0.56333643  0.81504705  0.56111155  1
  O  O171  1  0.11119269  0.11573636  0.11986160  1
  O  O172  1  0.12488911  0.11472544  0.62050493  1
  O  O173  1  0.12356590  0.61934383  0.11164001  1
  O  O174  1  0.11789771  0.63562585  0.61071009  1
  O  O175  1  0.63438379  0.10180246  0.12944155  1
  O  O176  1  0.61887434  0.13991924  0.64123168  1
  O  O177  1  0.62236266  0.61865246  0.11880079  1
  O  O178  1  0.61966471  0.62640600  0.61316034  1
  O  O179  1  0.38525914  0.38338426  0.37592803  1
  O  O180  1  0.38200155  0.38093121  0.88651880  1
  O  O181  1  0.38388758  0.88274999  0.38290526  1
  O  O182  1  0.39175922  0.86817187  0.87690172  1
  O  O183  1  0.89001828  0.37011471  0.37568015  1
  O  O184  1  0.86930128  0.39123601  0.86629630  1
  O  O185  1  0.87456753  0.87217324  0.38211308  1
  O  O186  1  0.88185077  0.88161589  0.87256909  1
  O  O187  1  0.25315698  0.00831173  0.37024081  1
  O  O188  1  0.24026954  -0.02243182  0.87102272  1
  O  O189  1  0.25571120  0.50352071  0.36654144  1
  O  O190  1  0.25456049  0.50506759  0.86913636  1
  O  O191  1  0.74924578  0.01171224  0.37326226  1
  O  O192  1  0.75459109  -0.00075939  0.87145005  1
  O  O193  1  0.74536263  0.51111384  0.36257421  1
  O  O194  1  0.75705413  0.51332718  0.88454372  1
  O  O195  1  0.24988926  0.49130866  0.13230309  1
  O  O196  1  0.25534915  0.49223525  0.63418145  1
  O  O197  1  0.23956893  0.99805486  0.13274986  1
  O  O198  1  0.25174435  0.98705847  0.61727042  1
  O  O199  1  0.74593140  0.49396181  0.12735087  1
  O  O200  1  0.74750404  0.49711897  0.62252034  1
  O  O201  1  0.74499921  0.98422024  0.12575355  1
  O  O202  1  0.74434592  0.99954670  0.63483426  1
  O  O203  1  0.00087381  0.36832981  0.25280998  1
  O  O204  1  0.01618953  0.38831848  0.74499546  1
  O  O205  1  0.00063382  0.85664932  0.24078423  1
  O  O206  1  -0.00303328  0.86961261  0.76136259  1
  O  O207  1  0.49915901  0.36390387  0.25593747  1
  O  O208  1  0.50705277  0.38722726  0.76316154  1
  O  O209  1  0.49329572  0.86572854  0.26242845  1
  O  O210  1  0.50789914  0.86847789  0.75919474  1
  O  O211  1  0.49256405  0.13709562  0.25501115  1
  O  O212  1  0.49681630  0.13013846  0.74676138  1
  O  O213  1  0.49559172  0.63115920  0.24419178  1
  O  O214  1  0.49580796  0.62968018  0.74461398  1
  O  O215  1  0.98706397  0.12690819  0.24783223  1
  O  O216  1  0.98609825  0.11911413  0.75111273  1
  O  O217  1  1.00628952  0.62719706  0.23271023  1
  O  O218  1  0.99582857  0.63105835  0.73998226  1
  O  O219  1  0.36501349  0.25805660  0.00087637  1
  O  O220  1  0.36302722  0.25358384  0.50489484  1
  O  O221  1  0.36794214  0.74667085  0.00869512  1
  O  O222  1  0.36953486  0.75617465  0.50254745  1
  O  O223  1  0.86399118  0.24328822  0.01539028  1
  O  O224  1  0.86926323  0.26502266  0.49609107  1
  O  O225  1  0.86286040  0.74676186  -0.00579978  1
  O  O226  1  0.87260165  0.76073776  0.50430729  1
  O  O227  1  0.13925014  0.25719402  0.48845463  1
  O  O228  1  0.15288366  0.24191020  1.02867784  1
  O  O229  1  0.12806171  0.74167943  0.48548904  1
  O  O230  1  0.13180476  0.74285131  0.99495075  1
  O  O231  1  0.63581688  0.26304528  0.49200742  1
  O  O232  1  0.63100364  0.25178127  0.99139298  1
  O  O233  1  0.63581036  0.74546106  0.49918369  1
  O  O234  1  0.62912439  0.74457459  0.98769693  1
  O  O235  1  0.50325814  0.25589920  0.14023098  1
  O  O236  1  0.49220203  0.25097008  0.62153774  1
  O  O237  1  0.49579725  0.74766385  0.13050062  1
  O  O238  1  0.49553296  0.74520622  0.62987990  1
  O  O239  1  0.98919478  0.24282748  0.12932034  1
  O  O240  1  0.99405238  0.24036432  0.61280715  1
  O  O241  1  1.00627828  0.73637458  0.13399192  1
  O  O242  1  0.99537962  0.74420372  0.62518451  1
  O  O243  1  0.00680535  0.25422834  0.36949715  1
  O  O244  1  0.03175193  0.23239521  0.95513671  1
  O  O245  1  0.01468378  0.74322059  0.35865867  1
  O  O246  1  0.00581850  0.75664043  0.87197244  1
  O  O247  1  0.50005547  0.25971875  0.37092102  1
  O  O248  1  0.50644980  0.26355810  0.88021991  1
  O  O249  1  0.50258427  0.75880014  0.36664118  1
  O  O250  1  0.50973636  0.75294121  0.86846230  1
  O  O251  1  0.25522110  0.13412185  0.48433492  1
  O  O252  1  0.24733416  0.13440241  1.00027573  1
  O  O253  1  0.24397522  0.63001813  0.49449842  1
  O  O254  1  0.24413910  0.63114849  0.99705680  1
  O  O255  1  0.75995799  0.12334438  0.48840643  1
  O  O256  1  0.74338170  0.13790931  0.99983423  1
  O  O257  1  0.74458708  0.63182629  0.49291175  1
  O  O258  1  0.74516341  0.63570830  0.99360805  1
  O  O259  1  0.25719826  0.37074420  0.00940998  1
  O  O260  1  0.24960864  0.37220862  0.50322808  1
  O  O261  1  0.25272831  0.85745617  0.00584752  1
  O  O262  1  0.25770569  0.87000050  0.50401252  1
  O  O263  1  0.74631912  0.36267295  0.00944908  1
  O  O264  1  0.76751215  0.38681649  0.48892475  1
  O  O265  1  0.74729654  0.86018161  0.00204517  1
  O  O266  1  0.76165454  0.86902631  0.50052135  1
  O  O267  1  0.13931522  0.49836415  0.24761576  1
  O  O268  1  0.13724195  0.50460489  0.75106960  1
  O  O269  1  0.13387020  1.00730596  0.24284136  1
  O  O270  1  0.12702611  0.99759481  0.75152393  1
  O  O271  1  0.62972356  0.50062726  0.23607775  1
  O  O272  1  0.62556810  0.49139291  0.75317603  1
  O  O273  1  0.62665698  0.99415076  0.23824826  1
  O  O274  1  0.63131079  0.99356649  0.74835515  1
  O  O275  1  0.36950638  0.00774393  0.25732304  1
  O  O276  1  0.36762820  -0.00314231  0.75905764  1
  O  O277  1  0.36759722  0.50500256  0.25214561  1
  O  O278  1  0.36699512  0.50355452  0.75610515  1
  O  O279  1  0.87062747  0.01071510  0.24673755  1
  O  O280  1  0.86821791  0.00392105  0.76100061  1
  O  O281  1  0.86516834  0.49957094  0.24246538  1
  O  O282  1  0.88297596  0.51505879  0.75496572  1
  O  O283  1  0.11516928  0.36395203  0.36859800  1
  O  O284  1  0.12470730  0.38021192  0.86062610  1
  O  O285  1  0.13176100  0.85802264  0.37446565  1
  O  O286  1  0.12276511  0.87392528  0.86761415  1
  O  O287  1  0.60970794  0.38264950  0.36838609  1
  O  O288  1  0.61838010  0.36804200  0.86539993  1
  O  O289  1  0.61506221  0.87352356  0.38081011  1
  O  O290  1  0.61857859  0.86754478  0.86731164  1
  O  O291  1  0.36979408  0.11784541  0.13877994  1
  O  O292  1  0.36863818  0.14352707  0.62921751  1
  O  O293  1  0.38286453  0.63359771  0.12804648  1
  O  O294  1  0.38039697  0.63147551  0.62825008  1
  O  O295  1  0.87533087  0.12848109  0.13537496  1
  O  O296  1  0.87314034  0.12271093  0.64393254  1
  O  O297  1  0.88660902  0.62565165  0.12138855  1
  O  O298  1  0.88245885  0.63655936  0.62827875  1
  O  O299  1  0.25781691  0.26029778  0.13361463  1
  O  O300  1  0.25601737  0.26169683  0.61365016  1
  O  O301  1  0.25817999  0.74656487  0.12017175  1
  O  O302  1  0.25577976  0.75729003  0.61611265  1
  O  O303  1  0.75193944  0.25593592  0.12359224  1
  O  O304  1  0.76525250  0.26684964  0.62212750  1
  O  O305  1  0.74485267  0.75832236  0.11007771  1
  O  O306  1  0.75965193  0.74977876  0.61201805  1
  O  O307  1  0.24475235  0.24586726  0.37702820  1
  O  O308  1  0.24208656  0.25941525  0.89715191  1
  O  O309  1  0.24374717  0.74455381  0.37636006  1
  O  O310  1  0.24705640  0.74295269  0.88250176  1
  O  O311  1  0.74743094  0.23284223  0.37289683  1
  O  O312  1  0.74021767  0.25050371  0.88480494  1
  O  O313  1  0.74990915  0.74332881  0.38359693  1
  O  O314  1  0.74553640  0.74365703  0.88283500  1
  O  O315  1  -0.00557470  0.10332279  0.01147018  1
  O  O316  1  -0.01226366  0.10711916  0.49521899  1
  O  O317  1  0.00622188  0.62260495  0.00996726  1
  O  O318  1  0.00722157  0.62331649  0.50154877  1
  O  O319  1  0.50829188  0.13080844  -0.00022444  1
  O  O320  1  0.49549329  0.11153491  0.49564101  1
  O  O321  1  0.50759852  0.61944500  0.00548369  1
  O  O322  1  0.50762724  0.62270195  0.50210482  1
  O  O323  1  0.49701492  0.38745736  0.49197537  1
  O  O324  1  0.49341726  0.38027190  0.99463980  1
  O  O325  1  0.49459122  0.87954152  0.49298833  1
  O  O326  1  0.50028975  0.86536599  0.98516092  1
  O  O327  1  0.99676557  0.38630284  0.48926681  1
  O  O328  1  0.99856519  0.39385962  1.00776915  1
  O  O329  1  0.98622360  0.87752167  0.49841849  1
  O  O330  1  1.00543862  0.88082953  0.98871631  1
  O  O331  1  0.49451994  0.49800763  0.37896484  1
  O  O332  1  0.49449346  0.49482800  0.88381402  1
  O  O333  1  0.49851015  0.99418832  0.38275205  1
  O  O334  1  0.50551828  0.98314644  0.87940399  1
  O  O335  1  1.00721549  0.49163000  0.37818486  1
  O  O336  1  0.99097722  0.50924590  0.88847819  1
  O  O337  1  0.99951293  0.99639963  0.38580511  1
  O  O338  1  0.99111255  0.99023707  0.88357875  1
  O  O339  1  0.00111279  -0.00318510  0.12180498  1
  O  O340  1  0.00049055  0.00135184  0.61058105  1
  O  O341  1  0.00018548  0.51084352  0.11493198  1
  O  O342  1  0.00063887  0.51826066  0.61210185  1
  O  O343  1  0.51208743  -0.01361534  0.12427813  1
  O  O344  1  0.50201644  -0.00248367  0.61234834  1
  O  O345  1  0.50841034  0.50349538  0.12104360  1
  O  O346  1  0.49885463  0.50809331  0.61554213  1
  O  O347  1  0.25219559  0.38160767  0.24389159  1
  O  O348  1  0.23817880  0.38052619  0.74074110  1
  O  O349  1  0.25743280  0.89065121  0.25179461  1
  O  O350  1  0.24657158  0.86769693  0.74238569  1
  O  O351  1  0.74861059  0.38277036  0.24376185  1
  O  O352  1  0.73057916  0.37114886  0.75331387  1
  O  O353  1  0.75374540  0.86867531  0.23527606  1
  O  O354  1  0.74362485  0.88501590  0.75099661  1
  O  O355  1  0.25636737  0.11898068  0.25844144  1
  O  O356  1  0.26155417  0.17441574  0.75293662  1
  O  O357  1  0.25764809  0.61650113  0.25197396  1
  O  O358  1  0.25551634  0.61778445  0.75245778  1
  O  O359  1  0.76024156  0.12053428  0.25733362  1
  O  O360  1  0.75868579  0.11340962  0.75740562  1
  O  O361  1  0.74782185  0.61807538  0.25921360  1
  O  O362  1  0.76004092  0.63340113  0.75951813  1
  O  O363  1  0.36696046  0.11988454  0.36767430  1
  O  O364  1  0.37281307  0.12240217  0.86673954  1
  O  O365  1  0.36923666  0.62129815  0.36857147  1
  O  O366  1  0.36911561  0.61984230  0.86963028  1
  O  O367  1  0.86745275  0.12882252  0.36153915  1
  O  O368  1  0.87357833  0.11584195  0.86825869  1
  O  O369  1  0.86583793  0.62788426  0.38138891  1
  O  O370  1  0.86886463  0.62078289  0.86487105  1
  O  O371  1  0.13489387  0.37594939  0.12527090  1
  O  O372  1  0.13525336  0.37507426  0.62697420  1
  O  O373  1  0.12660627  0.88882402  0.11874224  1
  O  O374  1  0.13760215  0.87576998  0.62120947  1
  O  O375  1  0.63583620  0.38218908  0.12650209  1
  O  O376  1  0.61575776  0.38192471  0.64366219  1
  O  O377  1  0.63896101  0.88431227  0.12048686  1
  O  O378  1  0.62812927  0.86963353  0.64009489  1
  O  O379  1  0.11530324  0.24826382  0.25464657  1
  O  O380  1  0.11634807  0.26304963  0.75162999  1
  O  O381  1  0.12268632  0.74547392  0.25801820  1
  O  O382  1  0.11837607  0.74214337  0.76026139  1
  O  O383  1  0.61213467  0.24982632  0.25648050  1
  O  O384  1  0.61285960  0.25573543  0.75105419  1
  O  O385  1  0.61287716  0.74421127  0.24886054  1
  O  O386  1  0.62500447  0.75469058  0.75964813  1
  O  O387  1  0.38886569  0.24121842  0.25376032  1
  O  O388  1  0.38469647  0.27259416  0.73110451  1
  O  O389  1  0.38337407  0.74418918  0.24356094  1
  O  O390  1  0.38161232  0.74063161  0.74301304  1
  O  O391  1  0.87805848  0.24005687  0.24010772  1
  O  O392  1  0.87153832  0.23449470  0.75582003  1
  O  O393  1  0.89274682  0.74405976  0.25314737  1
  O  O394  1  0.88247265  0.74133344  0.74287198  1
  O  O395  1  0.38656513  0.50494768  0.49267569  1
  O  O396  1  0.37989117  0.49484247  0.99437770  1
  O  O397  1  0.38449594  0.99610661  0.49577847  1
  O  O398  1  0.37621298  0.99294564  0.99371952  1
  O  O399  1  0.89106045  0.49968477  0.49639418  1
  O  O400  1  0.88657738  0.50680326  0.98998166  1
  O  O401  1  0.88118158  0.98327238  0.50178907  1
  O  O402  1  0.87720741  1.00180896  0.98980017  1
  O  O403  1  0.10974343  0.00758382  0.01088750  1
  O  O404  1  0.10732156  -0.00906749  0.49731889  1
  O  O405  1  0.11354616  0.50684513  -0.00237300  1
  O  O406  1  0.11739797  0.51476258  0.49171053  1
  O  O407  1  0.62015882  0.00209380  0.01314382  1
  O  O408  1  0.61170116  -0.00194217  0.50783559  1
  O  O409  1  0.62275877  0.50333435  0.00950726  1
  O  O410  1  0.61301027  0.50946290  0.49931797  1
  O  O411  1  0.36878425  0.38202959  0.11137555  1
  O  O412  1  0.36308269  0.37004479  0.61754320  1
  O  O413  1  0.37279780  0.86076080  0.12467950  1
  O  O414  1  0.36986756  0.86819346  0.61857168  1
  O  O415  1  0.86263277  0.36487637  0.12812132  1
  O  O416  1  0.88048059  0.38081784  0.61007552  1
  O  O417  1  0.85847635  0.87576899  0.11807914  1
  O  O418  1  0.87348351  0.86260430  0.62843848  1
  O  O419  1  0.13269188  0.13792320  0.36971758  1
  O  O420  1  0.12364396  0.11861439  0.89364167  1
  O  O421  1  0.13347761  0.63219796  0.37827524  1
  O  O422  1  0.12979848  0.62862377  0.88616936  1
  O  O423  1  0.63918155  0.12219841  0.37311395  1
  O  O424  1  0.62608768  0.13977327  0.87010455  1
  O  O425  1  0.62819366  0.62977428  0.38648215  1
  O  O426  1  0.63300840  0.63083207  0.87723643  1
