# generated using pymatgen
data_V85Zn86O256
_symmetry_space_group_name_H-M   'P 1'
_cell_length_a   16.95160377
_cell_length_b   16.95882951
_cell_length_c   16.95046305
_cell_angle_alpha   90.04085590
_cell_angle_beta   89.94196360
_cell_angle_gamma   90.00782029
_symmetry_Int_Tables_number   1
_chemical_formula_structural   V85Zn86O256
_chemical_formula_sum   'V85 Zn86 O256'
_cell_volume   4872.90445631
_cell_formula_units_Z   1
loop_
 _symmetry_equiv_pos_site_id
 _symmetry_equiv_pos_as_xyz
  1  'x, y, z'
loop_
 _atom_site_type_symbol
 _atom_site_label
 _atom_site_symmetry_multiplicity
 _atom_site_fract_x
 _atom_site_fract_y
 _atom_site_fract_z
 _atom_site_occupancy
  V  V0  1  0.24936536  0.36827580  0.12123298  1
  V  V1  1  0.62294177  0.49443062  0.62864825  1
  V  V2  1  0.74973050  0.24915664  -0.00112900  1
  V  V3  1  0.62371739  0.12539761  0.50004723  1
  V  V4  1  0.12693530  0.12796029  -0.00029870  1
  V  V5  1  0.75080316  0.24910148  0.49719261  1
  V  V6  1  0.24837914  0.62507656  0.87143822  1
  V  V7  1  0.50328291  0.37535216  0.88206043  1
  V  V8  1  0.24872829  0.25210473  0.49332167  1
  V  V9  1  0.24931821  0.24749779  -0.01241802  1
  V  V10  1  0.12547119  -0.00258304  0.12989348  1
  V  V11  1  0.62471109  0.00745089  0.63284401  1
  V  V12  1  0.50356217  0.00037781  0.01026286  1
  V  V13  1  0.00630656  0.86506589  0.37146894  1
  V  V14  1  0.62414955  0.24780581  0.37583880  1
  V  V15  1  0.62833489  0.25520321  0.86510185  1
  V  V16  1  0.37926302  0.49239640  0.88490029  1
  V  V17  1  0.37455511  0.87713399  -0.00020494  1
  V  V18  1  -0.00207436  0.50103022  0.50016358  1
  V  V19  1  0.75035191  0.50176954  0.25409627  1
  V  V20  1  0.37586268  0.24593591  0.11823267  1
  V  V21  1  0.74239507  0.00627931  0.25277500  1
  V  V22  1  0.75612892  0.11632025  0.86679303  1
  V  V23  1  0.37578747  0.62281434  0.74422582  1
  V  V24  1  0.87751246  0.37362479  -0.00094310  1
  V  V25  1  0.75375575  0.37267632  0.62307515  1
  V  V26  1  0.24827900  0.49573915  0.74882760  1
  V  V27  1  0.37249926  -0.00308030  0.37856448  1
  V  V28  1  0.12327178  0.49564391  0.12453875  1
  V  V29  1  0.74758334  0.37568897  0.12536128  1
  V  V30  1  0.24461611  0.49831254  0.25115407  1
  V  V31  1  0.87248175  0.00132101  0.37324806  1
  V  V32  1  0.86232140  0.74873871  0.62486997  1
  V  V33  1  0.24873735  -0.00418542  0.75465418  1
  V  V34  1  0.25020260  0.75218579  -0.00009291  1
  V  V35  1  0.62882657  0.75420016  0.38176028  1
  V  V36  1  0.49836157  0.24838881  0.25382487  1
  V  V37  1  0.12388956  0.63861546  0.49828917  1
  V  V38  1  0.50153963  0.75253310  0.74510318  1
  V  V39  1  0.74540778  0.49076626  0.75268530  1
  V  V40  1  -0.00053325  0.62883342  0.62993283  1
  V  V41  1  -0.00350053  0.49799216  0.00062783  1
  V  V42  1  0.24936825  0.37448917  0.62551222  1
  V  V43  1  -0.00373867  -0.00896945  -0.00181242  1
  V  V44  1  0.12200853  0.12351478  0.50649699  1
  V  V45  1  0.25398649  0.87265212  0.12739846  1
  V  V46  1  0.74393376  0.62130944  0.87858828  1
  V  V47  1  0.49202963  0.75480437  0.24924500  1
  V  V48  1  0.24573194  0.63024092  0.37170492  1
  V  V49  1  0.49594966  0.87551875  0.38329156  1
  V  V50  1  0.24690948  0.12483645  0.37202987  1
  V  V51  1  0.87719046  0.62819041  0.75297719  1
  V  V52  1  0.37590270  0.75590167  0.61391123  1
  V  V53  1  0.11943117  0.76177056  0.86565377  1
  V  V54  1  0.87944451  0.25036447  0.13304467  1
  V  V55  1  0.88589379  0.24807877  0.63125668  1
  V  V56  1  0.87507299  0.49721993  0.87402607  1
  V  V57  1  0.75282599  0.63117760  0.38397411  1
  V  V58  1  0.49631329  0.00429095  0.50666639  1
  V  V59  1  0.37834716  0.37582575  0.49314592  1
  V  V60  1  0.38251190  0.12413213  0.74404240  1
  V  V61  1  0.50481547  0.49757440  0.49576669  1
  V  V62  1  0.62760607  0.12182852  0.00545282  1
  V  V63  1  0.24896836  0.87803596  0.61696411  1
  V  V64  1  0.50082067  0.87918182  0.87448784  1
  V  V65  1  0.88512320  0.50121160  0.37619446  1
  V  V66  1  0.62253314  0.37572929  0.25618003  1
  V  V67  1  0.93304215  0.33437033  0.44505183  1
  V  V68  1  0.74593748  0.88140565  0.62694083  1
  V  V69  1  0.07082222  0.20040605  0.81813548  1
  V  V70  1  0.43043263  0.57922965  0.20186356  1
  V  V71  1  0.01361986  0.37528175  0.86189039  1
  V  V72  1  0.88055933  0.63359835  0.25117697  1
  V  V73  1  0.86860670  0.87045747  0.49853103  1
  V  V74  1  0.12126857  0.62527408  -0.00241046  1
  V  V75  1  0.87942062  0.75348245  0.12699405  1
  V  V76  1  -0.00110655  -0.00108923  0.50494110  1
  V  V77  1  0.38447956  0.24614507  0.62072757  1
  V  V78  1  0.74761949  0.88120418  0.12378445  1
  V  V79  1  0.37495497  0.00984890  0.87645391  1
  V  V80  1  0.00043177  0.12627525  0.13455122  1
  V  V81  1  0.12526162  0.49940904  0.62664900  1
  V  V82  1  0.10871190  0.37092079  0.25657717  1
  V  V83  1  0.37821822  0.50325881  0.37497180  1
  V  V84  1  0.62293175  0.74822512  0.87793140  1
  Zn  Zn85  1  0.62255367  0.87924735  0.24899140  1
  Zn  Zn86  1  0.24989235  0.75605950  0.49219267  1
  Zn  Zn87  1  0.59870796  0.62106060  0.01325984  1
  Zn  Zn88  1  0.42606856  0.70772479  0.08144083  1
  Zn  Zn89  1  0.88867639  0.12689590  0.74618403  1
  Zn  Zn90  1  0.37491681  0.12371170  0.25069308  1
  Zn  Zn91  1  0.24837617  -0.00368042  0.25278774  1
  Zn  Zn92  1  0.10540808  0.24980240  0.37305266  1
  Zn  Zn93  1  0.50460748  0.25383108  0.74644954  1
  Zn  Zn94  1  0.12050283  -0.00042946  0.63016895  1
  Zn  Zn95  1  0.87475021  0.12735291  0.25469145  1
  Zn  Zn96  1  0.63000992  0.62824000  0.50448851  1
  Zn  Zn97  1  0.50307660  0.62390654  0.62266719  1
  Zn  Zn98  1  0.87458414  -0.01456968  0.86358110  1
  Zn  Zn99  1  0.00370692  0.62912436  0.13107192  1
  Zn  Zn100  1  0.50360605  0.12195312  0.12893331  1
  Zn  Zn101  1  0.60716111  0.50585811  0.12687142  1
  Zn  Zn102  1  0.74810177  0.75203061  0.00276657  1
  Zn  Zn103  1  0.62669171  0.88350820  0.75168322  1
  Zn  Zn104  1  0.87825804  0.86842278  -0.01134427  1
  Zn  Zn105  1  0.12557149  0.85684150  0.25196465  1
  Zn  Zn106  1  -0.03283558  0.81961795  0.80212103  1
  Zn  Zn107  1  0.18400926  0.19022854  0.18873876  1
  Zn  Zn108  1  0.20205524  0.18108404  0.68479632  1
  Zn  Zn109  1  0.19420067  0.68390461  0.18259371  1
  Zn  Zn110  1  0.18891798  0.69018828  0.68441549  1
  Zn  Zn111  1  0.68856549  0.18730692  0.18707249  1
  Zn  Zn112  1  0.69089673  0.18616237  0.68450768  1
  Zn  Zn113  1  0.68624255  0.69660901  0.19647755  1
  Zn  Zn114  1  0.68678848  0.68247710  0.68974645  1
  Zn  Zn115  1  0.31148015  0.31366326  0.31062213  1
  Zn  Zn116  1  0.31655609  0.31345076  0.80884650  1
  Zn  Zn117  1  0.31423107  0.81374043  0.31212080  1
  Zn  Zn118  1  0.31303335  0.81549515  0.81135902  1
  Zn  Zn119  1  0.80545547  0.30947074  0.31092693  1
  Zn  Zn120  1  0.81650856  0.31089669  0.81223675  1
  Zn  Zn121  1  0.81110209  0.81651789  0.31089620  1
  Zn  Zn122  1  0.80082820  0.81241085  0.80874525  1
  Zn  Zn123  1  0.18172607  0.44127931  0.43553131  1
  Zn  Zn124  1  0.18981855  0.43492596  0.93733935  1
  Zn  Zn125  1  0.18591837  0.93593273  0.44127955  1
  Zn  Zn126  1  0.18537418  0.93932636  0.93824626  1
  Zn  Zn127  1  0.69121229  0.43485455  0.43770512  1
  Zn  Zn128  1  0.67901405  0.43929898  0.94450443  1
  Zn  Zn129  1  0.68642900  0.93890566  0.43908911  1
  Zn  Zn130  1  0.68746210  0.93797412  0.93958485  1
  Zn  Zn131  1  0.31064391  0.06535524  0.06345680  1
  Zn  Zn132  1  0.31202371  0.06395887  0.56117534  1
  Zn  Zn133  1  0.30476143  0.55902147  0.05940833  1
  Zn  Zn134  1  0.31206245  0.56485236  0.55918929  1
  Zn  Zn135  1  0.81513910  0.06138353  0.06316928  1
  Zn  Zn136  1  0.81048698  0.06514178  0.56264835  1
  Zn  Zn137  1  0.76681094  0.58665275  0.08642543  1
  Zn  Zn138  1  0.81354530  0.55817590  0.56380349  1
  Zn  Zn139  1  0.43421056  0.41471866  0.18868874  1
  Zn  Zn140  1  0.43915614  0.43178930  0.69050711  1
  Zn  Zn141  1  0.43342326  0.93608993  0.19222948  1
  Zn  Zn142  1  0.43639605  0.93548231  0.68553145  1
  Zn  Zn143  1  0.93381392  0.44266813  0.18639706  1
  Zn  Zn144  1  0.93340836  0.43716668  0.68549838  1
  Zn  Zn145  1  0.93583936  0.93684331  0.18943331  1
  Zn  Zn146  1  0.93146806  0.94414438  0.68493587  1
  Zn  Zn147  1  0.06195997  0.05768195  0.31674652  1
  Zn  Zn148  1  0.05669898  0.03723951  0.80908649  1
  Zn  Zn149  1  0.06207478  0.68538974  0.31310079  1
  Zn  Zn150  1  0.06370004  0.56174459  0.81229233  1
  Zn  Zn151  1  0.56322775  0.06488219  0.31839374  1
  Zn  Zn152  1  0.56171129  0.06996096  0.81808550  1
  Zn  Zn153  1  0.56955655  0.56280142  0.32019194  1
  Zn  Zn154  1  0.56056071  0.56067659  0.81184555  1
  Zn  Zn155  1  0.43874527  0.18424479  0.43534411  1
  Zn  Zn156  1  0.44067971  0.18849766  0.93728925  1
  Zn  Zn157  1  0.43972057  0.68181469  0.43464003  1
  Zn  Zn158  1  0.43749465  0.68341938  0.92283978  1
  Zn  Zn159  1  0.93147670  0.17175988  0.44433636  1
  Zn  Zn160  1  0.93677701  0.18360951  0.94699128  1
  Zn  Zn161  1  0.93320447  0.68898722  0.44596438  1
  Zn  Zn162  1  0.93482328  0.68708077  0.94199355  1
  Zn  Zn163  1  0.06327574  0.31083452  0.06078254  1
  Zn  Zn164  1  0.07168332  0.30908970  0.56965452  1
  Zn  Zn165  1  0.06566988  0.80927238  0.06732307  1
  Zn  Zn166  1  0.04230537  0.82988637  0.60578705  1
  Zn  Zn167  1  0.56262251  0.31426870  0.06244492  1
  Zn  Zn168  1  0.56482246  0.31837917  0.56114574  1
  Zn  Zn169  1  0.56956378  0.81631336  0.06125539  1
  Zn  Zn170  1  0.56329996  0.81671370  0.56085228  1
  O  O171  1  0.11938978  0.11826017  0.11962326  1
  O  O172  1  0.13675543  0.12172680  0.60988240  1
  O  O173  1  0.12628284  0.61573455  0.11040749  1
  O  O174  1  0.11584135  0.62003845  0.62262986  1
  O  O175  1  0.62440902  0.13132450  0.10976223  1
  O  O176  1  0.62897768  0.12040851  0.61297816  1
  O  O177  1  0.65579070  0.61889687  0.12102291  1
  O  O178  1  0.62629833  0.61060459  0.62194265  1
  O  O179  1  0.36725892  0.38626343  0.38554677  1
  O  O180  1  0.37767479  0.38824551  0.87532601  1
  O  O181  1  0.38186520  0.88434210  0.37461076  1
  O  O182  1  0.38200122  0.88492854  0.88000524  1
  O  O183  1  0.86966959  0.38327126  0.37571807  1
  O  O184  1  0.88300259  0.37926719  0.88062825  1
  O  O185  1  0.88159917  0.88032585  0.38187997  1
  O  O186  1  0.88001000  0.86743765  0.86912157  1
  O  O187  1  0.25503279  0.00650557  0.37675560  1
  O  O188  1  0.25887584  -0.00756916  0.86324567  1
  O  O189  1  0.25461390  0.50537712  0.36729515  1
  O  O190  1  0.25805724  0.50181483  0.86673694  1
  O  O191  1  0.75711073  -0.00862405  0.36118481  1
  O  O192  1  0.75451043  0.01293806  0.88033278  1
  O  O193  1  0.75890650  0.50473559  0.36935297  1
  O  O194  1  0.75243650  0.50306686  0.86894249  1
  O  O195  1  0.24481644  0.48909600  0.12989125  1
  O  O196  1  0.24812303  0.49383131  0.62914698  1
  O  O197  1  0.24201143  0.99250080  0.12599358  1
  O  O198  1  0.25576107  0.98919359  0.63074016  1
  O  O199  1  0.76234343  0.48843544  0.14534656  1
  O  O200  1  0.74605753  0.49180397  0.63166542  1
  O  O201  1  0.75845332  0.98974499  0.13655401  1
  O  O202  1  0.73791455  0.99417832  0.61926780  1
  O  O203  1  0.01052818  0.37958952  0.24651545  1
  O  O204  1  -0.00181480  0.38117854  0.76316326  1
  O  O205  1  0.00069551  0.87819360  0.26884806  1
  O  O206  1  0.00941182  0.86826636  0.71332256  1
  O  O207  1  0.50925772  0.35890232  0.25236127  1
  O  O208  1  0.49029129  0.36748007  0.76801073  1
  O  O209  1  0.50120324  0.86942605  0.26150244  1
  O  O210  1  0.50263843  0.86786983  0.75516801  1
  O  O211  1  0.50240108  0.13537908  0.24875014  1
  O  O212  1  0.48747978  0.13154599  0.75425436  1
  O  O213  1  0.50198604  0.63675241  0.25581455  1
  O  O214  1  0.49195267  0.63181799  0.74584876  1
  O  O215  1  0.99914077  0.11955535  0.23851472  1
  O  O216  1  1.01303459  0.13671252  0.76160444  1
  O  O217  1  0.98444158  0.62175017  0.24967099  1
  O  O218  1  0.98752212  0.61577395  0.74323730  1
  O  O219  1  0.36463462  0.23803022  0.00843951  1
  O  O220  1  0.37105399  0.25716559  0.50081732  1
  O  O221  1  0.36559548  0.75924540  -0.00643501  1
  O  O222  1  0.37388755  0.74019354  0.51188355  1
  O  O223  1  0.86488233  0.25244264  0.00861413  1
  O  O224  1  0.87008465  0.25791754  0.50130395  1
  O  O225  1  0.86862456  0.75180383  0.00942796  1
  O  O226  1  0.87080917  0.75857591  0.51048867  1
  O  O227  1  0.13310756  0.24406069  0.49522967  1
  O  O228  1  0.13360587  0.23883869  1.00470556  1
  O  O229  1  0.12731245  0.73797996  0.51226239  1
  O  O230  1  0.12991252  0.74203984  0.99263948  1
  O  O231  1  0.62867104  0.24635490  0.49518029  1
  O  O232  1  0.63714862  0.24590145  0.99441980  1
  O  O233  1  0.61755055  0.74692342  0.48722336  1
  O  O234  1  0.62827227  0.74629869  0.98999968  1
  O  O235  1  0.49194039  0.24880546  0.13163410  1
  O  O236  1  0.48772387  0.25981550  0.62435910  1
  O  O237  1  0.50573117  0.76245070  0.14311838  1
  O  O238  1  0.49421291  0.75012744  0.62962045  1
  O  O239  1  0.99000855  0.23996876  0.11739513  1
  O  O240  1  0.98459542  0.25769671  0.62086603  1
  O  O241  1  0.98515911  0.74625659  0.11916074  1
  O  O242  1  0.98311414  0.73219639  0.61844171  1
  O  O243  1  -0.01251371  0.26085140  0.39139217  1
  O  O244  1  0.00260258  0.25930311  0.87624943  1
  O  O245  1  -0.00327396  0.76079069  0.38048315  1
  O  O246  1  0.01362307  0.74575698  0.87744310  1
  O  O247  1  0.51299227  0.24641467  0.36904690  1
  O  O248  1  0.51229217  0.25482241  0.87542019  1
  O  O249  1  0.50300335  0.75736648  0.37011357  1
  O  O250  1  0.50798206  0.75613940  0.86465498  1
  O  O251  1  0.24536047  0.13254753  0.48950889  1
  O  O252  1  0.23540292  0.12943912  1.00167459  1
  O  O253  1  0.23988236  0.62411440  0.49081021  1
  O  O254  1  0.24297273  0.63271014  0.99205795  1
  O  O255  1  0.74375385  0.14133351  0.50314803  1
  O  O256  1  0.74673936  0.13109877  0.99501713  1
  O  O257  1  0.75204586  0.61832324  0.48756004  1
  O  O258  1  0.75912021  0.62904102  0.98069364  1
  O  O259  1  0.24055632  0.36549943  0.01372933  1
  O  O260  1  0.25460198  0.36927752  0.50206373  1
  O  O261  1  0.25347399  0.86972108  0.00441797  1
  O  O262  1  0.25453279  0.87375675  0.51071746  1
  O  O263  1  0.75708570  0.36710374  0.00406514  1
  O  O264  1  0.74605590  0.36259661  0.50960874  1
  O  O265  1  0.75465410  0.87718757  0.01162302  1
  O  O266  1  0.76060732  0.88074066  0.50842311  1
  O  O267  1  0.13336744  0.48490796  0.24048390  1
  O  O268  1  0.14061659  0.50672952  0.74386848  1
  O  O269  1  0.12514699  0.99695989  0.23808387  1
  O  O270  1  0.14369164  1.00336578  0.74692032  1
  O  O271  1  0.63270736  0.49323729  0.25085208  1
  O  O272  1  0.63464958  0.50436525  0.74248672  1
  O  O273  1  0.63817021  1.00031197  0.25567391  1
  O  O274  1  0.61472836  1.00541971  0.73637903  1
  O  O275  1  0.37143838  0.00336680  0.26374796  1
  O  O276  1  0.37367629  0.00450111  0.75681588  1
  O  O277  1  0.37099866  0.49911767  0.25566154  1
  O  O278  1  0.36643191  0.50730197  0.75131722  1
  O  O279  1  0.86666854  0.00032677  0.25810925  1
  O  O280  1  0.88759884  0.01530024  0.75542471  1
  O  O281  1  0.86954634  0.50694490  0.26009752  1
  O  O282  1  0.86555043  0.50676248  0.75477310  1
  O  O283  1  0.12615093  0.37356495  0.36054553  1
  O  O284  1  0.11269837  0.37826685  0.87391833  1
  O  O285  1  0.11001318  0.87586434  0.37652494  1
  O  O286  1  0.12667540  0.86123914  0.87636567  1
  O  O287  1  0.62930125  0.36851936  0.36319386  1
  O  O288  1  0.61971849  0.36624790  0.87719325  1
  O  O289  1  0.61677913  0.87034288  0.37502070  1
  O  O290  1  0.62081197  0.86751813  0.87256148  1
  O  O291  1  0.37653842  0.13313701  0.13102723  1
  O  O292  1  0.37378358  0.13517270  0.62854426  1
  O  O293  1  0.36351398  0.62485953  0.13496395  1
  O  O294  1  0.37466687  0.63137667  0.63364810  1
  O  O295  1  0.88386394  0.13283685  0.12498507  1
  O  O296  1  0.87264202  0.14378284  0.62141403  1
  O  O297  1  0.86594653  0.63585408  0.13650268  1
  O  O298  1  0.87555548  0.62963626  0.63325371  1
  O  O299  1  0.25561801  0.25241855  0.11964405  1
  O  O300  1  0.25974672  0.25663240  0.61145988  1
  O  O301  1  0.24797730  0.75702987  0.10877858  1
  O  O302  1  0.25857139  0.76192351  0.62526422  1
  O  O303  1  0.75561715  0.25634433  0.11805886  1
  O  O304  1  0.75640803  0.25726648  0.61850558  1
  O  O305  1  0.75817260  0.76526801  0.12779558  1
  O  O306  1  0.75667224  0.75396043  0.62874802  1
  O  O307  1  0.25207637  0.24457254  0.38401360  1
  O  O308  1  0.25595408  0.25865314  0.88872124  1
  O  O309  1  0.25804023  0.73484913  0.37431995  1
  O  O310  1  0.24343177  0.74706084  0.88232241  1
  O  O311  1  0.73697083  0.25315026  0.38320351  1
  O  O312  1  0.74605906  0.24600175  0.88229532  1
  O  O313  1  0.74235768  0.74355613  0.37117093  1
  O  O314  1  0.73436451  0.74122861  0.86996097  1
  O  O315  1  0.00865187  0.11506764  0.00982011  1
  O  O316  1  0.01106566  0.11329361  0.49626973  1
  O  O317  1  0.00695612  0.61579476  0.00056028  1
  O  O318  1  0.00504169  0.61805733  0.50697604  1
  O  O319  1  0.50965583  0.11704328  0.00061181  1
  O  O320  1  0.50908000  0.11575276  0.49670956  1
  O  O321  1  0.48840413  0.64242126  0.01129703  1
  O  O322  1  0.50210340  0.61017311  0.50305441  1
  O  O323  1  0.49107434  0.38659051  0.50093496  1
  O  O324  1  0.50048332  0.37022373  0.98449373  1
  O  O325  1  0.50206402  0.88530894  0.48951122  1
  O  O326  1  0.49663861  0.88194996  0.99550438  1
  O  O327  1  1.00430831  0.38396271  0.50583692  1
  O  O328  1  0.99636520  0.38002750  0.99226179  1
  O  O329  1  0.98746006  0.87910352  0.49793219  1
  O  O330  1  1.00062512  0.88880468  1.01021442  1
  O  O331  1  0.49130562  0.50307678  0.38161719  1
  O  O332  1  0.48637377  0.49475681  0.87064041  1
  O  O333  1  0.49335594  0.99422854  0.38238040  1
  O  O334  1  0.49391260  0.99714812  0.88398368  1
  O  O335  1  0.98700685  0.49819754  0.38470111  1
  O  O336  1  0.99803784  0.49055025  0.88016741  1
  O  O337  1  0.99227070  0.98853256  0.38427528  1
  O  O338  1  0.99855238  0.99637746  0.89393023  1
  O  O339  1  0.00580795  0.00511394  0.11907563  1
  O  O340  1  0.00242761  -0.00047768  0.60892471  1
  O  O341  1  0.00397566  0.50340257  0.11572965  1
  O  O342  1  0.00121084  0.50872847  0.62033449  1
  O  O343  1  0.49372342  -0.00026846  0.11410272  1
  O  O344  1  0.50569773  -0.00554487  0.61228781  1
  O  O345  1  0.48919148  0.50823896  0.14869166  1
  O  O346  1  0.50853192  0.49681157  0.62007948  1
  O  O347  1  0.24751415  0.38201204  0.24033363  1
  O  O348  1  0.25953871  0.38419151  0.73751592  1
  O  O349  1  0.24643347  0.87439505  0.24174361  1
  O  O350  1  0.26013366  0.88876239  0.73896666  1
  O  O351  1  0.74222106  0.38226696  0.24733253  1
  O  O352  1  0.75469491  0.38507412  0.74478513  1
  O  O353  1  0.74807046  0.88642462  0.24116683  1
  O  O354  1  0.74365908  0.87542831  0.73317071  1
  O  O355  1  0.24648350  0.12473835  0.26323840  1
  O  O356  1  0.26660121  0.10581311  0.74429419  1
  O  O357  1  0.24283943  0.60756837  0.25661370  1
  O  O358  1  0.25733643  0.61959490  0.75239560  1
  O  O359  1  0.75296930  0.10963344  0.24307484  1
  O  O360  1  0.75062864  0.12843589  0.76620455  1
  O  O361  1  0.75833255  0.61772894  0.26371919  1
  O  O362  1  0.75724507  0.61613750  0.76006587  1
  O  O363  1  0.36502483  0.11885877  0.37291456  1
  O  O364  1  0.37819921  0.11388605  0.86888936  1
  O  O365  1  0.36515198  0.61021887  0.37888196  1
  O  O366  1  0.36812288  0.61607016  0.86023881  1
  O  O367  1  0.87413341  0.10739089  0.37238317  1
  O  O368  1  0.86091085  0.13099658  0.87719418  1
  O  O369  1  0.87162590  0.62028867  0.37160987  1
  O  O370  1  0.87064484  0.61837406  0.86759631  1
  O  O371  1  0.12957329  0.37576715  0.13333721  1
  O  O372  1  0.14119628  0.38220067  0.62159565  1
  O  O373  1  0.13606104  0.88152204  0.12481886  1
  O  O374  1  0.14531060  0.87947898  0.62067519  1
  O  O375  1  0.62949481  0.37661058  0.13810546  1
  O  O376  1  0.63641752  0.38548067  0.62450902  1
  O  O377  1  0.64290125  0.87491012  0.12816210  1
  O  O378  1  0.63038547  0.88645553  0.62347094  1
  O  O379  1  0.12463173  0.26502716  0.25378217  1
  O  O380  1  0.13588371  0.24439951  0.75637562  1
  O  O381  1  0.11971050  0.74451238  0.23891563  1
  O  O382  1  0.13038619  0.74322125  0.76753107  1
  O  O383  1  0.62239033  0.25415081  0.25717387  1
  O  O384  1  0.62645860  0.24428717  0.76190679  1
  O  O385  1  0.61458941  0.75514548  0.26455373  1
  O  O386  1  0.61245557  0.74813676  0.75346749  1
  O  O387  1  0.38384233  0.24883487  0.24557024  1
  O  O388  1  0.37061826  0.24051850  0.73702532  1
  O  O389  1  0.39188154  0.74944032  0.25345715  1
  O  O390  1  0.38496237  0.74353029  0.74560994  1
  O  O391  1  0.86773406  0.24732067  0.23743266  1
  O  O392  1  0.87420506  0.24591474  0.73604971  1
  O  O393  1  0.87053148  0.74349970  0.24386288  1
  O  O394  1  0.87401150  0.74071359  0.74474354  1
  O  O395  1  0.38102228  0.49412604  0.49389900  1
  O  O396  1  0.36831276  0.50459177  0.98229691  1
  O  O397  1  0.38320961  1.00810535  0.48894554  1
  O  O398  1  0.37970550  0.99802298  0.99296859  1
  O  O399  1  0.88811501  0.50046385  0.49633726  1
  O  O400  1  0.88859492  0.49608027  0.99265598  1
  O  O401  1  0.87884054  0.99493587  0.49380306  1
  O  O402  1  0.88838494  0.99668108  0.99866262  1
  O  O403  1  0.11790161  0.00549444  0.00924626  1
  O  O404  1  0.11693773  0.00662183  0.50040019  1
  O  O405  1  0.11637962  0.50431479  0.00201083  1
  O  O406  1  0.11434633  0.50759111  0.50639487  1
  O  O407  1  0.61539916  0.00905037  -0.00469224  1
  O  O408  1  0.61818796  0.00911963  0.50506525  1
  O  O409  1  0.63183901  0.50962008  0.01447564  1
  O  O410  1  0.61870862  0.49793911  0.50552941  1
  O  O411  1  0.36325308  0.35770286  0.12397447  1
  O  O412  1  0.36648632  0.37184854  0.61124016  1
  O  O413  1  0.36177603  0.87968606  0.11852073  1
  O  O414  1  0.36670058  0.86530673  0.62592828  1
  O  O415  1  0.87187019  0.36774460  0.11882267  1
  O  O416  1  0.86304432  0.36549832  0.62728519  1
  O  O417  1  0.86726605  0.86847865  0.12587470  1
  O  O418  1  0.86461160  0.86781512  0.61786752  1
  O  O419  1  0.12966408  0.12883245  0.38248525  1
  O  O420  1  0.11580224  0.12995629  0.88047711  1
  O  O421  1  0.13197779  0.62582412  0.38530530  1
  O  O422  1  0.13048955  0.62701733  0.88418477  1
  O  O423  1  0.62607493  0.13302144  0.38880505  1
  O  O424  1  0.63789919  0.13244648  0.88488975  1
  O  O425  1  0.63644805  0.63366211  0.37947939  1
  O  O426  1  0.62882816  0.63063358  0.87611145  1
