# generated using pymatgen
data_V85Zn86O256
_symmetry_space_group_name_H-M   'P 1'
_cell_length_a   16.94616332
_cell_length_b   16.95584780
_cell_length_c   16.95680005
_cell_angle_alpha   90.05471423
_cell_angle_beta   90.00070692
_cell_angle_gamma   90.02073714
_symmetry_Int_Tables_number   1
_chemical_formula_structural   V85Zn86O256
_chemical_formula_sum   'V85 Zn86 O256'
_cell_volume   4872.30615716
_cell_formula_units_Z   1
loop_
 _symmetry_equiv_pos_site_id
 _symmetry_equiv_pos_as_xyz
  1  'x, y, z'
loop_
 _atom_site_type_symbol
 _atom_site_label
 _atom_site_symmetry_multiplicity
 _atom_site_fract_x
 _atom_site_fract_y
 _atom_site_fract_z
 _atom_site_occupancy
  V  V0  1  0.38583101  0.13414528  0.25529333  1
  V  V1  1  0.37479598  0.00517824  0.87773972  1
  V  V2  1  0.50098214  0.37150322  0.36970280  1
  V  V3  1  0.75011447  0.37509105  0.62154848  1
  V  V4  1  0.37189268  0.87382454  0.50361162  1
  V  V5  1  0.49732874  0.75342089  0.75708418  1
  V  V6  1  0.11724893  0.37818990  0.75732422  1
  V  V7  1  0.88657376  0.87543497  -0.00263013  1
  V  V8  1  0.63087372  0.75295559  0.87686675  1
  V  V9  1  0.74398522  0.50033587  0.75036711  1
  V  V10  1  0.62614990  0.64150571  0.49567754  1
  V  V11  1  0.50774321  -0.00444367  -0.00032348  1
  V  V12  1  -0.00319196  0.12494930  0.63817454  1
  V  V13  1  0.74723806  0.86650124  0.62498923  1
  V  V14  1  0.62819101  0.86230680  0.25324622  1
  V  V15  1  0.00296267  0.00761534  0.00315150  1
  V  V16  1  0.86759654  0.87149506  0.49753567  1
  V  V17  1  0.87765974  0.75540675  0.12301051  1
  V  V18  1  0.75069873  0.88037107  0.12624966  1
  V  V19  1  0.37178736  0.74550941  0.63119269  1
  V  V20  1  0.12586428  0.23918699  0.88014098  1
  V  V21  1  0.49972813  0.00015268  0.49700304  1
  V  V22  1  0.87706136  0.62611656  0.24988417  1
  V  V23  1  0.48718787  0.37826423  0.87166047  1
  V  V24  1  0.12335602  0.75994026  0.87039896  1
  V  V25  1  0.36134641  0.12270402  0.75281242  1
  V  V26  1  0.75133703  0.49919735  0.25460234  1
  V  V27  1  0.24146181  0.75428901  0.49992467  1
  V  V28  1  0.00623807  0.75579127  0.25252154  1
  V  V29  1  0.12105539  0.62352832  0.49638067  1
  V  V30  1  0.62354782  0.37620251  0.74910476  1
  V  V31  1  0.37179735  0.50045583  0.37435102  1
  V  V32  1  0.24038070  0.87299833  0.63512017  1
  V  V33  1  0.49894414  0.12289428  0.62649968  1
  V  V34  1  0.62760759  0.50063053  0.12402860  1
  V  V35  1  0.62423241  0.25304027  0.87338515  1
  V  V36  1  0.62450287  -0.00211720  0.62657007  1
  V  V37  1  0.50347547  0.86436906  0.37721940  1
  V  V38  1  0.37990617  0.75152896  0.12808676  1
  V  V39  1  0.87216092  0.74567998  0.61672460  1
  V  V40  1  0.87574371  0.62400063  0.74870468  1
  V  V41  1  0.49702557  0.24834610  0.75019962  1
  V  V42  1  0.75207973  0.37651592  0.12430479  1
  V  V43  1  0.25454976  0.87524488  0.12800829  1
  V  V44  1  0.62920188  0.24867633  0.36812508  1
  V  V45  1  0.62353884  0.12167425  -0.00796707  1
  V  V46  1  0.85883483  0.00872540  0.36870793  1
  V  V47  1  0.37322208  0.24790812  0.62227397  1
  V  V48  1  0.50156203  0.50093554  0.49996779  1
  V  V49  1  0.36660779  0.00065825  0.37461309  1
  V  V50  1  0.00274401  0.49513986  0.00029809  1
  V  V51  1  0.24502939  0.37514613  0.61673676  1
  V  V52  1  0.88010068  0.00197142  0.86774875  1
  V  V53  1  0.75782505  0.12690818  0.86611442  1
  V  V54  1  0.74760120  0.64051926  0.37630484  1
  V  V55  1  0.12892203  0.62151395  -0.00678033  1
  V  V56  1  0.87849132  0.37224306  -0.00324827  1
  V  V57  1  0.62620169  0.87614701  0.75812675  1
  V  V58  1  0.64072635  0.02077887  0.15820333  1
  V  V59  1  0.88696086  0.49799512  0.37987437  1
  V  V60  1  0.87269257  0.24428190  0.63039109  1
  V  V61  1  0.13010755  0.87792202  0.25508998  1
  V  V62  1  0.26266112  0.50374256  0.75130834  1
  V  V63  1  0.00611632  0.87452760  0.38039458  1
  V  V64  1  0.87995120  0.24210074  0.13608335  1
  V  V65  1  0.00461758  0.34718815  0.37411863  1
  V  V66  1  0.88135179  0.49798661  0.87428532  1
  V  V67  1  0.62887513  0.62643989  -0.00448491  1
  V  V68  1  0.24575950  0.62864667  0.37277906  1
  V  V69  1  0.12062838  -0.00089533  0.63252564  1
  V  V70  1  0.38196500  0.87566879  -0.00483023  1
  V  V71  1  0.75075488  0.25107300  -0.00194857  1
  V  V72  1  0.13832572  0.49033294  0.13482850  1
  V  V73  1  0.49817463  0.50256626  -0.00853128  1
  V  V74  1  0.23618823  0.23098947  0.50069837  1
  V  V75  1  0.63336078  0.12630590  0.50006577  1
  V  V76  1  -0.00097626  0.62063564  0.62098248  1
  V  V77  1  0.36909848  0.37861011  0.00998242  1
  V  V78  1  0.25320479  0.74677939  -0.00135802  1
  V  V79  1  -0.00258122  0.00816289  0.49833203  1
  V  V80  1  0.49895090  0.62606418  0.62977754  1
  V  V81  1  0.36981565  0.62197359  0.24924059  1
  V  V82  1  0.12153521  0.49740628  0.61561318  1
  V  V83  1  0.00357721  0.62341958  0.12462378  1
  V  V84  1  0.50230917  0.62526003  0.12666940  1
  Zn  Zn85  1  0.13061178  0.34254832  0.25024234  1
  Zn  Zn86  1  0.37984852  0.25623494  0.13355827  1
  Zn  Zn87  1  0.50401584  0.74128217  0.26072299  1
  Zn  Zn88  1  0.62026219  0.37301031  0.24510089  1
  Zn  Zn89  1  -0.00550570  0.25348787  0.75767510  1
  Zn  Zn90  1  0.62631283  0.50330560  0.62165533  1
  Zn  Zn91  1  0.87719237  0.37592712  0.50101719  1
  Zn  Zn92  1  0.37482229  0.37103194  0.49870364  1
  Zn  Zn93  1  0.23865800  -0.00385060  0.76129308  1
  Zn  Zn94  1  0.15345183  0.11030711  -0.00682209  1
  Zn  Zn95  1  0.50241428  0.13253014  0.12718046  1
  Zn  Zn96  1  0.20272546  0.16894230  0.33744041  1
  Zn  Zn97  1  0.75262105  0.62625724  0.87551332  1
  Zn  Zn98  1  0.02193314  0.14200737  0.12943244  1
  Zn  Zn99  1  0.12851106  0.00005108  0.12395358  1
  Zn  Zn100  1  0.25673513  0.24473135  0.00038247  1
  Zn  Zn101  1  0.25708348  0.00453880  0.24798992  1
  Zn  Zn102  1  0.01001723  0.75833833  0.74858220  1
  Zn  Zn103  1  0.75377782  0.00369400  0.74713143  1
  Zn  Zn104  1  0.26836990  0.62393220  0.87017363  1
  Zn  Zn105  1  0.75456402  0.75100259  -0.00328206  1
  Zn  Zn106  1  0.74973323  0.24953287  0.49833534  1
  Zn  Zn107  1  0.20137740  0.18642542  0.17109978  1
  Zn  Zn108  1  0.17948609  0.18756095  0.68519960  1
  Zn  Zn109  1  0.18694663  0.68695044  0.18508895  1
  Zn  Zn110  1  0.18605098  0.68345361  0.68795199  1
  Zn  Zn111  1  0.68732995  0.19133007  0.18437494  1
  Zn  Zn112  1  0.68591549  0.18866072  0.68644341  1
  Zn  Zn113  1  0.69235694  0.68729881  0.18569681  1
  Zn  Zn114  1  0.68566474  0.68653871  0.68793892  1
  Zn  Zn115  1  0.31207775  0.31342353  0.31146418  1
  Zn  Zn116  1  0.30515733  0.31438077  0.80845631  1
  Zn  Zn117  1  0.31651314  0.81009183  0.31641193  1
  Zn  Zn118  1  0.31235269  0.81057721  0.81637415  1
  Zn  Zn119  1  0.81048874  0.31532350  0.31362030  1
  Zn  Zn120  1  0.81384445  0.31518237  0.81134536  1
  Zn  Zn121  1  0.81961852  0.82313254  0.30661428  1
  Zn  Zn122  1  0.84173586  0.82715361  0.79704648  1
  Zn  Zn123  1  0.20456670  0.41394781  0.40276615  1
  Zn  Zn124  1  0.18862160  0.44072179  0.93303532  1
  Zn  Zn125  1  0.15118979  1.00004587  0.40620446  1
  Zn  Zn126  1  0.19309930  0.93372837  0.93939864  1
  Zn  Zn127  1  0.68568567  0.44099312  0.43617405  1
  Zn  Zn128  1  0.68753656  0.43897976  0.93432762  1
  Zn  Zn129  1  0.68436410  0.92958241  0.43870301  1
  Zn  Zn130  1  0.69771367  0.93729420  0.93725783  1
  Zn  Zn131  1  0.31770847  0.06721002  0.06721428  1
  Zn  Zn132  1  0.31033598  0.05628852  0.56779600  1
  Zn  Zn133  1  0.31447630  0.56060253  0.05988974  1
  Zn  Zn134  1  0.31063278  0.56324965  0.56059210  1
  Zn  Zn135  1  0.81262239  0.06337151  0.05689228  1
  Zn  Zn136  1  0.81393792  0.05815590  0.56588443  1
  Zn  Zn137  1  0.81488900  0.56409965  0.06320704  1
  Zn  Zn138  1  0.80740600  0.56211951  0.55733616  1
  Zn  Zn139  1  0.43925466  0.44403306  0.18892122  1
  Zn  Zn140  1  0.43737615  0.43286355  0.67978962  1
  Zn  Zn141  1  0.45125706  0.94185580  0.18975621  1
  Zn  Zn142  1  0.43578821  0.93440058  0.69078267  1
  Zn  Zn143  1  0.94483279  0.43083399  0.19104407  1
  Zn  Zn144  1  0.93607350  0.43819085  0.68310004  1
  Zn  Zn145  1  0.96658838  0.98857644  0.21749868  1
  Zn  Zn146  1  0.94055976  0.93334702  0.68878265  1
  Zn  Zn147  1  0.04782054  0.15430878  0.30755088  1
  Zn  Zn148  1  0.05948430  0.06036362  0.81464143  1
  Zn  Zn149  1  0.06335178  0.56490411  0.31153581  1
  Zn  Zn150  1  0.06377977  0.56201658  0.80900062  1
  Zn  Zn151  1  0.57410901  0.06459444  0.31250627  1
  Zn  Zn152  1  0.55674280  0.05981404  0.81511516  1
  Zn  Zn153  1  0.56453819  0.56260582  0.31451442  1
  Zn  Zn154  1  0.44324907  0.56409703  0.81010136  1
  Zn  Zn155  1  0.43990289  0.18659037  0.43639577  1
  Zn  Zn156  1  0.43498256  0.18764456  0.93931123  1
  Zn  Zn157  1  0.43205198  0.68552050  0.44440242  1
  Zn  Zn158  1  0.44427557  0.69343986  0.93924968  1
  Zn  Zn159  1  0.92475728  0.18293731  0.44490393  1
  Zn  Zn160  1  0.94321837  0.18848522  0.93678141  1
  Zn  Zn161  1  0.93828923  0.68767619  0.43401283  1
  Zn  Zn162  1  0.94205094  0.68546040  0.93605119  1
  Zn  Zn163  1  0.06557632  0.31516934  0.06213545  1
  Zn  Zn164  1  0.05650287  0.31108691  0.55653783  1
  Zn  Zn165  1  0.06571129  0.81373173  0.06123925  1
  Zn  Zn166  1  0.06035545  0.81238088  0.56346632  1
  Zn  Zn167  1  0.55849465  0.31207812  0.06192822  1
  Zn  Zn168  1  0.56265723  0.31340242  0.55988511  1
  Zn  Zn169  1  0.56637037  0.81457911  0.06745072  1
  Zn  Zn170  1  0.55961177  0.81326792  0.56641599  1
  O  O171  1  0.13336948  0.11591021  0.10962676  1
  O  O172  1  0.11132863  0.11387562  0.62773489  1
  O  O173  1  0.12118776  0.62095140  0.11144875  1
  O  O174  1  0.11653279  0.61879711  0.61922811  1
  O  O175  1  0.62679705  0.12523818  0.10148695  1
  O  O176  1  0.61744830  0.11882786  0.62060282  1
  O  O177  1  0.62414194  0.62105569  0.11507785  1
  O  O178  1  0.61680263  0.62451837  0.61651577  1
  O  O179  1  0.38382132  0.38449200  0.37960797  1
  O  O180  1  0.38504445  0.37555105  0.87153579  1
  O  O181  1  0.38304228  0.88025243  0.38459273  1
  O  O182  1  0.37620321  0.87660604  0.89112948  1
  O  O183  1  0.88290262  0.38478453  0.37358934  1
  O  O184  1  0.87160242  0.38323051  0.88746742  1
  O  O185  1  0.88347927  0.87626582  0.38586966  1
  O  O186  1  0.85705737  0.89002170  0.89271719  1
  O  O187  1  0.26442893  -0.00969162  0.37520992  1
  O  O188  1  0.26808650  -0.00877579  0.87486656  1
  O  O189  1  0.26666629  0.51478348  0.38932657  1
  O  O190  1  0.24981006  0.50030147  0.85427321  1
  O  O191  1  0.76035687  -0.00601593  0.38559181  1
  O  O192  1  0.75933831  0.01185054  0.87352667  1
  O  O193  1  0.75651977  0.50347271  0.36384187  1
  O  O194  1  0.76188374  0.50127233  0.86735407  1
  O  O195  1  0.23621145  0.50237375  0.12065689  1
  O  O196  1  0.24493343  0.49315556  0.62974973  1
  O  O197  1  0.25621748  0.98334380  0.12612170  1
  O  O198  1  0.23681981  0.98935260  0.62669042  1
  O  O199  1  0.74902934  0.49709454  0.13393642  1
  O  O200  1  0.74980116  0.49347220  0.63256872  1
  O  O201  1  0.74036060  0.99395131  0.11706800  1
  O  O202  1  0.74249576  0.98812223  0.62734806  1
  O  O203  1  0.00587694  0.37443318  0.26958940  1
  O  O204  1  0.01467047  0.37662610  0.74210420  1
  O  O205  1  0.00939317  0.87546946  0.25954977  1
  O  O206  1  -0.04760735  0.85319844  0.76221506  1
  O  O207  1  0.50273981  0.38575034  0.26538552  1
  O  O208  1  0.50327680  0.37044854  0.75379087  1
  O  O209  1  0.50220235  0.86194085  0.26173155  1
  O  O210  1  0.51233963  0.86314318  0.74358156  1
  O  O211  1  0.49005104  0.11829827  0.25237093  1
  O  O212  1  0.49356896  0.13108127  0.74364950  1
  O  O213  1  0.49328678  0.62394532  0.24447543  1
  O  O214  1  0.50320727  0.63386584  0.73604663  1
  O  O215  1  0.99447127  0.09789110  0.22924768  1
  O  O216  1  0.99894316  0.12819702  0.74138787  1
  O  O217  1  0.99624655  0.63716091  0.24633153  1
  O  O218  1  0.99122802  0.62598435  0.74015518  1
  O  O219  1  0.37925811  0.27294993  -0.00834417  1
  O  O220  1  0.37300251  0.24623618  0.51413506  1
  O  O221  1  0.37533499  0.75827431  0.00797588  1
  O  O222  1  0.36408654  0.75349008  0.51117934  1
  O  O223  1  0.87005247  0.25902644  0.00133478  1
  O  O224  1  0.86596273  0.25305454  0.51408746  1
  O  O225  1  0.87773926  0.75603393  0.00383024  1
  O  O226  1  0.87715739  0.75268112  0.50999295  1
  O  O227  1  0.13818691  0.24546648  0.50906441  1
  O  O228  1  0.12681545  0.25395530  0.98629691  1
  O  O229  1  0.13504173  0.74227438  0.50691735  1
  O  O230  1  0.13182685  0.74070409  0.99223469  1
  O  O231  1  0.62734388  0.24151855  0.49603194  1
  O  O232  1  0.63081229  0.24581701  0.99007458  1
  O  O233  1  0.62007323  0.74067902  0.50215685  1
  O  O234  1  0.62659996  0.74572455  0.99423135  1
  O  O235  1  0.49324889  0.24655277  0.12151810  1
  O  O236  1  0.49120682  0.24675152  0.63041918  1
  O  O237  1  0.49415919  0.74140934  0.12503896  1
  O  O238  1  0.49142154  0.74461973  0.63253601  1
  O  O239  1  0.98525020  0.25271206  0.11977394  1
  O  O240  1  0.99164487  0.24022191  0.62593856  1
  O  O241  1  0.99348526  0.74624478  0.12799744  1
  O  O242  1  0.99126814  0.73825610  0.62749366  1
  O  O243  1  -0.00972053  0.24402859  0.37118660  1
  O  O244  1  0.01627781  0.25064948  0.87288362  1
  O  O245  1  -0.00410458  0.76123287  0.36465623  1
  O  O246  1  0.02028417  0.74146679  0.87501214  1
  O  O247  1  0.51244440  0.26245866  0.38489326  1
  O  O248  1  0.50418613  0.25836629  0.86804368  1
  O  O249  1  0.49237301  0.76062411  0.38196878  1
  O  O250  1  0.51543244  0.74960048  0.86491893  1
  O  O251  1  0.24905919  0.13195928  0.50958735  1
  O  O252  1  0.26541475  0.12870165  0.99208634  1
  O  O253  1  0.23957392  0.63288872  0.49737683  1
  O  O254  1  0.24523675  0.62901790  0.99666871  1
  O  O255  1  0.73540094  0.12322526  0.50899016  1
  O  O256  1  0.74221368  0.13085836  0.98683388  1
  O  O257  1  0.73817954  0.62237811  0.48880309  1
  O  O258  1  0.74392489  0.62827173  0.99873882  1
  O  O259  1  0.26952835  0.38571137  -0.00757511  1
  O  O260  1  0.25108370  0.37095450  0.50849164  1
  O  O261  1  0.26152577  0.86680664  0.00910337  1
  O  O262  1  0.25575986  0.86393242  0.51582918  1
  O  O263  1  0.75767560  0.37282806  0.00442717  1
  O  O264  1  0.74708522  0.37836624  0.51326958  1
  O  O265  1  0.75554510  0.87118190  0.01328203  1
  O  O266  1  0.75925202  0.87409007  0.50866972  1
  O  O267  1  0.12338703  0.51199536  0.23183125  1
  O  O268  1  0.13063632  0.49180497  0.73830428  1
  O  O269  1  0.13676284  0.98169292  0.24428954  1
  O  O270  1  0.12176854  0.99815383  0.74001185  1
  O  O271  1  0.63542619  0.50091652  0.24352392  1
  O  O272  1  0.63942822  0.49439007  0.74874367  1
  O  O273  1  0.60178184  0.97109283  0.24896048  1
  O  O274  1  0.62331451  0.99144530  0.74519783  1
  O  O275  1  0.37958959  -0.00051635  0.26259321  1
  O  O276  1  0.37702389  0.00742123  0.75901053  1
  O  O277  1  0.37675575  0.51339941  0.25885391  1
  O  O278  1  0.36715918  0.49833585  0.74388054  1
  O  O279  1  0.86620372  -0.01617654  0.27045250  1
  O  O280  1  0.87386435  -0.00041862  0.76443956  1
  O  O281  1  0.87020126  0.50409819  0.25705925  1
  O  O282  1  0.86905593  0.50553813  0.75525976  1
  O  O283  1  0.10395671  0.36184505  0.38493344  1
  O  O284  1  0.12320668  0.38029641  0.85881455  1
  O  O285  1  0.11338987  0.88730137  0.37127442  1
  O  O286  1  0.13122565  0.85825766  0.87721110  1
  O  O287  1  0.61837735  0.36672458  0.37519918  1
  O  O288  1  0.61800058  0.37086553  0.86789847  1
  O  O289  1  0.61635220  0.87059381  0.36886040  1
  O  O290  1  0.63258761  0.87075583  0.86438440  1
  O  O291  1  0.38384525  0.11903439  0.14576565  1
  O  O292  1  0.38005073  0.12806091  0.63317263  1
  O  O293  1  0.37928367  0.62820352  0.13250496  1
  O  O294  1  0.38187306  0.63778121  0.61960913  1
  O  O295  1  0.86614374  0.14303527  0.11880139  1
  O  O296  1  0.87983260  0.13255922  0.62540342  1
  O  O297  1  0.88301050  0.63296092  0.13044404  1
  O  O298  1  0.87985976  0.62587724  0.62465954  1
  O  O299  1  0.26795204  0.25578206  0.11508160  1
  O  O300  1  0.25423447  0.25539731  0.61878909  1
  O  O301  1  0.25964061  0.75573783  0.11897524  1
  O  O302  1  0.25459370  0.75263513  0.62364347  1
  O  O303  1  0.75427057  0.25780891  0.11740234  1
  O  O304  1  0.75396137  0.25882968  0.62596278  1
  O  O305  1  0.76523652  0.75497193  0.12364201  1
  O  O306  1  0.75445740  0.75846334  0.62587361  1
  O  O307  1  0.26097675  0.24691579  0.39867047  1
  O  O308  1  0.23016824  0.26253573  0.87631650  1
  O  O309  1  0.25590405  0.73993214  0.38841569  1
  O  O310  1  0.24230359  0.74339647  0.88062696  1
  O  O311  1  0.73447444  0.25723261  0.37982827  1
  O  O312  1  0.74641347  0.24632922  0.87848800  1
  O  O313  1  0.76237699  0.73821262  0.36527618  1
  O  O314  1  0.73817585  0.74807592  0.87331654  1
  O  O315  1  -0.00115782  0.11172600  0.00783637  1
  O  O316  1  -0.01041149  0.10989408  0.51160760  1
  O  O317  1  0.00728522  0.61348755  0.00396720  1
  O  O318  1  0.01318391  0.63127699  0.50366167  1
  O  O319  1  0.50728461  0.11487131  -0.00361165  1
  O  O320  1  0.50639536  0.11621504  0.50725729  1
  O  O321  1  0.50889841  0.61856474  0.00621548  1
  O  O322  1  0.50532816  0.62085859  0.50894981  1
  O  O323  1  0.49840490  0.38553500  0.49349239  1
  O  O324  1  0.49566269  0.38545214  0.98906893  1
  O  O325  1  0.49458932  0.88125123  0.49771318  1
  O  O326  1  0.49655432  0.88704370  1.00902720  1
  O  O327  1  0.99092870  0.36758191  0.48238339  1
  O  O328  1  0.99320323  0.38782718  1.00282927  1
  O  O329  1  0.98878525  0.87695225  0.49699436  1
  O  O330  1  0.99037817  0.87794137  0.99797836  1
  O  O331  1  0.49168464  0.49823358  0.38264232  1
  O  O332  1  0.50442318  0.49202658  0.88100597  1
  O  O333  1  0.49714769  0.98986442  0.38824339  1
  O  O334  1  0.48840950  0.99796176  0.88533381  1
  O  O335  1  0.98669386  0.50560800  0.37359820  1
  O  O336  1  0.98860744  0.50526508  0.88101594  1
  O  O337  1  0.98602018  0.99067496  0.39260406  1
  O  O338  1  0.99129465  1.00403844  0.88861367  1
  O  O339  1  0.00712652  -0.01385319  0.10663014  1
  O  O340  1  -0.00102404  0.00401485  0.62221497  1
  O  O341  1  0.00460062  0.50557932  0.11737818  1
  O  O342  1  0.00545664  0.51167111  0.62457376  1
  O  O343  1  0.52291377  0.00740475  0.11824914  1
  O  O344  1  0.50381660  0.00053447  0.61589665  1
  O  O345  1  0.50920710  0.50619109  0.11601599  1
  O  O346  1  0.50035243  0.50859170  0.61833623  1
  O  O347  1  0.23021787  0.38372908  0.29297502  1
  O  O348  1  0.24191162  0.38502821  0.73600033  1
  O  O349  1  0.24651018  0.86681277  0.24435571  1
  O  O350  1  0.25794602  0.87625637  0.73818574  1
  O  O351  1  0.74746411  0.38496432  0.24302574  1
  O  O352  1  0.74606746  0.38150296  0.74075756  1
  O  O353  1  0.74232666  0.87036652  0.23682370  1
  O  O354  1  0.74479053  0.87683170  0.74110668  1
  O  O355  1  0.27042781  0.12021303  0.25340417  1
  O  O356  1  0.25880336  0.11999283  0.74283797  1
  O  O357  1  0.25593183  0.63253323  0.26162472  1
  O  O358  1  0.24949895  0.60653635  0.74539907  1
  O  O359  1  0.67610837  0.08972499  0.23317922  1
  O  O360  1  0.74400423  0.12472605  0.76238596  1
  O  O361  1  0.75809196  0.61817671  0.25419066  1
  O  O362  1  0.75507568  0.61419829  0.74972431  1
  O  O363  1  0.38420245  0.11253658  0.36871945  1
  O  O364  1  0.38235263  0.11778941  0.86280226  1
  O  O365  1  0.36924361  0.62083230  0.36891550  1
  O  O366  1  0.38127506  0.62781200  0.87617104  1
  O  O367  1  0.87012257  0.10870575  0.37778341  1
  O  O368  1  0.86735791  0.11780300  0.88255953  1
  O  O369  1  0.86995160  0.61528540  0.36946892  1
  O  O370  1  0.87413568  0.61897121  0.86525178  1
  O  O371  1  0.12144160  0.38545312  0.13474181  1
  O  O372  1  0.12829608  0.38037395  0.62763580  1
  O  O373  1  0.13908958  0.87156445  0.13110130  1
  O  O374  1  0.13019596  0.87963191  0.62632258  1
  O  O375  1  0.63285801  0.38325652  0.12294063  1
  O  O376  1  0.63030308  0.37820755  0.63175283  1
  O  O377  1  0.63573935  0.88073653  0.13353085  1
  O  O378  1  0.63148558  0.87679378  0.63330513  1
  O  O379  1  0.13272441  0.22653131  0.25621608  1
  O  O380  1  0.12490373  0.26379799  0.75717025  1
  O  O381  1  0.11306340  0.75897939  0.24294960  1
  O  O382  1  0.12656678  0.74342788  0.76465914  1
  O  O383  1  0.62791542  0.25407880  0.26439288  1
  O  O384  1  0.61756406  0.25645082  0.75406995  1
  O  O385  1  0.62219960  0.75707148  0.24375970  1
  O  O386  1  0.61988904  0.75598407  0.75651637  1
  O  O387  1  0.37961575  0.23796494  0.25964821  1
  O  O388  1  0.37394205  0.24322133  0.74069372  1
  O  O389  1  0.37822751  0.73734356  0.24596780  1
  O  O390  1  0.38595732  0.75567783  0.74475018  1
  O  O391  1  0.86624228  0.25395912  0.23404155  1
  O  O392  1  0.87780147  0.25868979  0.73682443  1
  O  O393  1  0.88786572  0.75043520  0.24004065  1
  O  O394  1  0.86232995  0.72904342  0.73481570  1
  O  O395  1  0.38685257  0.50251546  0.49474487  1
  O  O396  1  0.38975025  0.49332343  1.00131544  1
  O  O397  1  0.38157862  0.99455633  0.49728915  1
  O  O398  1  0.38711145  0.99361438  0.99794444  1
  O  O399  1  0.86862829  0.49846541  0.48231498  1
  O  O400  1  0.88209190  0.49585925  0.99327398  1
  O  O401  1  0.88121099  0.98793522  0.50079405  1
  O  O402  1  0.88596112  0.99427330  0.99679703  1
  O  O403  1  0.11377397  -0.00371097  -0.00675913  1
  O  O404  1  0.10130272  -0.00943017  0.51398641  1
  O  O405  1  0.11947228  0.50214089  0.00598882  1
  O  O406  1  0.13118287  0.50921697  0.51302683  1
  O  O407  1  0.61986342  0.00829403  -0.01213842  1
  O  O408  1  0.61717635  0.00437897  0.50524402  1
  O  O409  1  0.61918834  0.50767586  0.00212686  1
  O  O410  1  0.61228101  0.50845319  0.49901894  1
  O  O411  1  0.38075237  0.38200585  0.11243147  1
  O  O412  1  0.36490006  0.36437911  0.62206659  1
  O  O413  1  0.37484908  0.87009247  0.12098797  1
  O  O414  1  0.37000871  0.86427161  0.62138103  1
  O  O415  1  0.87096669  0.37022585  0.11484124  1
  O  O416  1  0.86593138  0.37097866  0.62203685  1
  O  O417  1  0.86908935  0.86698546  0.11442744  1
  O  O418  1  0.86643915  0.86421047  0.61676964  1
  O  O419  1  0.12160302  0.10455478  0.37968872  1
  O  O420  1  0.12664600  0.13536838  0.87565039  1
  O  O421  1  0.13500904  0.61976058  0.38310918  1
  O  O422  1  0.12923972  0.62129304  0.88624105  1
  O  O423  1  0.61764737  0.14083849  0.38643183  1
  O  O424  1  0.62910459  0.13242671  0.87801385  1
  O  O425  1  0.63465631  0.62511467  0.38194983  1
  O  O426  1  0.62736857  0.63356897  0.89031180  1
