# generated using pymatgen
data_V85Zn86O256
_symmetry_space_group_name_H-M   'P 1'
_cell_length_a   16.93117451
_cell_length_b   16.94122475
_cell_length_c   16.92441490
_cell_angle_alpha   89.96532919
_cell_angle_beta   89.92874617
_cell_angle_gamma   89.95676755
_symmetry_Int_Tables_number   1
_chemical_formula_structural   V85Zn86O256
_chemical_formula_sum   'V85 Zn86 O256'
_cell_volume   4854.50569515
_cell_formula_units_Z   1
loop_
 _symmetry_equiv_pos_site_id
 _symmetry_equiv_pos_as_xyz
  1  'x, y, z'
loop_
 _atom_site_type_symbol
 _atom_site_label
 _atom_site_symmetry_multiplicity
 _atom_site_fract_x
 _atom_site_fract_y
 _atom_site_fract_z
 _atom_site_occupancy
  V  V0  1  0.25247053  0.75101045  0.49554070  1
  V  V1  1  0.37659948  0.25511523  0.12371534  1
  V  V2  1  0.74962242  0.75341919  0.49366593  1
  V  V3  1  0.38081275  -0.00365744  0.87266163  1
  V  V4  1  0.01490452  0.12150670  0.61884843  1
  V  V5  1  0.87476882  0.12290533  0.74894794  1
  V  V6  1  0.37357388  0.49515952  0.88672038  1
  V  V7  1  0.62029896  0.62187540  0.49544025  1
  V  V8  1  0.00426811  0.36593232  0.87595822  1
  V  V9  1  0.37246778  0.50445931  0.37370573  1
  V  V10  1  0.00306412  0.12101565  0.12525680  1
  V  V11  1  0.74464935  -0.00032648  0.74487892  1
  V  V12  1  0.25164919  0.11898985  0.38644965  1
  V  V13  1  0.50049873  0.62658441  0.62525894  1
  V  V14  1  0.74957508  0.74388696  -0.00413283  1
  V  V15  1  0.75146435  0.24757706  0.49884017  1
  V  V16  1  0.62066499  0.87649961  0.75291722  1
  V  V17  1  0.38429164  0.75572700  0.12853622  1
  V  V18  1  0.50766300  -0.00350048  0.49296086  1
  V  V19  1  0.00838752  0.24395605  0.75424040  1
  V  V20  1  0.74575516  0.12134349  0.87883013  1
  V  V21  1  0.50604377  0.01691303  -0.00031709  1
  V  V22  1  0.87351259  0.75150533  0.12418008  1
  V  V23  1  0.87025839  0.50071887  0.36841554  1
  V  V24  1  0.12528492  0.23906470  0.38990557  1
  V  V25  1  -0.00283509  0.75821583  0.75440734  1
  V  V26  1  0.87198967  -0.00650471  0.38333186  1
  V  V27  1  0.25035406  0.62986533  0.87770542  1
  V  V28  1  0.87953675  0.24628971  0.62538198  1
  V  V29  1  0.37548253  0.75489297  0.62642484  1
  V  V30  1  0.87361210  0.50492216  0.87219862  1
  V  V31  1  0.75158197  0.50513315  0.75056900  1
  V  V32  1  0.01282671  -0.00692117  0.50312926  1
  V  V33  1  0.12253300  0.76287481  0.87551349  1
  V  V34  1  0.62047779  0.24630579  0.87302031  1
  V  V35  1  0.25142732  0.13327783  0.87350615  1
  V  V36  1  0.00262926  -0.00798000  -0.00435968  1
  V  V37  1  0.00245166  0.37227157  0.37431156  1
  V  V38  1  0.60997645  0.75575499  0.37159559  1
  V  V39  1  -0.00099181  0.62755013  0.62565360  1
  V  V40  1  0.12775478  0.62684549  0.49720528  1
  V  V41  1  0.25383559  0.00030574  0.24393838  1
  V  V42  1  0.50534103  0.61599265  0.12873501  1
  V  V43  1  0.49853508  0.24434818  0.24769397  1
  V  V44  1  0.87541811  0.37346773  0.00030304  1
  V  V45  1  0.25228330  0.76228603  0.00709649  1
  V  V46  1  0.12693832  0.49793227  0.12707556  1
  V  V47  1  0.37530864  0.62835971  0.75436041  1
  V  V48  1  0.12644627  0.13069341  -0.00479538  1
  V  V49  1  0.87207987  0.75389420  0.61931818  1
  V  V50  1  0.13521417  0.36821677  0.25185022  1
  V  V51  1  0.25371081  0.25825602  -0.00388376  1
  V  V52  1  0.62231340  0.01365493  0.12308975  1
  V  V53  1  0.49378259  0.37080171  0.87989492  1
  V  V54  1  0.38218441  0.13292788  0.74322467  1
  V  V55  1  0.74170620  0.38048030  0.12598151  1
  V  V56  1  0.37160540  0.63204430  0.25296277  1
  V  V57  1  0.62273952  0.24665798  0.37505857  1
  V  V58  1  0.37494062  0.12361987  0.25026827  1
  V  V59  1  0.49947741  0.38176108  0.37420305  1
  V  V60  1  0.12711042  0.62809543  0.00027590  1
  V  V61  1  0.24682804  0.00135082  0.74850809  1
  V  V62  1  0.87770190  -0.00831204  0.87374469  1
  V  V63  1  0.49810617  0.75547783  0.75810573  1
  V  V64  1  0.87604425  0.24741751  0.12654773  1
  V  V65  1  0.24529857  0.88103507  0.62423929  1
  V  V66  1  0.24319763  0.50046592  0.74974484  1
  V  V67  1  0.74719426  0.87608954  0.12561120  1
  V  V68  1  0.62717041  0.74238996  0.87465793  1
  V  V69  1  -0.00084249  0.50304203  0.49668754  1
  V  V70  1  0.74400838  0.24464103  0.00134114  1
  V  V71  1  0.00075976  0.49872724  -0.00169188  1
  V  V72  1  0.38592136  0.87846946  0.00199182  1
  V  V73  1  0.62746902  0.49710941  0.62090835  1
  V  V74  1  0.87805610  0.37290091  0.49819703  1
  V  V75  1  0.60813389  0.87491927  0.24957919  1
  V  V76  1  0.74528526  0.87754919  0.62094555  1
  V  V77  1  0.13088365  0.87543306  0.24303844  1
  V  V78  1  0.12807244  0.74764080  0.37265932  1
  V  V79  1  0.00000528  0.62553664  0.12500792  1
  V  V80  1  -0.00225137  0.75255984  0.25077048  1
  V  V81  1  0.37858195  0.88307194  0.48833489  1
  V  V82  1  0.62542061  0.37008552  0.75039315  1
  V  V83  1  0.50877664  0.12587397  0.62643966  1
  V  V84  1  0.44384299  0.44425278  0.55040087  1
  Zn  Zn85  1  0.12977937  0.49761501  0.62127232  1
  Zn  Zn86  1  0.00270416  0.24576488  0.24969359  1
  Zn  Zn87  1  0.30468742  0.29576889  0.55926898  1
  Zn  Zn88  1  0.62083762  0.37918712  0.24604028  1
  Zn  Zn89  1  0.12760724  0.36731846  0.74895334  1
  Zn  Zn90  1  0.74586229  0.62662998  0.36968414  1
  Zn  Zn91  1  0.25422199  0.37799463  0.12084173  1
  Zn  Zn92  1  0.11885812  0.88330411  0.74755269  1
  Zn  Zn93  1  0.50696255  0.49161380  0.00636613  1
  Zn  Zn94  1  0.73621249  0.50895216  0.24328761  1
  Zn  Zn95  1  0.13079714  -0.00358667  0.12081249  1
  Zn  Zn96  1  0.87097058  0.62623612  0.24987935  1
  Zn  Zn97  1  0.87620029  0.11935331  0.25165263  1
  Zn  Zn98  1  0.24695801  0.50652911  0.25656238  1
  Zn  Zn99  1  0.87106574  0.62773619  0.75214579  1
  Zn  Zn100  1  0.75093964  0.00102905  0.25019349  1
  Zn  Zn101  1  0.63163479  0.11651225  0.50356691  1
  Zn  Zn102  1  0.87639345  0.87317229  -0.00303427  1
  Zn  Zn103  1  0.62765159  0.61616417  0.00131080  1
  Zn  Zn104  1  -0.00357117  0.87188793  0.38158841  1
  Zn  Zn105  1  0.75372203  0.12509252  0.37208675  1
  Zn  Zn106  1  0.75389848  0.37397927  0.62594696  1
  Zn  Zn107  1  0.19048480  0.18717828  0.18664972  1
  Zn  Zn108  1  0.19242251  0.18440081  0.68167008  1
  Zn  Zn109  1  0.19179144  0.68852110  0.18572086  1
  Zn  Zn110  1  0.18549623  0.69040908  0.68732374  1
  Zn  Zn111  1  0.68986102  0.18789481  0.19254257  1
  Zn  Zn112  1  0.68862521  0.18695838  0.68705565  1
  Zn  Zn113  1  0.68493508  0.69128535  0.19017588  1
  Zn  Zn114  1  0.68602661  0.68637682  0.68592458  1
  Zn  Zn115  1  0.33228314  0.29036825  0.36522241  1
  Zn  Zn116  1  0.30176855  0.29955065  0.76668695  1
  Zn  Zn117  1  0.31331645  0.81411775  0.31082441  1
  Zn  Zn118  1  0.31099554  0.81769649  0.81598945  1
  Zn  Zn119  1  0.81297828  0.31082273  0.30938797  1
  Zn  Zn120  1  0.81347717  0.31440928  0.81235243  1
  Zn  Zn121  1  0.80921990  0.81740727  0.31158140  1
  Zn  Zn122  1  0.80946778  0.81196930  0.81071069  1
  Zn  Zn123  1  0.19281622  0.43666728  0.43760452  1
  Zn  Zn124  1  0.18506178  0.43820208  0.93258406  1
  Zn  Zn125  1  0.18828015  0.93545584  0.43076940  1
  Zn  Zn126  1  0.19332620  0.94236748  0.93685136  1
  Zn  Zn127  1  0.68719853  0.43480784  0.43514819  1
  Zn  Zn128  1  0.68745399  0.43702327  0.93748926  1
  Zn  Zn129  1  0.68555073  0.93486683  0.43461124  1
  Zn  Zn130  1  0.68355173  0.93221231  0.93661800  1
  Zn  Zn131  1  0.31620038  0.06812747  0.06504441  1
  Zn  Zn132  1  0.31796591  0.06023908  0.56452066  1
  Zn  Zn133  1  0.31363364  0.56722497  0.06557009  1
  Zn  Zn134  1  0.30750069  0.56942203  0.56752162  1
  Zn  Zn135  1  0.81334223  0.06045051  0.06209358  1
  Zn  Zn136  1  0.81655892  0.06090173  0.55981263  1
  Zn  Zn137  1  0.81377462  0.56322482  0.06152257  1
  Zn  Zn138  1  0.81080048  0.56512390  0.56000401  1
  Zn  Zn139  1  0.43508195  0.43620436  0.19294673  1
  Zn  Zn140  1  0.43372586  0.43402156  0.71736311  1
  Zn  Zn141  1  0.43472642  0.94409310  0.18183886  1
  Zn  Zn142  1  0.43788465  0.94165624  0.68133862  1
  Zn  Zn143  1  0.93896031  0.43404265  0.18905793  1
  Zn  Zn144  1  0.95120988  0.43151533  0.68318604  1
  Zn  Zn145  1  0.93674290  0.93715200  0.18887793  1
  Zn  Zn146  1  0.93277428  0.93702121  0.68166718  1
  Zn  Zn147  1  0.06203559  0.05826944  0.31320262  1
  Zn  Zn148  1  0.06486603  0.06417197  0.81454953  1
  Zn  Zn149  1  0.06157255  0.56423409  0.31171643  1
  Zn  Zn150  1  0.05858677  0.57015112  0.81632227  1
  Zn  Zn151  1  0.56264426  0.06156182  0.31351179  1
  Zn  Zn152  1  0.56276233  0.06030455  0.81359546  1
  Zn  Zn153  1  0.55823917  0.56268681  0.31033607  1
  Zn  Zn154  1  0.56299704  0.55878487  0.81531262  1
  Zn  Zn155  1  0.43884102  0.18275855  0.44483613  1
  Zn  Zn156  1  0.43338101  0.18905364  0.93388354  1
  Zn  Zn157  1  0.43708529  0.68749122  0.43777950  1
  Zn  Zn158  1  0.44012396  0.68583229  0.94245235  1
  Zn  Zn159  1  0.94011144  0.18131795  0.43795715  1
  Zn  Zn160  1  0.93348399  0.18156741  0.93924419  1
  Zn  Zn161  1  0.93522960  0.68804855  0.43599442  1
  Zn  Zn162  1  0.93768956  0.68810940  0.93700176  1
  Zn  Zn163  1  0.06578748  0.30968551  0.06241075  1
  Zn  Zn164  1  0.12822361  0.33023732  0.56196789  1
  Zn  Zn165  1  0.06320645  0.81414367  0.06410773  1
  Zn  Zn166  1  0.06318197  0.81383858  0.56388960  1
  Zn  Zn167  1  0.55999696  0.30541497  0.05979473  1
  Zn  Zn168  1  0.56528743  0.30261481  0.56730029  1
  Zn  Zn169  1  0.56252432  0.81357332  0.06159783  1
  Zn  Zn170  1  0.56332095  0.81377318  0.56371980  1
  O  O171  1  0.11824318  0.12287831  0.11598825  1
  O  O172  1  0.11359083  0.12263973  0.62793261  1
  O  O173  1  0.12060674  0.61881965  0.12035970  1
  O  O174  1  0.11530269  0.62607094  0.61689473  1
  O  O175  1  0.62972669  0.11267434  0.12797543  1
  O  O176  1  0.61403032  0.12450158  0.62505267  1
  O  O177  1  0.60731533  0.63307776  0.12649613  1
  O  O178  1  0.61842805  0.61712605  0.62005182  1
  O  O179  1  0.39079159  0.38792928  0.37190598  1
  O  O180  1  0.38605235  0.38414243  0.85759343  1
  O  O181  1  0.37512283  0.87014169  0.39044279  1
  O  O182  1  0.37242154  0.89020114  0.88210325  1
  O  O183  1  0.88281421  0.37922918  0.37651419  1
  O  O184  1  0.88315274  0.38087344  0.88259866  1
  O  O185  1  0.87809057  0.88780877  0.37378866  1
  O  O186  1  0.86894755  0.88804627  0.87570654  1
  O  O187  1  0.24104055  0.01362036  0.36391078  1
  O  O188  1  0.26093579  0.01086989  0.86918517  1
  O  O189  1  0.26639647  0.49880739  0.37778988  1
  O  O190  1  0.25422835  0.51047190  0.87207591  1
  O  O191  1  0.76158409  0.00061368  0.37774530  1
  O  O192  1  0.75342291  0.00499510  0.86971585  1
  O  O193  1  0.75988252  0.50008813  0.37341430  1
  O  O194  1  0.76274327  0.49018175  0.86459964  1
  O  O195  1  0.23712661  0.49833983  0.12236175  1
  O  O196  1  0.24717615  0.50877900  0.64466871  1
  O  O197  1  0.24869628  1.00660930  0.13794322  1
  O  O198  1  0.25643373  0.99301970  0.63497635  1
  O  O199  1  0.75798562  0.48343188  0.12393191  1
  O  O200  1  0.74808851  0.49507305  0.63108022  1
  O  O201  1  0.74118235  0.99189885  0.12107182  1
  O  O202  1  0.75622266  0.99078635  0.63238456  1
  O  O203  1  0.00895748  0.37410783  0.26188758  1
  O  O204  1  -0.00842194  0.35845570  0.76278188  1
  O  O205  1  0.00822075  0.86337111  0.24961817  1
  O  O206  1  0.00109904  0.86306577  0.74027561  1
  O  O207  1  0.50062404  0.36421369  0.25890690  1
  O  O208  1  0.51762322  0.37500127  0.76188636  1
  O  O209  1  0.50980513  0.87949324  0.24402795  1
  O  O210  1  0.50790269  0.86838220  0.74240049  1
  O  O211  1  0.49055414  0.13515952  0.25936398  1
  O  O212  1  0.49250147  0.11217653  0.73741322  1
  O  O213  1  0.48731166  0.62503028  0.23691854  1
  O  O214  1  0.49392230  0.63146086  0.74548510  1
  O  O215  1  1.00087453  0.12305750  0.23584842  1
  O  O216  1  0.99429906  0.12507620  0.74261580  1
  O  O217  1  1.00027107  0.63810394  0.24358226  1
  O  O218  1  0.99766009  0.63713655  0.74092901  1
  O  O219  1  0.36614545  0.24292068  0.01028710  1
  O  O220  1  0.36664948  0.26100550  0.47388382  1
  O  O221  1  0.37064963  0.76072065  0.00272324  1
  O  O222  1  0.36872572  0.75761257  0.50474808  1
  O  O223  1  0.86633109  0.25184701  0.00856641  1
  O  O224  1  0.87247452  0.25149487  0.50572294  1
  O  O225  1  0.86843437  0.75280291  0.00346072  1
  O  O226  1  0.86321519  0.74634713  0.50645530  1
  O  O227  1  0.11552755  0.24262095  0.48876930  1
  O  O228  1  0.13386420  0.23747831  1.00170633  1
  O  O229  1  0.13091955  0.74763549  0.49260226  1
  O  O230  1  0.13308318  0.75058228  0.99549525  1
  O  O231  1  0.63620777  0.24707594  0.49377275  1
  O  O232  1  0.63781406  0.25063637  0.99128578  1
  O  O233  1  0.63005233  0.74629661  0.49291234  1
  O  O234  1  0.63050721  0.74951213  0.99060351  1
  O  O235  1  0.49287168  0.25193131  0.13611849  1
  O  O236  1  0.49564155  0.22652562  0.61596014  1
  O  O237  1  0.48790855  0.74219528  0.11827618  1
  O  O238  1  0.49532464  0.74727953  0.63629260  1
  O  O239  1  0.99247695  0.24064761  0.12225899  1
  O  O240  1  0.99317181  0.23235547  0.63398302  1
  O  O241  1  0.99415871  0.74701324  0.13056935  1
  O  O242  1  0.99187217  0.74412127  0.62790184  1
  O  O243  1  0.00888867  0.25341160  0.37291579  1
  O  O244  1  -0.00935307  0.25294426  0.86795903  1
  O  O245  1  0.00562197  0.75189182  0.36706964  1
  O  O246  1  0.00812563  0.74784579  0.86631942  1
  O  O247  1  0.50763327  0.25632640  0.37052176  1
  O  O248  1  0.51381476  0.25246354  0.88034192  1
  O  O249  1  0.51095072  0.75490979  0.38081395  1
  O  O250  1  0.50399450  0.74795927  0.86360037  1
  O  O251  1  0.25426352  0.11622177  0.48628430  1
  O  O252  1  0.24522321  0.13110909  0.99219562  1
  O  O253  1  0.23642563  0.63561391  0.50488070  1
  O  O254  1  0.24551342  0.63551584  0.99559406  1
  O  O255  1  0.75087885  0.13562798  0.49839849  1
  O  O256  1  0.75566648  0.13196598  0.99008403  1
  O  O257  1  0.73708423  0.63615288  0.49883714  1
  O  O258  1  0.74696792  0.63946089  1.00816520  1
  O  O259  1  0.24294634  0.36104264  -0.00457855  1
  O  O260  1  0.22517407  0.37026331  0.51926228  1
  O  O261  1  0.26272955  0.87004595  -0.00484750  1
  O  O262  1  0.25943679  0.87271085  0.50381291  1
  O  O263  1  0.75692273  0.36557986  0.00835156  1
  O  O264  1  0.75936985  0.36309589  0.50095474  1
  O  O265  1  0.74791853  0.86490358  0.00985227  1
  O  O266  1  0.74200555  0.86426740  0.50814725  1
  O  O267  1  0.12574082  0.49506697  0.24309293  1
  O  O268  1  0.13814650  0.51201631  0.75560155  1
  O  O269  1  0.13053026  0.99069164  0.24738949  1
  O  O270  1  0.14113185  0.99980188  0.75698814  1
  O  O271  1  0.62519049  0.49181342  0.25650123  1
  O  O272  1  0.63327137  0.49327300  0.74447919  1
  O  O273  1  0.62462486  0.99133260  0.24216169  1
  O  O274  1  0.63619771  0.99174580  0.75468462  1
  O  O275  1  0.36833213  0.00999090  0.24714764  1
  O  O276  1  0.37004167  0.00466489  0.75749399  1
  O  O277  1  0.37183176  0.50976549  0.25834518  1
  O  O278  1  0.36066590  0.51065306  0.76052235  1
  O  O279  1  0.87680365  -0.00115466  0.26456445  1
  O  O280  1  0.86579652  0.00237015  0.75519920  1
  O  O281  1  0.87567696  0.50032848  0.25990957  1
  O  O282  1  0.87025366  0.49742389  0.75512170  1
  O  O283  1  0.12048057  0.36230720  0.37037659  1
  O  O284  1  0.10772238  0.37748440  0.87139685  1
  O  O285  1  0.12089189  0.86248192  0.36625113  1
  O  O286  1  0.13066922  0.86569051  0.87299391  1
  O  O287  1  0.61485474  0.36463438  0.37751210  1
  O  O288  1  0.62249878  0.36410190  0.86853501  1
  O  O289  1  0.62695415  0.87182931  0.35758533  1
  O  O290  1  0.62837503  0.86298108  0.86019298  1
  O  O291  1  0.36901986  0.13932747  0.14119171  1
  O  O292  1  0.38055335  0.12372544  0.63841297  1
  O  O293  1  0.38216327  0.63437553  0.13079644  1
  O  O294  1  0.38036299  0.63479144  0.63234070  1
  O  O295  1  0.88446088  0.13073889  0.12313189  1
  O  O296  1  0.87925393  0.13219619  0.62971607  1
  O  O297  1  0.88354227  0.63241831  0.12569478  1
  O  O298  1  0.87952679  0.63745356  0.62525399  1
  O  O299  1  0.25590541  0.25301548  0.11404789  1
  O  O300  1  0.26048433  0.26807114  0.65985608  1
  O  O301  1  0.26058199  0.74648903  0.11141366  1
  O  O302  1  0.25515858  0.75609726  0.61484367  1
  O  O303  1  0.75683743  0.25449035  0.11837843  1
  O  O304  1  0.76026864  0.25038175  0.61769497  1
  O  O305  1  0.75486341  0.75737748  0.11965800  1
  O  O306  1  0.75450156  0.75447574  0.61818932  1
  O  O307  1  0.23237207  0.23343049  0.37054660  1
  O  O308  1  0.26080992  0.23816637  0.87602043  1
  O  O309  1  0.24342761  0.75447393  0.38737080  1
  O  O310  1  0.24406580  0.74762801  0.88352719  1
  O  O311  1  0.74361746  0.25101575  0.38152054  1
  O  O312  1  0.74594645  0.24223369  0.88188229  1
  O  O313  1  0.74216926  0.75154461  0.38190256  1
  O  O314  1  0.74214488  0.75249022  0.88323887  1
  O  O315  1  0.00795067  0.11789680  0.00547803  1
  O  O316  1  -0.00092559  0.11428723  0.51367650  1
  O  O317  1  0.00754250  0.62031407  0.00545297  1
  O  O318  1  0.00929450  0.62666410  0.50551714  1
  O  O319  1  0.49956422  0.11534826  -0.00210773  1
  O  O320  1  0.50289231  0.11284649  0.50775867  1
  O  O321  1  0.49906953  0.62042199  0.01510420  1
  O  O322  1  0.51262597  0.63250509  0.50867439  1
  O  O323  1  0.50450397  0.37952428  0.49725810  1
  O  O324  1  0.50189715  0.37279214  0.98571043  1
  O  O325  1  0.48927084  0.88491591  0.50821870  1
  O  O326  1  0.48935933  0.88151052  0.99919472  1
  O  O327  1  0.99658558  0.38156844  0.48489188  1
  O  O328  1  0.99523933  0.37728591  0.99563036  1
  O  O329  1  0.99971540  0.88795704  0.50395268  1
  O  O330  1  1.00084957  0.88827786  1.00137728  1
  O  O331  1  0.49009067  0.49333531  0.37753714  1
  O  O332  1  0.48917594  0.49080188  0.87338800  1
  O  O333  1  0.49999214  1.00471138  0.39316464  1
  O  O334  1  0.49517220  1.00266204  0.88780233  1
  O  O335  1  0.99464113  0.49360340  0.37850272  1
  O  O336  1  0.99393885  0.49215888  0.87937340  1
  O  O337  1  0.99478590  0.99747560  0.38815585  1
  O  O338  1  0.98970352  1.00724900  0.88207109  1
  O  O339  1  0.00166654  0.00595805  0.11523167  1
  O  O340  1  -0.00552201  0.00936687  0.61515365  1
  O  O341  1  0.00939041  0.50297587  0.12046909  1
  O  O342  1  -0.00885629  0.51838664  0.61623269  1
  O  O343  1  0.50768561  -0.00010888  0.10952100  1
  O  O344  1  0.49222694  0.01320543  0.61042530  1
  O  O345  1  0.49154898  0.51179696  0.12456451  1
  O  O346  1  0.50089873  0.50098747  0.62068625  1
  O  O347  1  0.23695969  0.38059904  0.24999410  1
  O  O348  1  0.24163804  0.39662503  0.76462150  1
  O  O349  1  0.24271646  0.88677470  0.25784849  1
  O  O350  1  0.25102462  0.88425564  0.74202162  1
  O  O351  1  0.75003493  0.37219335  0.23299354  1
  O  O352  1  0.74191274  0.38248323  0.74793566  1
  O  O353  1  0.74339152  0.87874572  0.23610916  1
  O  O354  1  0.74320638  0.88161660  0.74259276  1
  O  O355  1  0.25484356  0.11844486  0.25678858  1
  O  O356  1  0.26324156  0.11942006  0.75458179  1
  O  O357  1  0.26482754  0.62354080  0.24483676  1
  O  O358  1  0.25494447  0.62453902  0.75866445  1
  O  O359  1  0.75649743  0.11954560  0.25323670  1
  O  O360  1  0.75470582  0.11579970  0.75419173  1
  O  O361  1  0.75312457  0.62447060  0.25091879  1
  O  O362  1  0.75103127  0.61012834  0.74551381  1
  O  O363  1  0.35808916  0.12885142  0.36599556  1
  O  O364  1  0.37263758  0.11409797  0.86651978  1
  O  O365  1  0.38270380  0.61968544  0.36517279  1
  O  O366  1  0.37054457  0.61921174  0.87316292  1
  O  O367  1  0.87714177  0.11121994  0.37298801  1
  O  O368  1  0.86379175  0.11562944  0.86845315  1
  O  O369  1  0.87293745  0.61431707  0.37329157  1
  O  O370  1  0.88146559  0.60953897  0.87261091  1
  O  O371  1  0.12453311  0.38186939  0.13307237  1
  O  O372  1  0.08787709  0.39238281  0.64375607  1
  O  O373  1  0.12672759  0.87437256  0.13808375  1
  O  O374  1  0.14110366  0.86930329  0.62713545  1
  O  O375  1  0.63989615  0.36687233  0.12181923  1
  O  O376  1  0.62627676  0.37828511  0.63226889  1
  O  O377  1  0.62893018  0.87987520  0.13312677  1
  O  O378  1  0.63725889  0.86755831  0.63726277  1
  O  O379  1  0.12203828  0.25614210  0.25386732  1
  O  O380  1  0.11099020  0.24559696  0.75030542  1
  O  O381  1  0.12239151  0.75348401  0.25514259  1
  O  O382  1  0.11708897  0.75291712  0.75933134  1
  O  O383  1  0.61767686  0.25322241  0.25805719  1
  O  O384  1  0.63432922  0.25773262  0.75997727  1
  O  O385  1  0.62429353  0.76574450  0.25623109  1
  O  O386  1  0.61826490  0.75451622  0.75479282  1
  O  O387  1  0.38236573  0.24371115  0.25239049  1
  O  O388  1  0.39213807  0.22968515  0.76320093  1
  O  O389  1  0.37055159  0.74661884  0.23971563  1
  O  O390  1  0.38085027  0.74950430  0.74924950  1
  O  O391  1  0.87994250  0.24779493  0.23675726  1
  O  O392  1  0.87864397  0.24268597  0.74248025  1
  O  O393  1  0.88319087  0.75190772  0.24500154  1
  O  O394  1  0.88011683  0.74792282  0.74408930  1
  O  O395  1  0.37935529  0.50744324  0.49869749  1
  O  O396  1  0.37329547  0.49996841  0.98921914  1
  O  O397  1  0.38147231  0.98743981  0.49880607  1
  O  O398  1  0.38524388  0.99859589  0.99665976  1
  O  O399  1  0.87938178  0.49509456  0.49036348  1
  O  O400  1  0.88134344  0.49468203  0.99289371  1
  O  O401  1  0.88482403  1.00074339  0.48836955  1
  O  O402  1  0.88406084  0.99902665  0.99096631  1
  O  O403  1  0.12022405  0.00904724  -0.00067159  1
  O  O404  1  0.11198655  -0.00421542  0.49609129  1
  O  O405  1  0.11911671  0.50496236  0.00582082  1
  O  O406  1  0.11782063  0.51246556  0.49819546  1
  O  O407  1  0.61263935  -0.00439437  0.00450482  1
  O  O408  1  0.61309540  -0.00325002  0.50014998  1
  O  O409  1  0.62039164  0.50387369  -0.00737362  1
  O  O410  1  0.63233159  0.51019003  0.50634322  1
  O  O411  1  0.37083653  0.36082278  0.13242508  1
  O  O412  1  0.39057361  0.38944593  0.61700666  1
  O  O413  1  0.37724427  0.86773760  0.11669708  1
  O  O414  1  0.36526504  0.87013952  0.61754511  1
  O  O415  1  0.87123876  0.36567550  0.11923822  1
  O  O416  1  0.88111907  0.36040943  0.61772994  1
  O  O417  1  0.86630747  0.86977603  0.12158921  1
  O  O418  1  0.86134242  0.86195479  0.62873768  1
  O  O419  1  0.12965977  0.13348788  0.37198976  1
  O  O420  1  0.13810372  0.12258190  0.88273007  1
  O  O421  1  0.12046498  0.63856028  0.38115361  1
  O  O422  1  0.12936295  0.63806152  0.88329300  1
  O  O423  1  0.62753211  0.13610185  0.37870681  1
  O  O424  1  0.63757423  0.13090227  0.86766566  1
  O  O425  1  0.62240634  0.63494131  0.38137343  1
  O  O426  1  0.62074519  0.63860682  0.87383324  1
