# generated using pymatgen
data_V85Zn86O256
_symmetry_space_group_name_H-M   'P 1'
_cell_length_a   16.93233249
_cell_length_b   16.94852558
_cell_length_c   16.94945539
_cell_angle_alpha   89.97399021
_cell_angle_beta   89.91517242
_cell_angle_gamma   89.98318911
_symmetry_Int_Tables_number   1
_chemical_formula_structural   V85Zn86O256
_chemical_formula_sum   'V85 Zn86 O256'
_cell_volume   4864.11595975
_cell_formula_units_Z   1
loop_
 _symmetry_equiv_pos_site_id
 _symmetry_equiv_pos_as_xyz
  1  'x, y, z'
loop_
 _atom_site_type_symbol
 _atom_site_label
 _atom_site_symmetry_multiplicity
 _atom_site_fract_x
 _atom_site_fract_y
 _atom_site_fract_z
 _atom_site_occupancy
  V  V0  1  0.12795190  -0.00141595  0.12165624  1
  V  V1  1  0.62773353  0.62270315  0.00463572  1
  V  V2  1  0.74828736  0.62581160  0.37656112  1
  V  V3  1  0.50062903  0.11948498  0.10995832  1
  V  V4  1  0.74930199  0.87773101  0.62274058  1
  V  V5  1  0.87549381  0.62818488  0.25463624  1
  V  V6  1  0.62337002  0.37508008  0.75175434  1
  V  V7  1  0.12352437  0.87556445  0.25692665  1
  V  V8  1  0.74225553  0.24536800  0.50073194  1
  V  V9  1  0.24702015  0.50223939  0.25059449  1
  V  V10  1  0.38007581  -0.00276935  0.88044207  1
  V  V11  1  0.49889596  0.37043763  0.37768829  1
  V  V12  1  0.62144213  0.24601468  0.88035327  1
  V  V13  1  0.00851935  0.13012047  0.12047535  1
  V  V14  1  0.50124677  0.75248784  0.26821983  1
  V  V15  1  0.62200238  0.74919512  0.88138625  1
  V  V16  1  0.62030457  0.87289241  0.26283194  1
  V  V17  1  0.87768725  0.24969351  0.11995164  1
  V  V18  1  0.49779388  0.50113081  0.50628205  1
  V  V19  1  0.12948274  0.88418580  0.74857397  1
  V  V20  1  0.75114402  0.87195680  0.12766279  1
  V  V21  1  0.50382884  0.87679721  0.88578663  1
  V  V22  1  0.62219679  0.00800241  0.62833853  1
  V  V23  1  -0.00479368  0.75790986  0.24984650  1
  V  V24  1  -0.00472306  0.50808674  0.49871955  1
  V  V25  1  0.24311733  0.11246582  0.88088393  1
  V  V26  1  0.87369830  -0.00106662  0.87583592  1
  V  V27  1  0.00595423  0.38124368  0.86990031  1
  V  V28  1  0.75426479  0.62633884  0.87744572  1
  V  V29  1  0.87706329  0.86751976  0.00396279  1
  V  V30  1  0.39402148  0.63574868  0.73593730  1
  V  V31  1  0.12591501  0.37777746  0.25015523  1
  V  V32  1  0.75823604  0.49654230  0.25819091  1
  V  V33  1  0.11687341  0.74750770  0.38549145  1
  V  V34  1  0.62215446  -0.00104714  0.11244324  1
  V  V35  1  0.49162925  0.25152564  0.74838536  1
  V  V36  1  0.74530411  0.00499132  0.25519820  1
  V  V37  1  0.62677043  0.49957812  0.12679113  1
  V  V38  1  0.13170144  0.51284215  0.62086069  1
  V  V39  1  0.62516287  0.37500586  0.25142644  1
  V  V40  1  0.74555896  -0.00077798  0.75087625  1
  V  V41  1  0.37372379  0.12358948  0.24704671  1
  V  V42  1  0.60560728  0.84288986  0.72873754  1
  V  V43  1  0.18377177  0.32790591  0.69597477  1
  V  V44  1  -0.00077162  0.75643763  0.74723620  1
  V  V45  1  0.62237488  0.50119646  0.62586779  1
  V  V46  1  -0.00596006  0.62755332  0.12358834  1
  V  V47  1  0.87237428  0.62703914  0.74697926  1
  V  V48  1  0.25740050  0.88044366  0.62389257  1
  V  V49  1  0.00316894  0.25289260  0.24430157  1
  V  V50  1  0.86910563  0.75100581  0.62090803  1
  V  V51  1  0.74433893  0.12314926  0.88023088  1
  V  V52  1  0.37457973  0.62616386  0.25567920  1
  V  V53  1  0.37164364  0.49717747  0.37901081  1
  V  V54  1  0.37002751  0.36586390  0.51586007  1
  V  V55  1  0.13117171  0.24881065  0.38019236  1
  V  V56  1  0.25154620  0.12622390  0.38481312  1
  V  V57  1  0.48868752  0.49809511  0.00607768  1
  V  V58  1  0.37629657  -0.00971656  0.37420823  1
  V  V59  1  0.11827471  0.00536573  0.61228451  1
  V  V60  1  0.11945249  0.50532473  0.11703237  1
  V  V61  1  -0.01003221  0.24665960  0.74955970  1
  V  V62  1  0.86868631  0.12647605  0.24895644  1
  V  V63  1  0.36947040  0.51141235  0.87581766  1
  V  V64  1  0.49979892  -0.00550200  0.49552542  1
  V  V65  1  0.37158305  0.75171607  0.12590193  1
  V  V66  1  0.50113174  0.62785563  0.13032035  1
  V  V67  1  0.37093315  0.11913623  0.75038122  1
  V  V68  1  0.12309711  0.24460986  0.88276161  1
  V  V69  1  0.74854459  0.24897003  -0.00139813  1
  V  V70  1  0.62142323  0.62880679  0.49621007  1
  V  V71  1  0.49696460  0.24686920  0.24834543  1
  V  V72  1  0.75097258  0.50082970  0.75042380  1
  V  V73  1  0.00390200  0.00316209  -0.00035737  1
  V  V74  1  0.88305518  0.38163009  -0.00236269  1
  V  V75  1  0.75156346  0.37417656  0.12401335  1
  V  V76  1  0.49311429  0.12929365  0.62321997  1
  V  V77  1  0.88178204  0.87583612  0.48894975  1
  V  V78  1  0.24644315  0.51349553  0.75196947  1
  V  V79  1  0.92861670  0.19678912  0.57581650  1
  V  V80  1  0.49312472  0.37551784  0.88289986  1
  V  V81  1  0.75777788  0.74817852  0.00751990  1
  V  V82  1  0.25690849  0.74325558  0.50568861  1
  V  V83  1  0.75954965  0.37098777  0.62782762  1
  V  V84  1  -0.00664231  0.37779548  0.37699193  1
  Zn  Zn85  1  0.25321792  0.25085038  0.00079522  1
  Zn  Zn86  1  0.38053007  0.86943775  0.49937236  1
  Zn  Zn87  1  0.25039090  -0.00124890  0.25035899  1
  Zn  Zn88  1  0.37522701  0.87538345  0.00328979  1
  Zn  Zn89  1  0.00096402  0.00589924  0.49608908  1
  Zn  Zn90  1  0.63069587  0.24016845  0.36854596  1
  Zn  Zn91  1  0.00404225  0.63202904  0.61792689  1
  Zn  Zn92  1  0.87471781  0.12457098  0.74758545  1
  Zn  Zn93  1  0.87341955  0.37613892  0.50069713  1
  Zn  Zn94  1  0.12847634  0.62873618  -0.00667365  1
  Zn  Zn95  1  0.24277723  0.62163638  0.38373647  1
  Zn  Zn96  1  0.25021949  0.24959015  0.51634666  1
  Zn  Zn97  1  0.24946378  0.87285866  0.12434802  1
  Zn  Zn98  1  0.00491332  0.87883910  0.87563105  1
  Zn  Zn99  1  0.25076228  0.74631333  -0.01360375  1
  Zn  Zn100  1  0.26078442  0.37745543  0.11422639  1
  Zn  Zn101  1  0.13386258  0.74147773  0.86940166  1
  Zn  Zn102  1  0.74194912  0.75481870  0.49140658  1
  Zn  Zn103  1  0.87729856  0.00003884  0.36959649  1
  Zn  Zn104  1  0.62422223  0.12197003  0.48716095  1
  Zn  Zn105  1  0.37886198  0.26240678  0.10641308  1
  Zn  Zn106  1  0.87879685  0.50247597  0.87710433  1
  Zn  Zn107  1  0.19247974  0.19035151  0.18593823  1
  Zn  Zn108  1  0.18087076  0.16603340  0.69885659  1
  Zn  Zn109  1  0.18366653  0.68691645  0.18988967  1
  Zn  Zn110  1  0.19156854  0.69235329  0.69005510  1
  Zn  Zn111  1  0.68155467  0.18672759  0.18255422  1
  Zn  Zn112  1  0.68599351  0.18837766  0.69107373  1
  Zn  Zn113  1  0.68785853  0.69001029  0.19336513  1
  Zn  Zn114  1  0.67374281  0.69032427  0.68020807  1
  Zn  Zn115  1  0.31394557  0.31349450  0.30840395  1
  Zn  Zn116  1  0.31673025  0.30976418  0.83057705  1
  Zn  Zn117  1  0.30506234  0.81012529  0.31308848  1
  Zn  Zn118  1  0.31714922  0.80938237  0.80862099  1
  Zn  Zn119  1  0.81468221  0.30745493  0.31430823  1
  Zn  Zn120  1  0.81414672  0.31249854  0.81375282  1
  Zn  Zn121  1  0.80743663  0.81001935  0.31206252  1
  Zn  Zn122  1  0.80711861  0.81339233  0.81239988  1
  Zn  Zn123  1  0.18631706  0.43473346  0.44103391  1
  Zn  Zn124  1  0.18612181  0.44007758  0.93538719  1
  Zn  Zn125  1  0.19080510  0.93377119  0.43745515  1
  Zn  Zn126  1  0.19146175  0.92842722  0.93967779  1
  Zn  Zn127  1  0.68718004  0.43463207  0.43885647  1
  Zn  Zn128  1  0.68684261  0.43735503  0.93776041  1
  Zn  Zn129  1  0.68883184  0.94378900  0.43796911  1
  Zn  Zn130  1  0.68743318  0.93233946  0.93685255  1
  Zn  Zn131  1  0.31359406  0.06327557  0.05955720  1
  Zn  Zn132  1  0.31310579  0.05935844  0.56259102  1
  Zn  Zn133  1  0.30783254  0.56903960  0.06649845  1
  Zn  Zn134  1  0.31395388  0.56162695  0.56755833  1
  Zn  Zn135  1  0.81241461  0.05989785  0.06376889  1
  Zn  Zn136  1  0.80870984  0.05823091  0.55660731  1
  Zn  Zn137  1  0.81739420  0.56152125  0.06809764  1
  Zn  Zn138  1  0.81038320  0.56126706  0.56133822  1
  Zn  Zn139  1  0.43538096  0.43789250  0.19082567  1
  Zn  Zn140  1  0.43433636  0.44162842  0.69239707  1
  Zn  Zn141  1  0.44040000  0.93726112  0.18821370  1
  Zn  Zn142  1  0.43811708  0.93985644  0.69188155  1
  Zn  Zn143  1  0.93828319  0.43874146  0.18709896  1
  Zn  Zn144  1  0.94377695  0.43981408  0.68799298  1
  Zn  Zn145  1  0.93795679  0.93860715  0.18635031  1
  Zn  Zn146  1  0.93772436  0.94054787  0.68383544  1
  Zn  Zn147  1  0.06647980  0.06378148  0.30787569  1
  Zn  Zn148  1  0.05982404  0.05993085  0.80611820  1
  Zn  Zn149  1  0.06031203  0.56613153  0.31533855  1
  Zn  Zn150  1  0.06244309  0.56441947  0.80390795  1
  Zn  Zn151  1  0.56179087  0.06143041  0.31048095  1
  Zn  Zn152  1  0.55994934  0.06165762  0.81388408  1
  Zn  Zn153  1  0.56213787  0.55919496  0.31598585  1
  Zn  Zn154  1  0.56248214  0.56331825  0.81737050  1
  Zn  Zn155  1  0.43613767  0.18501062  0.43695509  1
  Zn  Zn156  1  0.43093459  0.18705551  0.93645938  1
  Zn  Zn157  1  0.43390944  0.68192264  0.44221317  1
  Zn  Zn158  1  0.43744057  0.68731278  0.93836226  1
  Zn  Zn159  1  0.96243618  0.15715343  0.40468309  1
  Zn  Zn160  1  0.93706816  0.18681299  0.93555673  1
  Zn  Zn161  1  0.93341794  0.68767962  0.43341211  1
  Zn  Zn162  1  0.96647797  0.67489037  0.92080482  1
  Zn  Zn163  1  0.08818858  0.32848342  0.04628059  1
  Zn  Zn164  1  0.06553109  0.31957094  0.55638180  1
  Zn  Zn165  1  0.06489861  0.81161914  0.06378915  1
  Zn  Zn166  1  0.06186209  0.81774086  0.56412585  1
  Zn  Zn167  1  0.56026545  0.31141089  0.06351739  1
  Zn  Zn168  1  0.56352108  0.31420869  0.56547132  1
  Zn  Zn169  1  0.56217954  0.81096067  0.06869542  1
  Zn  Zn170  1  0.56283765  0.81234441  0.55951340  1
  O  O171  1  0.11369171  0.11834311  0.13287077  1
  O  O172  1  0.13105757  0.10439083  0.62142423  1
  O  O173  1  0.11195175  0.61932529  0.13023812  1
  O  O174  1  0.12377814  0.61595974  0.62600793  1
  O  O175  1  0.60928775  0.11509878  0.12757323  1
  O  O176  1  0.61577155  0.11820523  0.62537789  1
  O  O177  1  0.62159061  0.62009646  0.12440127  1
  O  O178  1  0.63237611  0.60715958  0.61322907  1
  O  O179  1  0.38528440  0.37879759  0.37886226  1
  O  O180  1  0.38855601  0.38987564  0.87197438  1
  O  O181  1  0.36804440  0.88751840  0.37425265  1
  O  O182  1  0.38759211  0.88103514  0.87087940  1
  O  O183  1  0.89023046  0.36957324  0.37651422  1
  O  O184  1  0.88461163  0.37601965  0.88188968  1
  O  O185  1  0.86843130  0.87638802  0.38620814  1
  O  O186  1  0.86902307  0.88788245  0.88200092  1
  O  O187  1  0.25681991  0.00926366  0.37439717  1
  O  O188  1  0.25476485  0.00839297  0.87597669  1
  O  O189  1  0.25245891  0.50056770  0.37123567  1
  O  O190  1  0.25754989  0.49631889  0.86673817  1
  O  O191  1  0.75299784  -0.00079273  0.35872633  1
  O  O192  1  0.75254053  0.00529815  0.87209891  1
  O  O193  1  0.74567319  0.50546648  0.36695804  1
  O  O194  1  0.75202983  0.50768872  0.86834199  1
  O  O195  1  0.23895235  0.49882292  0.13556661  1
  O  O196  1  0.23811599  0.49992241  0.63138433  1
  O  O197  1  0.23688201  1.00387771  0.12526973  1
  O  O198  1  0.23968962  0.98603105  0.61630916  1
  O  O199  1  0.74588897  0.49199753  0.13380504  1
  O  O200  1  0.74323692  0.49145536  0.63091335  1
  O  O201  1  0.74189142  0.99092305  0.13177368  1
  O  O202  1  0.74259754  0.99647414  0.62934852  1
  O  O203  1  0.00445594  0.37194013  0.25807030  1
  O  O204  1  -0.00703710  0.36392902  0.76176479  1
  O  O205  1  0.00595924  0.86893815  0.24847239  1
  O  O206  1  0.01148239  0.87300683  0.74460733  1
  O  O207  1  0.50392663  0.36777586  0.25835066  1
  O  O208  1  0.50301943  0.36908362  0.75799079  1
  O  O209  1  0.51282201  0.86862577  0.25015152  1
  O  O210  1  0.51233485  0.87785009  0.75841427  1
  O  O211  1  0.49065048  0.13124846  0.24377083  1
  O  O212  1  0.49220472  0.13212942  0.74433761  1
  O  O213  1  0.49699594  0.63127856  0.24967915  1
  O  O214  1  0.49356976  0.61951535  0.74853269  1
  O  O215  1  0.99194534  0.13362359  0.23860387  1
  O  O216  1  0.99918227  0.13970328  0.74978948  1
  O  O217  1  0.99079369  0.63339516  0.25032928  1
  O  O218  1  0.98528682  0.63564799  0.74053172  1
  O  O219  1  0.36871635  0.25978305  -0.00995437  1
  O  O220  1  0.37508742  0.26219674  0.50109382  1
  O  O221  1  0.37883137  0.74959939  0.01414201  1
  O  O222  1  0.36184856  0.75209612  0.49874976  1
  O  O223  1  0.86970897  0.25888449  0.00183092  1
  O  O224  1  0.86734318  0.25078885  0.51143727  1
  O  O225  1  0.87588716  0.76466861  -0.00362556  1
  O  O226  1  0.87016755  0.76024504  0.50348879  1
  O  O227  1  0.13227869  0.25935787  0.48503782  1
  O  O228  1  0.11225467  0.23238574  0.98213605  1
  O  O229  1  0.12871545  0.75802792  0.48906130  1
  O  O230  1  0.12116632  0.74965823  0.99090110  1
  O  O231  1  0.63349300  0.24965766  0.49874185  1
  O  O232  1  0.63022434  0.25644536  0.98725669  1
  O  O233  1  0.62178457  0.73303432  0.49976158  1
  O  O234  1  0.63389616  0.74349320  0.99840632  1
  O  O235  1  0.49953281  0.23772671  0.13052078  1
  O  O236  1  0.50616986  0.24084467  0.63581653  1
  O  O237  1  0.49212398  0.74386633  0.13614236  1
  O  O238  1  0.57260862  0.76376073  0.66134731  1
  O  O239  1  0.99976640  0.24460957  0.12547787  1
  O  O240  1  0.99546685  0.25769618  0.62944801  1
  O  O241  1  1.00462692  0.74311436  0.14273991  1
  O  O242  1  0.98887426  0.75245193  0.62972250  1
  O  O243  1  0.01152986  0.25509063  0.36524827  1
  O  O244  1  0.00448860  0.25332329  0.86511895  1
  O  O245  1  0.01039899  0.74895401  0.36946274  1
  O  O246  1  -0.01473065  0.76575685  0.85265480  1
  O  O247  1  0.50004196  0.25564097  0.36679677  1
  O  O248  1  0.50541416  0.25720477  0.87174103  1
  O  O249  1  0.49540497  0.74621107  0.36749558  1
  O  O250  1  0.51405564  0.75549723  0.88107494  1
  O  O251  1  0.25941473  0.13267950  0.48903218  1
  O  O252  1  0.25094796  0.12584107  0.98318973  1
  O  O253  1  0.25184530  0.63898419  0.50407679  1
  O  O254  1  0.24215693  0.63237470  1.00601663  1
  O  O255  1  0.74626850  0.14174370  0.50730381  1
  O  O256  1  0.75496791  0.13075307  0.98823778  1
  O  O257  1  0.74174902  0.62242539  0.49150542  1
  O  O258  1  0.74936749  0.62881101  1.00035379  1
  O  O259  1  0.20393704  0.36055110  0.01273854  1
  O  O260  1  0.26629928  0.37159592  0.49868149  1
  O  O261  1  0.25616484  0.86587617  0.00751808  1
  O  O262  1  0.25445017  0.86606629  0.50954954  1
  O  O263  1  0.75775235  0.36912912  0.00395386  1
  O  O264  1  0.75262083  0.36845756  0.51066148  1
  O  O265  1  0.75638135  0.86892628  0.00868106  1
  O  O266  1  0.75451575  0.87615836  0.50847318  1
  O  O267  1  0.13122559  0.49728910  0.24991308  1
  O  O268  1  0.13251720  0.50374692  0.73758652  1
  O  O269  1  0.12476145  0.99167811  0.24302944  1
  O  O270  1  0.12162861  0.98886503  0.73634723  1
  O  O271  1  0.63279509  0.49344192  0.24522834  1
  O  O272  1  0.63013570  0.49670796  0.74478666  1
  O  O273  1  0.62840590  0.98905295  0.24198326  1
  O  O274  1  0.62964111  1.00019312  0.74160859  1
  O  O275  1  0.37546829  0.00716113  0.25651907  1
  O  O276  1  0.38031987  0.00995180  0.76265839  1
  O  O277  1  0.36697877  0.50565165  0.25914092  1
  O  O278  1  0.36680618  0.50702538  0.75783369  1
  O  O279  1  0.86619100  0.00880636  0.24729006  1
  O  O280  1  0.86671078  -0.00077408  0.75737133  1
  O  O281  1  0.86269041  0.50357807  0.24929591  1
  O  O282  1  0.86968870  0.51128834  0.74728873  1
  O  O283  1  0.11751702  0.37121109  0.36610057  1
  O  O284  1  0.11106833  0.36425901  0.87442186  1
  O  O285  1  0.12792373  0.86546853  0.36531256  1
  O  O286  1  0.12435572  0.88042664  0.85673445  1
  O  O287  1  0.61234771  0.37289523  0.37047001  1
  O  O288  1  0.61472229  0.37069900  0.86997886  1
  O  O289  1  0.63029418  0.87836490  0.36142749  1
  O  O290  1  0.61969621  0.86600359  0.87058081  1
  O  O291  1  0.38632649  0.12220025  0.13060425  1
  O  O292  1  0.38311756  0.11916772  0.63456912  1
  O  O293  1  0.38315820  0.62894935  0.13753487  1
  O  O294  1  0.38212568  0.61974752  0.63620349  1
  O  O295  1  0.88485112  0.13054624  0.12731922  1
  O  O296  1  0.87281550  0.12703778  0.62719520  1
  O  O297  1  0.87867569  0.62124962  0.14443191  1
  O  O298  1  0.87016719  0.63895995  0.62713522  1
  O  O299  1  0.25740352  0.25317923  0.12105956  1
  O  O300  1  0.23224730  0.25935522  0.63704477  1
  O  O301  1  0.26618092  0.74766653  0.13660679  1
  O  O302  1  0.24048611  0.76226890  0.61087158  1
  O  O303  1  0.75361883  0.25566034  0.11788563  1
  O  O304  1  0.74022641  0.26008360  0.61641419  1
  O  O305  1  0.74654713  0.76242337  0.12273875  1
  O  O306  1  0.75279178  0.76016889  0.61853605  1
  O  O307  1  0.24587322  0.24388411  0.37145058  1
  O  O308  1  0.23796103  0.23975948  0.87504332  1
  O  O309  1  0.23966634  0.74902325  0.39016321  1
  O  O310  1  0.24636556  0.75184704  0.87017358  1
  O  O311  1  0.74789896  0.26240554  0.39609557  1
  O  O312  1  0.74166118  0.24304434  0.87781171  1
  O  O313  1  0.74847465  0.73270267  0.37447284  1
  O  O314  1  0.74993407  0.74465737  0.89129962  1
  O  O315  1  -0.00765042  0.11202818  0.00708985  1
  O  O316  1  -0.01141499  0.14180067  0.51590540  1
  O  O317  1  -0.01532373  0.62925567  0.02329027  1
  O  O318  1  -0.00413667  0.61282444  0.49919187  1
  O  O319  1  0.49779542  0.12710952  0.01182347  1
  O  O320  1  0.49850417  0.11705891  0.50998277  1
  O  O321  1  0.50735504  0.61626684  0.00872741  1
  O  O322  1  0.50560304  0.60963035  0.49617977  1
  O  O323  1  0.49247034  0.37896082  0.49482000  1
  O  O324  1  0.50770731  0.38736323  0.99379753  1
  O  O325  1  0.49761659  0.88767397  0.50760349  1
  O  O326  1  0.50092142  0.87108098  0.98942690  1
  O  O327  1  0.99621158  0.38464908  0.49355570  1
  O  O328  1  0.99455012  0.36828223  0.98352483  1
  O  O329  1  0.98351805  0.87628194  0.49999807  1
  O  O330  1  0.99237257  0.88647690  1.00049495  1
  O  O331  1  0.49380621  0.48977164  0.38413768  1
  O  O332  1  0.49555560  0.49411393  0.88678620  1
  O  O333  1  0.49040194  1.00457502  0.38518415  1
  O  O334  1  0.49441826  0.99022956  0.87462734  1
  O  O335  1  1.00889281  0.49281265  0.39027915  1
  O  O336  1  0.99852242  0.48376849  0.86479952  1
  O  O337  1  0.98791657  1.03856658  0.38542514  1
  O  O338  1  0.99168971  0.99955939  0.88107701  1
  O  O339  1  0.00861542  0.00762101  0.11861414  1
  O  O340  1  0.01263465  -0.00245954  0.61717064  1
  O  O341  1  0.00781883  0.51414161  0.13722703  1
  O  O342  1  0.01086661  0.50364327  0.61638027  1
  O  O343  1  0.50652215  0.01105398  0.12680206  1
  O  O344  1  0.50588762  0.00850262  0.62105027  1
  O  O345  1  0.50586464  0.50683592  0.12227987  1
  O  O346  1  0.50879150  0.49016967  0.61615630  1
  O  O347  1  0.24152110  0.38723717  0.25141433  1
  O  O348  1  0.25085013  0.37945498  0.75279187  1
  O  O349  1  0.23859654  0.87802673  0.24581759  1
  O  O350  1  0.23945245  0.86911640  0.73392874  1
  O  O351  1  0.74714080  0.37942620  0.24713888  1
  O  O352  1  0.74360767  0.37876413  0.74666272  1
  O  O353  1  0.74097810  0.87986844  0.24407400  1
  O  O354  1  0.73808445  0.87712206  0.73607167  1
  O  O355  1  0.26436679  0.12446602  0.25490687  1
  O  O356  1  0.26453189  0.12707542  0.76266554  1
  O  O357  1  0.25320495  0.61425571  0.25438109  1
  O  O358  1  0.25853605  0.61604320  0.74596659  1
  O  O359  1  0.75594809  0.11461458  0.23185005  1
  O  O360  1  0.75038849  0.11968472  0.76238846  1
  O  O361  1  0.75344509  0.61682698  0.25665622  1
  O  O362  1  0.75894787  0.62350354  0.75296273  1
  O  O363  1  0.36969975  0.11806017  0.36630239  1
  O  O364  1  0.36767842  0.11553081  0.86939498  1
  O  O365  1  0.36947824  0.61482417  0.37223415  1
  O  O366  1  0.38473680  0.61358433  0.86635742  1
  O  O367  1  0.86287963  0.13655233  0.35097230  1
  O  O368  1  0.86671436  0.11247793  0.87444405  1
  O  O369  1  0.86584945  0.62233450  0.36519189  1
  O  O370  1  0.87301166  0.62365832  0.86485018  1
  O  O371  1  0.11290719  0.38876247  0.14308370  1
  O  O372  1  0.12511427  0.38465131  0.63345146  1
  O  O373  1  0.12395944  0.88361067  0.13583128  1
  O  O374  1  0.13228792  0.88266978  0.63022806  1
  O  O375  1  0.63069686  0.37907491  0.13164635  1
  O  O376  1  0.63175896  0.38389564  0.63254813  1
  O  O377  1  0.63098058  0.88170755  0.13231714  1
  O  O378  1  0.63194682  0.89245287  0.62430677  1
  O  O379  1  0.12330486  0.26122032  0.25507528  1
  O  O380  1  0.12219023  0.25895253  0.75107928  1
  O  O381  1  0.11843262  0.75817730  0.26051290  1
  O  O382  1  0.11432611  0.76031923  0.74660859  1
  O  O383  1  0.61410172  0.25661776  0.24805687  1
  O  O384  1  0.61477489  0.25440898  0.76167160  1
  O  O385  1  0.61719575  0.76406952  0.24817221  1
  O  O386  1  0.65188522  0.74975161  0.77832702  1
  O  O387  1  0.38713797  0.24340429  0.24868213  1
  O  O388  1  0.38756700  0.24261637  0.76149173  1
  O  O389  1  0.38217009  0.74485828  0.25039206  1
  O  O390  1  0.38088849  0.73465793  0.74750920  1
  O  O391  1  0.87965541  0.24731289  0.23762967  1
  O  O392  1  0.88228167  0.24502829  0.75184973  1
  O  O393  1  0.88364755  0.74328354  0.25687828  1
  O  O394  1  0.87379615  0.74855452  0.73847255  1
  O  O395  1  0.38061915  0.49054589  0.49826991  1
  O  O396  1  0.38423260  0.50799983  0.99591657  1
  O  O397  1  0.38260579  0.99725786  0.49176850  1
  O  O398  1  0.37264100  0.99649955  0.98580022  1
  O  O399  1  0.89132877  0.49674629  0.50740937  1
  O  O400  1  0.87180216  0.48532997  0.99944619  1
  O  O401  1  0.87452641  0.98826675  0.49558608  1
  O  O402  1  0.87984893  0.99232860  0.99344010  1
  O  O403  1  0.11518956  -0.00688856  0.00756440  1
  O  O404  1  0.12050241  -0.00664195  0.50743545  1
  O  O405  1  0.12178839  0.50494041  0.01435709  1
  O  O406  1  0.11714527  0.49371281  0.51453348  1
  O  O407  1  0.63083529  -0.00456209  0.01328846  1
  O  O408  1  0.61820035  0.00364080  0.50788842  1
  O  O409  1  0.61956495  0.50498234  0.00835367  1
  O  O410  1  0.61617362  0.50093213  0.50737526  1
  O  O411  1  0.37393934  0.37630594  0.12519740  1
  O  O412  1  0.37916680  0.37531752  0.61404487  1
  O  O413  1  0.37624039  0.86581608  0.12663649  1
  O  O414  1  0.36094670  0.88182818  0.62722857  1
  O  O415  1  0.87335250  0.36930002  0.11707383  1
  O  O416  1  0.86217923  0.37939900  0.62875338  1
  O  O417  1  0.86340384  0.88303089  0.11654764  1
  O  O418  1  0.86677442  0.86926436  0.61746831  1
  O  O419  1  0.13930990  0.13696569  0.36533330  1
  O  O420  1  0.13827085  0.12749058  0.85986085  1
  O  O421  1  0.12617330  0.64350851  0.37245760  1
  O  O422  1  0.07822892  0.63733742  0.88629983  1
  O  O423  1  0.62481107  0.12708015  0.37351475  1
  O  O424  1  0.63078903  0.13404490  0.87276936  1
  O  O425  1  0.63282479  0.61494476  0.38604499  1
  O  O426  1  0.63301840  0.62929993  0.88577761  1
