# generated using pymatgen
data_V85Zn86O256
_symmetry_space_group_name_H-M   'P 1'
_cell_length_a   16.94453530
_cell_length_b   16.92447525
_cell_length_c   16.94091934
_cell_angle_alpha   89.98368284
_cell_angle_beta   90.01298175
_cell_angle_gamma   90.08429098
_symmetry_Int_Tables_number   1
_chemical_formula_structural   V85Zn86O256
_chemical_formula_sum   'V85 Zn86 O256'
_cell_volume   4858.26668485
_cell_formula_units_Z   1
loop_
 _symmetry_equiv_pos_site_id
 _symmetry_equiv_pos_as_xyz
  1  'x, y, z'
loop_
 _atom_site_type_symbol
 _atom_site_label
 _atom_site_symmetry_multiplicity
 _atom_site_fract_x
 _atom_site_fract_y
 _atom_site_fract_z
 _atom_site_occupancy
  V  V0  1  0.00555763  0.61961104  0.62010932  1
  V  V1  1  0.62542214  0.87506038  0.25334390  1
  V  V2  1  -0.00135724  0.12536045  0.12527910  1
  V  V3  1  0.37617123  0.12487145  0.24803962  1
  V  V4  1  0.36171652  0.61556967  0.26303552  1
  V  V5  1  0.74511518  0.24647280  0.00121480  1
  V  V6  1  0.74606020  0.51189115  0.25411601  1
  V  V7  1  0.25015961  0.38251885  0.12796479  1
  V  V8  1  0.24320594  0.50661673  0.75736961  1
  V  V9  1  -0.00293153  0.25137582  0.75199850  1
  V  V10  1  -0.00199263  0.88285078  0.87978881  1
  V  V11  1  0.50210564  0.88226589  0.37968651  1
  V  V12  1  0.12398456  0.24990030  0.87824247  1
  V  V13  1  0.74584067  0.74287425  0.50338244  1
  V  V14  1  0.12855361  0.88431273  0.75077432  1
  V  V15  1  0.24529351  0.37961703  0.63099515  1
  V  V16  1  0.62658151  0.24985095  0.36413076  1
  V  V17  1  0.49858021  0.11703434  0.62287050  1
  V  V18  1  0.25060246  0.88382422  0.62658206  1
  V  V19  1  0.12233459  0.62665811  0.00415488  1
  V  V20  1  0.37524814  0.75188191  0.62319568  1
  V  V21  1  0.37268779  0.62791460  0.75935691  1
  V  V22  1  0.87677199  0.37591239  0.50064458  1
  V  V23  1  0.88800869  0.74544374  0.12890533  1
  V  V24  1  0.50045015  0.37513228  0.87370256  1
  V  V25  1  0.75002864  0.38555904  0.63126027  1
  V  V26  1  0.62214557  0.24018745  0.87783067  1
  V  V27  1  0.74464584  0.25039984  0.50251185  1
  V  V28  1  0.62742935  0.75292666  0.87492045  1
  V  V29  1  0.62181529  0.49770440  0.13138526  1
  V  V30  1  0.12719312  0.50262422  0.13254640  1
  V  V31  1  0.87833520  0.88506523  -0.00082247  1
  V  V32  1  -0.00191854  0.50577741  0.00656420  1
  V  V33  1  0.50322097  0.12525482  0.11662892  1
  V  V34  1  0.37258878  0.00027323  0.86546503  1
  V  V35  1  0.11807544  -0.00433521  0.12118108  1
  V  V36  1  0.62681503  0.73536452  0.38282312  1
  V  V37  1  0.50140823  0.50339589  -0.00070165  1
  V  V38  1  -0.00158097  0.37578172  0.87874671  1
  V  V39  1  0.35257023  0.39942958  0.45610370  1
  V  V40  1  0.64286723  0.88045890  0.74721344  1
  V  V41  1  0.00420268  -0.00341027  0.49946513  1
  V  V42  1  0.50321013  0.75504580  0.74950085  1
  V  V43  1  0.49882560  0.24987011  0.74441313  1
  V  V44  1  0.74697161  0.37502293  0.13510128  1
  V  V45  1  0.24949011  0.87608502  0.12583080  1
  V  V46  1  0.37744136  0.25695813  0.62012404  1
  V  V47  1  0.87740654  0.12976948  0.25074366  1
  V  V48  1  0.75103376  0.87271695  0.12797339  1
  V  V49  1  0.61977166  0.12402472  0.49925677  1
  V  V50  1  0.00253670  0.12716987  0.62310843  1
  V  V51  1  0.50815443  0.38483688  0.37150242  1
  V  V52  1  0.87464606  0.37424382  0.00256352  1
  V  V53  1  -0.00091366  0.86450757  0.37304802  1
  V  V54  1  0.50446681  0.62036343  0.61685005  1
  V  V55  1  0.87135971  0.50127841  0.87597788  1
  V  V56  1  0.12945020  0.73552853  0.38111578  1
  V  V57  1  0.37435236  0.24974800  0.12277961  1
  V  V58  1  0.37735260  0.87814466  -0.00179983  1
  V  V59  1  0.12106808  0.86644561  0.25151132  1
  V  V60  1  0.24329291  0.11763273  0.86547280  1
  V  V61  1  0.37579985  0.00525381  0.37915390  1
  V  V62  1  0.62758869  0.38518719  0.75018842  1
  V  V63  1  0.75687479  0.11724570  0.87382219  1
  V  V64  1  0.37495828  0.37589600  -0.00125998  1
  V  V65  1  0.87315124  0.50468788  0.37607188  1
  V  V66  1  0.12987514  0.74530971  0.87353866  1
  V  V67  1  0.87377626  0.24986410  0.62851714  1
  V  V68  1  0.88925610  0.62929461  0.25026475  1
  V  V69  1  -0.00238574  0.36071023  0.36261062  1
  V  V70  1  0.87447919  -0.00373714  0.37249522  1
  V  V71  1  0.64451827  -0.00096035  0.62498823  1
  V  V72  1  0.11722725  0.11442576  -0.00705966  1
  V  V73  1  0.62461640  0.00094866  0.12044913  1
  V  V74  1  0.49838526  0.74870900  0.25333683  1
  V  V75  1  0.23954425  0.12961111  0.37104529  1
  V  V76  1  0.75242308  0.74682170  0.00355347  1
  V  V77  1  0.87055560  0.75751074  0.62558613  1
  V  V78  1  0.00187103  0.74873305  0.75084555  1
  V  V79  1  0.25354829  0.74297048  -0.00399401  1
  V  V80  1  0.24536483  0.24866037  0.49853852  1
  V  V81  1  0.37468711  0.87834415  0.49821454  1
  V  V82  1  0.37482537  0.74904872  0.12838124  1
  V  V83  1  0.74699520  0.61869606  0.87283769  1
  V  V84  1  0.87139872  0.62116086  0.74978306  1
  Zn  Zn85  1  0.36824282  0.12239259  0.74459431  1
  Zn  Zn86  1  0.86201642  0.10365826  0.74549251  1
  Zn  Zn87  1  0.86809264  0.87622765  0.50396155  1
  Zn  Zn88  1  0.17155728  0.56177418  0.56033427  1
  Zn  Zn89  1  0.12031273  0.13152449  0.49193432  1
  Zn  Zn90  1  0.62399663  0.62645126  0.00236269  1
  Zn  Zn91  1  0.87374439  0.25126090  0.13014734  1
  Zn  Zn92  1  0.75024670  -0.00190038  0.25121805  1
  Zn  Zn93  1  0.12226074  0.38293172  0.75136935  1
  Zn  Zn94  1  0.12433665  0.36206724  0.25291159  1
  Zn  Zn95  1  0.24933317  0.73447390  0.49840356  1
  Zn  Zn96  1  0.50417144  0.88082151  0.87337396  1
  Zn  Zn97  1  0.24979528  0.24693424  -0.00399038  1
  Zn  Zn98  1  0.50554310  0.25562380  0.24665673  1
  Zn  Zn99  1  0.00635807  0.49987876  0.49715225  1
  Zn  Zn100  1  0.63312809  0.51450736  0.61615471  1
  Zn  Zn101  1  0.24813073  -0.00154382  0.24988953  1
  Zn  Zn102  1  0.75043919  0.12249944  0.37451396  1
  Zn  Zn103  1  0.49955029  0.62484754  0.12725799  1
  Zn  Zn104  1  0.13017558  0.00558276  0.62548041  1
  Zn  Zn105  1  0.37118134  0.50566537  0.87787505  1
  Zn  Zn106  1  0.50202345  0.00455016  -0.00470651  1
  Zn  Zn107  1  0.18926111  0.18791176  0.18436668  1
  Zn  Zn108  1  0.18341977  0.19273580  0.68887826  1
  Zn  Zn109  1  0.18585626  0.68781050  0.18914138  1
  Zn  Zn110  1  0.19211336  0.69302107  0.68787968  1
  Zn  Zn111  1  0.69277381  0.18024251  0.18624188  1
  Zn  Zn112  1  0.68520868  0.19032589  0.69020061  1
  Zn  Zn113  1  0.68645216  0.68598025  0.18935181  1
  Zn  Zn114  1  0.68877773  0.69008742  0.68805624  1
  Zn  Zn115  1  0.30790895  0.31279292  0.30629155  1
  Zn  Zn116  1  0.31195210  0.31266292  0.81190013  1
  Zn  Zn117  1  0.30836653  0.81019316  0.31400067  1
  Zn  Zn118  1  0.31171933  0.81523445  0.81160475  1
  Zn  Zn119  1  0.81189727  0.31259904  0.31427388  1
  Zn  Zn120  1  0.81038776  0.30899569  0.81412762  1
  Zn  Zn121  1  0.80936862  0.80800763  0.31633247  1
  Zn  Zn122  1  0.81581982  0.81004874  0.81636811  1
  Zn  Zn123  1  0.18049432  0.43032502  0.43258749  1
  Zn  Zn124  1  0.18735061  0.43986295  0.93881161  1
  Zn  Zn125  1  0.18882345  0.93673672  0.43598267  1
  Zn  Zn126  1  0.18899225  0.93418372  0.93577132  1
  Zn  Zn127  1  0.68824531  0.44150620  0.43715125  1
  Zn  Zn128  1  0.68538420  0.43409567  0.94052819  1
  Zn  Zn129  1  0.69001042  0.93323372  0.44445162  1
  Zn  Zn130  1  0.68924676  0.93529055  0.94015648  1
  Zn  Zn131  1  0.30619938  0.06149046  0.05651583  1
  Zn  Zn132  1  0.31296510  0.06580810  0.55902260  1
  Zn  Zn133  1  0.31384441  0.56545402  0.06562145  1
  Zn  Zn134  1  0.33290663  0.55920982  0.56728732  1
  Zn  Zn135  1  0.80817269  0.06309165  0.06212022  1
  Zn  Zn136  1  0.81683624  0.06543264  0.55717987  1
  Zn  Zn137  1  0.81110088  0.56387572  0.06687863  1
  Zn  Zn138  1  0.81534654  0.56685796  0.56120603  1
  Zn  Zn139  1  0.43944211  0.43645996  0.19310044  1
  Zn  Zn140  1  0.43410344  0.44048491  0.69008546  1
  Zn  Zn141  1  0.43819111  0.93876052  0.18971065  1
  Zn  Zn142  1  0.44223759  0.93748053  0.68715765  1
  Zn  Zn143  1  0.93466030  0.44224776  0.18659317  1
  Zn  Zn144  1  0.93586235  0.43916366  0.69030101  1
  Zn  Zn145  1  0.93905579  0.93675454  0.18815957  1
  Zn  Zn146  1  0.93922728  0.93767894  0.68858012  1
  Zn  Zn147  1  0.05955068  0.05602350  0.30682124  1
  Zn  Zn148  1  0.02654612  0.04999028  0.80396120  1
  Zn  Zn149  1  0.05883309  0.55505698  0.31375663  1
  Zn  Zn150  1  0.06193697  0.56452748  0.81663780  1
  Zn  Zn151  1  0.56179743  0.06457060  0.30880485  1
  Zn  Zn152  1  0.56252574  0.06207850  0.80870953  1
  Zn  Zn153  1  0.55653960  0.56230582  0.30950561  1
  Zn  Zn154  1  0.56078343  0.56512270  0.81000733  1
  Zn  Zn155  1  0.43833768  0.19849996  0.43756855  1
  Zn  Zn156  1  0.43406439  0.18583828  0.93406599  1
  Zn  Zn157  1  0.43596941  0.68862796  0.43753091  1
  Zn  Zn158  1  0.44218243  0.69122206  0.93780833  1
  Zn  Zn159  1  0.93295298  0.18577158  0.43941287  1
  Zn  Zn160  1  0.93637517  0.18605634  0.94275292  1
  Zn  Zn161  1  0.93502217  0.68754968  0.43915325  1
  Zn  Zn162  1  0.93801348  0.69026164  0.93837833  1
  Zn  Zn163  1  0.07683446  0.29621603  0.08955816  1
  Zn  Zn164  1  0.06475079  0.31789652  0.56081662  1
  Zn  Zn165  1  0.06185720  0.81048948  0.06233465  1
  Zn  Zn166  1  0.06293593  0.81038825  0.56153737  1
  Zn  Zn167  1  0.56300584  0.31444052  0.06370968  1
  Zn  Zn168  1  0.56961037  0.35920596  0.54532263  1
  Zn  Zn169  1  0.56243377  0.81437357  0.06380406  1
  Zn  Zn170  1  0.56305416  0.81788150  0.56188877  1
  O  O171  1  0.11845158  0.11357928  0.11500970  1
  O  O172  1  0.11390120  0.12629116  0.62165099  1
  O  O173  1  0.12924633  0.61963735  0.11307704  1
  O  O174  1  0.10924073  0.63145027  0.63207612  1
  O  O175  1  0.61547712  0.11456871  0.13013494  1
  O  O176  1  0.62044126  0.11733557  0.62073616  1
  O  O177  1  0.62293347  0.61291404  0.12347788  1
  O  O178  1  0.61040921  0.62782918  0.63185889  1
  O  O179  1  0.39624999  0.35174638  0.36752702  1
  O  O180  1  0.38271002  0.37542724  0.88317477  1
  O  O181  1  0.37852691  0.88250949  0.38012207  1
  O  O182  1  0.37624717  0.88230900  0.88181005  1
  O  O183  1  0.87899862  0.38004804  0.38309215  1
  O  O184  1  0.87558708  0.38170842  0.88243037  1
  O  O185  1  0.88347612  0.87815371  0.37411831  1
  O  O186  1  0.88217587  0.86851940  0.89008299  1
  O  O187  1  0.25829365  0.00966970  0.37198348  1
  O  O188  1  0.25717770  0.00641983  0.87648703  1
  O  O189  1  0.28432587  0.43975631  0.38924174  1
  O  O190  1  0.25373990  0.49808945  0.86385042  1
  O  O191  1  0.76455812  -0.00265721  0.37820735  1
  O  O192  1  0.74324086  0.01912538  0.88453852  1
  O  O193  1  0.76164706  0.49199174  0.36639080  1
  O  O194  1  0.75229773  0.51203201  0.88300680  1
  O  O195  1  0.24164391  0.49462087  0.11839533  1
  O  O196  1  0.25467857  0.49215908  0.63681531  1
  O  O197  1  0.24006536  0.99334021  0.12613275  1
  O  O198  1  0.24963171  0.98959470  0.61992444  1
  O  O199  1  0.74248825  0.49446879  0.13280287  1
  O  O200  1  0.75284310  0.48931598  0.62462505  1
  O  O201  1  0.74147457  0.99157008  0.12591451  1
  O  O202  1  0.74352771  1.00655152  0.62697071  1
  O  O203  1  -0.01182033  0.37294713  0.26067042  1
  O  O204  1  0.00000958  0.36781432  0.75706971  1
  O  O205  1  0.00812036  0.87712640  0.26042252  1
  O  O206  1  0.00703944  0.86151585  0.75870190  1
  O  O207  1  0.50259787  0.37136523  0.26174284  1
  O  O208  1  0.50564263  0.36914122  0.75409838  1
  O  O209  1  0.50220296  0.86543526  0.25835303  1
  O  O210  1  0.50791881  0.86522559  0.74955187  1
  O  O211  1  0.48785594  0.12653502  0.23893771  1
  O  O212  1  0.49813551  0.13344282  0.74030889  1
  O  O213  1  0.49243646  0.63883898  0.24897928  1
  O  O214  1  0.49573320  0.64010012  0.74614625  1
  O  O215  1  0.99170494  0.11849770  0.23794158  1
  O  O216  1  1.00664445  0.14336723  0.74032932  1
  O  O217  1  0.98743153  0.62070210  0.24758073  1
  O  O218  1  0.99387744  0.63380158  0.74688549  1
  O  O219  1  0.37674144  0.25819407  0.00689880  1
  O  O220  1  0.36334383  0.25375277  0.50719684  1
  O  O221  1  0.37043506  0.75499352  0.00621792  1
  O  O222  1  0.37328046  0.75945340  0.50796184  1
  O  O223  1  0.86348803  0.26010988  -0.00012740  1
  O  O224  1  0.86405024  0.25439139  0.50691477  1
  O  O225  1  0.86542393  0.75045587  0.00948904  1
  O  O226  1  0.86861800  0.75016264  0.51010283  1
  O  O227  1  0.14001435  0.25138834  0.50262133  1
  O  O228  1  0.12237321  0.24007093  0.98935617  1
  O  O229  1  0.12727979  0.75150605  0.48573062  1
  O  O230  1  0.13300469  0.74622714  0.99514824  1
  O  O231  1  0.63546855  0.24661082  0.49510352  1
  O  O232  1  0.63287235  0.25866125  0.99034152  1
  O  O233  1  0.62727572  0.75398761  0.48953898  1
  O  O234  1  0.63681697  0.75214545  0.99667785  1
  O  O235  1  0.49473516  0.24418295  0.12660073  1
  O  O236  1  0.49325783  0.24457198  0.63173318  1
  O  O237  1  0.49302237  0.75165194  0.13523853  1
  O  O238  1  0.49232771  0.74957305  0.63078606  1
  O  O239  1  0.98616092  0.22801044  0.10591046  1
  O  O240  1  0.99553556  0.24722150  0.63015668  1
  O  O241  1  0.98729770  0.74980182  0.12449151  1
  O  O242  1  0.99523767  0.74227467  0.63333310  1
  O  O243  1  -0.01009674  0.26221987  0.37635796  1
  O  O244  1  0.00284532  0.25403440  0.86978977  1
  O  O245  1  0.00839320  0.75943696  0.38130608  1
  O  O246  1  0.00768714  0.75441520  0.86839937  1
  O  O247  1  0.51537724  0.24417396  0.36715045  1
  O  O248  1  0.50478403  0.25343344  0.86872278  1
  O  O249  1  0.50748748  0.76012938  0.37177567  1
  O  O250  1  0.50984124  0.75479360  0.86760806  1
  O  O251  1  0.24635546  0.13163675  0.48930483  1
  O  O252  1  0.23614210  0.12547886  0.98763263  1
  O  O253  1  0.25543999  0.62342054  0.52016796  1
  O  O254  1  0.24515336  0.63737965  1.00177719  1
  O  O255  1  0.74108566  0.13372920  0.49925907  1
  O  O256  1  0.75169276  0.13856031  0.99359354  1
  O  O257  1  0.75165985  0.63992577  0.50235189  1
  O  O258  1  0.74774050  0.63182991  0.99476611  1
  O  O259  1  0.26497740  0.37643989  0.00242622  1
  O  O260  1  0.26045439  0.36621266  0.51412510  1
  O  O261  1  0.26099552  0.86544116  0.00458492  1
  O  O262  1  0.26160188  0.87385918  0.50525632  1
  O  O263  1  0.75754641  0.37073918  0.00905087  1
  O  O264  1  0.76156772  0.36764305  0.50781109  1
  O  O265  1  0.76120006  0.86594909  0.00418595  1
  O  O266  1  0.75437295  0.85594509  0.49584399  1
  O  O267  1  0.11594093  0.49110776  0.23441630  1
  O  O268  1  0.13486146  0.50151559  0.75590376  1
  O  O269  1  0.12719243  0.98666557  0.24082395  1
  O  O270  1  0.11514545  0.98619051  0.74826342  1
  O  O271  1  0.63233247  0.50410142  0.24351226  1
  O  O272  1  0.62061841  0.48786034  0.74493511  1
  O  O273  1  0.62474433  0.99227369  0.24086188  1
  O  O274  1  0.62249691  0.99442463  0.73540434  1
  O  O275  1  0.37210907  0.00770677  0.25854465  1
  O  O276  1  0.37856537  0.00063577  0.76122247  1
  O  O277  1  0.37843113  0.51786452  0.24384788  1
  O  O278  1  0.36835680  0.51229718  0.75465679  1
  O  O279  1  0.87513143  0.00492585  0.25836322  1
  O  O280  1  0.91955743  0.01039185  0.76829194  1
  O  O281  1  0.86844144  0.51173405  0.25487288  1
  O  O282  1  0.87858819  0.51345701  0.75897504  1
  O  O283  1  0.10344171  0.37331752  0.36706735  1
  O  O284  1  0.11582383  0.36693157  0.87967417  1
  O  O285  1  0.11832065  0.87055272  0.36787071  1
  O  O286  1  0.12178474  0.86307516  0.86968246  1
  O  O287  1  0.61652580  0.36290292  0.37782832  1
  O  O288  1  0.62027656  0.36730364  0.86789789  1
  O  O289  1  0.61586262  0.87465882  0.37152998  1
  O  O290  1  0.62614151  0.87168889  0.86628714  1
  O  O291  1  0.37700558  0.13032487  0.12790365  1
  O  O292  1  0.38151506  0.13499548  0.62361694  1
  O  O293  1  0.37684047  0.63986259  0.12990026  1
  O  O294  1  0.38765609  0.63657963  0.63826945  1
  O  O295  1  0.88062231  0.11939179  0.13303782  1
  O  O296  1  0.88624188  0.12931057  0.62817099  1
  O  O297  1  0.87025259  0.63191193  0.13938921  1
  O  O298  1  0.88340872  0.63334429  0.63467156  1
  O  O299  1  0.26132931  0.25708878  0.11405187  1
  O  O300  1  0.25862466  0.25299896  0.62115596  1
  O  O301  1  0.25686756  0.75633586  0.11776664  1
  O  O302  1  0.26348640  0.76279376  0.62544278  1
  O  O303  1  0.74890049  0.25733364  0.11844823  1
  O  O304  1  0.75532986  0.25471870  0.61989089  1
  O  O305  1  0.75410650  0.75413091  0.11961300  1
  O  O306  1  0.75982096  0.74760030  0.61991331  1
  O  O307  1  0.25500419  0.24117089  0.38254113  1
  O  O308  1  0.24011278  0.24388238  0.87646129  1
  O  O309  1  0.23402761  0.75132749  0.37869069  1
  O  O310  1  0.24258125  0.75554057  0.88382310  1
  O  O311  1  0.74393062  0.24924213  0.38484432  1
  O  O312  1  0.74011552  0.24579487  0.88360396  1
  O  O313  1  0.73204356  0.74898182  0.37964202  1
  O  O314  1  0.74772746  0.74020663  0.88452410  1
  O  O315  1  0.01065303  0.11836531  0.00084749  1
  O  O316  1  0.00130910  0.11957068  0.50560575  1
  O  O317  1  0.00810901  0.61823502  -0.00294605  1
  O  O318  1  -0.00505755  0.62334336  0.51687690  1
  O  O319  1  0.49412237  0.12489830  0.01273370  1
  O  O320  1  0.51335681  0.13436494  0.50720887  1
  O  O321  1  0.50227069  0.61754556  0.00354960  1
  O  O322  1  0.49394742  0.63110326  0.51837080  1
  O  O323  1  0.48139225  0.36113944  0.47490166  1
  O  O324  1  0.49121618  0.38222284  0.99650054  1
  O  O325  1  0.48661419  0.87369229  0.49195056  1
  O  O326  1  0.48646788  0.87410135  0.99852372  1
  O  O327  1  0.98567386  0.37228976  0.49608548  1
  O  O328  1  0.98468629  0.38137601  0.99721298  1
  O  O329  1  0.99729643  0.88169177  0.49325479  1
  O  O330  1  0.98500040  0.86315768  0.99468098  1
  O  O331  1  0.50545322  0.48436608  0.37400983  1
  O  O332  1  0.49918812  0.49492220  0.88280956  1
  O  O333  1  0.49236641  0.98990144  0.36825925  1
  O  O334  1  0.49165113  1.00095956  0.87741209  1
  O  O335  1  0.98589930  0.48921405  0.37646312  1
  O  O336  1  0.99314498  0.49577880  0.88595248  1
  O  O337  1  0.99209781  0.99091648  0.38036750  1
  O  O338  1  1.01764302  0.97913059  0.89322079  1
  O  O339  1  0.01104649  0.00413805  0.12456690  1
  O  O340  1  0.00383675  0.00881556  0.61500359  1
  O  O341  1  0.00671846  0.49567591  0.11177823  1
  O  O342  1  -0.00599028  0.51680695  0.62763093  1
  O  O343  1  0.50493326  0.00747469  0.12371012  1
  O  O344  1  0.50174697  0.01475833  0.62524007  1
  O  O345  1  0.50658855  0.49990114  0.11893444  1
  O  O346  1  0.49773106  0.51841264  0.63343271  1
  O  O347  1  0.24514109  0.37167980  0.23167992  1
  O  O348  1  0.24929394  0.38569221  0.74727012  1
  O  O349  1  0.24231796  0.87513186  0.24246421  1
  O  O350  1  0.24048335  0.87189789  0.74058112  1
  O  O351  1  0.75796305  0.38405258  0.23841964  1
  O  O352  1  0.74129701  0.36959445  0.74325051  1
  O  O353  1  0.74432128  0.87527623  0.24555364  1
  O  O354  1  0.74223964  0.87108956  0.75367402  1
  O  O355  1  0.25958978  0.12587622  0.25277904  1
  O  O356  1  0.24811390  0.12874866  0.76115595  1
  O  O357  1  0.26264466  0.62908647  0.24839167  1
  O  O358  1  0.26023766  0.61955988  0.74443095  1
  O  O359  1  0.76062753  0.11640889  0.25374192  1
  O  O360  1  0.75032982  0.13095361  0.76665510  1
  O  O361  1  0.75592464  0.61443269  0.24986672  1
  O  O362  1  0.75935611  0.63102272  0.76035859  1
  O  O363  1  0.37204365  0.12128179  0.36665593  1
  O  O364  1  0.36314819  0.11703325  0.87353265  1
  O  O365  1  0.37634323  0.62931348  0.36246448  1
  O  O366  1  0.37970400  0.62970429  0.86321764  1
  O  O367  1  0.87580598  0.11450382  0.36814856  1
  O  O368  1  0.85948055  0.13116475  0.87570425  1
  O  O369  1  0.87945171  0.61810726  0.36400897  1
  O  O370  1  0.86780474  0.62256399  0.86966877  1
  O  O371  1  0.13911272  0.39221704  0.10255637  1
  O  O372  1  0.14119479  0.36651998  0.63261849  1
  O  O373  1  0.12724681  0.87704931  0.13023945  1
  O  O374  1  0.13364035  0.87448946  0.63234380  1
  O  O375  1  0.63302932  0.38754604  0.12145582  1
  O  O376  1  0.63697710  0.36227881  0.63905942  1
  O  O377  1  0.63007199  0.87787178  0.13413672  1
  O  O378  1  0.62328766  0.89210796  0.62913150  1
  O  O379  1  0.11161576  0.26454453  0.19842078  1
  O  O380  1  0.11736745  0.25599108  0.76419542  1
  O  O381  1  0.12673265  0.75952499  0.25956830  1
  O  O382  1  0.11987838  0.75444514  0.75752010  1
  O  O383  1  0.63171751  0.24371632  0.26127876  1
  O  O384  1  0.61319437  0.25560912  0.75835200  1
  O  O385  1  0.61769050  0.75342547  0.26116072  1
  O  O386  1  0.62030419  0.76007631  0.75309373  1
  O  O387  1  0.37472215  0.24232595  0.23494708  1
  O  O388  1  0.38596667  0.24758231  0.74594770  1
  O  O389  1  0.38099803  0.74908766  0.24452634  1
  O  O390  1  0.38270325  0.74961280  0.74391639  1
  O  O391  1  0.86809499  0.23443544  0.24910151  1
  O  O392  1  0.88294969  0.24979049  0.74472959  1
  O  O393  1  0.86997262  0.73644099  0.24569123  1
  O  O394  1  0.88318920  0.74219517  0.74674600  1
  O  O395  1  0.38600196  0.47932705  0.50568251  1
  O  O396  1  0.38554344  0.49608489  1.00011140  1
  O  O397  1  0.37346720  0.99679325  0.48629731  1
  O  O398  1  0.37493645  0.99184969  0.99127199  1
  O  O399  1  0.87565777  0.49283478  0.49263139  1
  O  O400  1  0.87922709  0.49691772  0.99774079  1
  O  O401  1  0.88632590  0.99815388  0.49279024  1
  O  O402  1  0.87189204  0.98333967  1.00544731  1
  O  O403  1  0.13163157  0.00256209  0.00907688  1
  O  O404  1  0.11375502  0.00236387  0.49836904  1
  O  O405  1  0.11683011  0.51156757  0.00055392  1
  O  O406  1  0.11778152  0.48441085  0.50419366  1
  O  O407  1  0.61965360  -0.01126155  0.01580737  1
  O  O408  1  0.63043855  0.00936845  0.51373110  1
  O  O409  1  0.61338028  0.49948925  0.00617024  1
  O  O410  1  0.61725778  0.46360508  0.51756841  1
  O  O411  1  0.37199618  0.36971943  0.11875932  1
  O  O412  1  0.36691046  0.36305764  0.63514338  1
  O  O413  1  0.37196571  0.86738442  0.11974218  1
  O  O414  1  0.37213608  0.87262394  0.61857030  1
  O  O415  1  0.86646505  0.37443472  0.11835335  1
  O  O416  1  0.86924270  0.37150904  0.62085608  1
  O  O417  1  0.87151625  0.86706561  0.11830929  1
  O  O418  1  0.88358924  0.86142830  0.62640206  1
  O  O419  1  0.13617746  0.12062239  0.36829901  1
  O  O420  1  0.12592366  0.12834918  0.87754008  1
  O  O421  1  0.11705059  0.63699010  0.36922548  1
  O  O422  1  0.12166386  0.63824123  0.88599334  1
  O  O423  1  0.62769636  0.12827408  0.38316305  1
  O  O424  1  0.62955002  0.13650145  0.87228485  1
  O  O425  1  0.61493164  0.63764405  0.37659644  1
  O  O426  1  0.63232668  0.63198202  0.87539300  1
