# generated using pymatgen
data_V85Zn86O256
_symmetry_space_group_name_H-M   'P 1'
_cell_length_a   16.95094598
_cell_length_b   16.95894906
_cell_length_c   16.96135536
_cell_angle_alpha   90.02301953
_cell_angle_beta   90.06733125
_cell_angle_gamma   89.95414364
_symmetry_Int_Tables_number   1
_chemical_formula_structural   V85Zn86O256
_chemical_formula_sum   'V85 Zn86 O256'
_cell_volume   4875.87939594
_cell_formula_units_Z   1
loop_
 _symmetry_equiv_pos_site_id
 _symmetry_equiv_pos_as_xyz
  1  'x, y, z'
loop_
 _atom_site_type_symbol
 _atom_site_label
 _atom_site_symmetry_multiplicity
 _atom_site_fract_x
 _atom_site_fract_y
 _atom_site_fract_z
 _atom_site_occupancy
  V  V0  1  0.76398348  0.50642878  0.75471721  1
  V  V1  1  0.50005913  0.49595270  0.00223914  1
  V  V2  1  0.11648778  0.25595771  0.37716778  1
  V  V3  1  0.36848404  0.74932370  0.62882597  1
  V  V4  1  0.12420182  0.12740269  0.00384763  1
  V  V5  1  0.63676023  0.13565936  0.50720129  1
  V  V6  1  -0.00055112  0.25239641  0.74822405  1
  V  V7  1  0.37412073  0.25285987  0.12544272  1
  V  V8  1  0.00706506  0.12304579  0.62528324  1
  V  V9  1  0.36790038  0.61724734  0.75356552  1
  V  V10  1  0.62306173  0.49977320  0.62477525  1
  V  V11  1  0.49813955  0.61742704  0.62269329  1
  V  V12  1  0.50028980  0.37531506  0.38184297  1
  V  V13  1  0.00375361  -0.00012200  0.50083550  1
  V  V14  1  0.75101088  0.12528577  0.87365402  1
  V  V15  1  0.87787801  0.12569053  0.74700274  1
  V  V16  1  0.50292869  0.12246186  0.12670368  1
  V  V17  1  0.60129943  0.64819321  0.01127200  1
  V  V18  1  0.25299213  0.12301087  0.87438534  1
  V  V19  1  0.12614034  -0.00894964  0.12695947  1
  V  V20  1  0.87833255  0.00246507  0.36669910  1
  V  V21  1  0.49990693  0.37432208  0.87453064  1
  V  V22  1  0.12479169  0.50498853  0.63150693  1
  V  V23  1  0.24800080  0.25156320  0.00104753  1
  V  V24  1  -0.01168861  0.24896469  0.24726022  1
  V  V25  1  0.24473459  0.88369735  0.62522035  1
  V  V26  1  -0.01567009  0.12861126  0.12630463  1
  V  V27  1  0.12617266  0.37941029  0.75140487  1
  V  V28  1  0.62451383  0.37716676  0.24986898  1
  V  V29  1  0.24572762  0.61860233  0.87587530  1
  V  V30  1  0.74427161  -0.00759060  0.25060452  1
  V  V31  1  0.38238162  0.63156457  0.23031697  1
  V  V32  1  0.11888862  0.74116071  0.87742201  1
  V  V33  1  0.86660009  0.50528162  0.37795906  1
  V  V34  1  0.12291212  0.25263206  0.87518656  1
  V  V35  1  0.62826188  0.61928239  0.49069055  1
  V  V36  1  0.85989288  0.75771226  0.12037867  1
  V  V37  1  0.12309342  0.87476217  0.74851765  1
  V  V38  1  0.87698854  -0.00036398  0.87105990  1
  V  V39  1  0.62694661  0.12412117  0.00617204  1
  V  V40  1  0.12711547  0.11666752  0.50102840  1
  V  V41  1  0.11640312  0.37691881  0.25435771  1
  V  V42  1  0.60147870  0.87055617  0.25566919  1
  V  V43  1  0.63018489  0.75018081  0.87709341  1
  V  V44  1  -0.00054044  0.49728658  0.49433405  1
  V  V45  1  0.00172529  -0.00232772  -0.00127884  1
  V  V46  1  0.56721356  -0.04729810  0.56569728  1
  V  V47  1  0.87632596  0.36925628  0.49496334  1
  V  V48  1  0.24795878  0.74827358  0.50125514  1
  V  V49  1  0.75604758  0.13546056  0.37325345  1
  V  V50  1  0.74627908  0.00361040  0.73371392  1
  V  V51  1  -0.01457767  0.63688199  0.63546994  1
  V  V52  1  0.12095566  0.62485647  0.50072000  1
  V  V53  1  0.62886658  0.25019865  0.87898107  1
  V  V54  1  0.75899046  0.62224590  0.88761241  1
  V  V55  1  0.49796520  -0.00093368  -0.00237568  1
  V  V56  1  0.24823084  0.49905322  0.25031560  1
  V  V57  1  0.37736011  0.37614427  0.50312140  1
  V  V58  1  0.12893922  0.74997522  0.37021937  1
  V  V59  1  0.87311658  0.87059808  0.49494582  1
  V  V60  1  0.50043134  0.74892605  0.75386849  1
  V  V61  1  0.49983745  0.25313500  0.25026465  1
  V  V62  1  0.86695938  0.63037713  0.25574540  1
  V  V63  1  0.37449995  0.50030685  0.37766324  1
  V  V64  1  0.25006834  0.74616588  0.00535631  1
  V  V65  1  0.80854819  0.81895031  0.66712821  1
  V  V66  1  0.49950313  0.24736069  0.74937640  1
  V  V67  1  0.12096879  0.50129387  0.11928673  1
  V  V68  1  0.50414920  0.12474650  0.62247704  1
  V  V69  1  0.75354202  0.74527922  0.48451444  1
  V  V70  1  0.00150850  0.62915941  0.12282237  1
  V  V71  1  0.00036852  0.87049879  0.87297692  1
  V  V72  1  0.01421025  0.87779537  0.37251758  1
  V  V73  1  -0.01133446  0.50451844  -0.00181849  1
  V  V74  1  0.62446482  0.50627922  0.12354404  1
  V  V75  1  0.62685715  0.37898356  0.75207740  1
  V  V76  1  0.37275461  0.37439434  0.00051622  1
  V  V77  1  -0.01062300  0.38124488  0.87412655  1
  V  V78  1  0.00250889  0.75606677  0.24744001  1
  V  V79  1  0.36842987  0.12676820  0.25309427  1
  V  V80  1  0.75321157  0.37163694  0.62248722  1
  V  V81  1  0.24517835  -0.00723897  0.25128806  1
  V  V82  1  0.24840971  0.25245658  0.50018464  1
  V  V83  1  0.24922058  0.37961636  0.63125534  1
  V  V84  1  0.75693380  0.37229045  0.12694847  1
  Zn  Zn85  1  0.37343505  0.12041100  0.74568091  1
  Zn  Zn86  1  0.49908643  0.87466529  0.87548007  1
  Zn  Zn87  1  0.39528747  0.87201837  0.49653098  1
  Zn  Zn88  1  0.37487481  0.24731216  0.62308460  1
  Zn  Zn89  1  0.85753701  0.87478342  0.00430970  1
  Zn  Zn90  1  0.24618384  0.37536725  0.12512095  1
  Zn  Zn91  1  0.87283836  0.24859526  0.61885554  1
  Zn  Zn92  1  0.36632374  0.49582243  0.87238540  1
  Zn  Zn93  1  0.74545987  0.50837975  0.25500026  1
  Zn  Zn94  1  0.25160184  0.62547997  0.37301375  1
  Zn  Zn95  1  0.37240409  -0.00771096  0.87354170  1
  Zn  Zn96  1  0.63220616  0.25640888  0.38100110  1
  Zn  Zn97  1  0.67462842  -0.05296746  0.09092092  1
  Zn  Zn98  1  0.87345769  0.37203485  0.00079106  1
  Zn  Zn99  1  0.62472700  0.87589833  0.74266805  1
  Zn  Zn100  1  0.60678359  0.75085472  0.37409117  1
  Zn  Zn101  1  0.24785749  0.12584141  0.37512646  1
  Zn  Zn102  1  0.24686935  0.00126735  0.74925259  1
  Zn  Zn103  1  0.37505744  0.86895478  0.00243554  1
  Zn  Zn104  1  0.25518124  0.86111733  0.13382496  1
  Zn  Zn105  1  0.40751809  -0.01735727  0.37360432  1
  Zn  Zn106  1  0.76115578  0.24139674  0.01272159  1
  Zn  Zn107  1  0.18224801  0.18909902  0.18628770  1
  Zn  Zn108  1  0.18703282  0.19009753  0.68703575  1
  Zn  Zn109  1  0.18797319  0.68155215  0.19094278  1
  Zn  Zn110  1  0.18172880  0.68916926  0.69350593  1
  Zn  Zn111  1  0.69062348  0.18815665  0.19315900  1
  Zn  Zn112  1  0.68615324  0.18987951  0.68839452  1
  Zn  Zn113  1  0.68181617  0.69389417  0.19161803  1
  Zn  Zn114  1  0.68675388  0.68150789  0.68985679  1
  Zn  Zn115  1  0.30882902  0.31324453  0.31435527  1
  Zn  Zn116  1  0.31353285  0.30818889  0.81187016  1
  Zn  Zn117  1  0.42358230  0.80240404  0.31448056  1
  Zn  Zn118  1  0.31000358  0.81072700  0.81793526  1
  Zn  Zn119  1  0.81437888  0.32121135  0.31288720  1
  Zn  Zn120  1  0.81238591  0.31207588  0.81061446  1
  Zn  Zn121  1  0.81472408  0.81537174  0.31176083  1
  Zn  Zn122  1  0.81564895  0.80706671  0.82970663  1
  Zn  Zn123  1  0.18661105  0.43714962  0.43840422  1
  Zn  Zn124  1  0.18091204  0.43883063  0.93958182  1
  Zn  Zn125  1  0.26144203  0.92352647  0.42281975  1
  Zn  Zn126  1  0.18739210  0.93364018  0.93822874  1
  Zn  Zn127  1  0.68994440  0.43853188  0.44036440  1
  Zn  Zn128  1  0.68953030  0.44160480  0.94140982  1
  Zn  Zn129  1  0.69285602  0.93436481  0.43028988  1
  Zn  Zn130  1  0.68667822  0.94022988  0.92361175  1
  Zn  Zn131  1  0.31380232  0.06063678  0.06489495  1
  Zn  Zn132  1  0.31974462  0.06116448  0.55702058  1
  Zn  Zn133  1  0.30657193  0.56169120  0.05728218  1
  Zn  Zn134  1  0.30961169  0.56039608  0.56340844  1
  Zn  Zn135  1  0.80928907  0.04711838  0.05586468  1
  Zn  Zn136  1  0.82040672  0.06348401  0.55585833  1
  Zn  Zn137  1  0.81035593  0.56553017  0.06756583  1
  Zn  Zn138  1  0.81010477  0.56096018  0.56337364  1
  Zn  Zn139  1  0.43731480  0.44204272  0.18763796  1
  Zn  Zn140  1  0.43714950  0.43694060  0.68890237  1
  Zn  Zn141  1  0.42928742  0.94202375  0.18021505  1
  Zn  Zn142  1  0.42715389  0.93311845  0.69387296  1
  Zn  Zn143  1  0.93730701  0.44191735  0.19361535  1
  Zn  Zn144  1  0.94000090  0.44207759  0.68165642  1
  Zn  Zn145  1  0.93877603  0.93793724  0.18798967  1
  Zn  Zn146  1  0.94588971  0.94165078  0.68824853  1
  Zn  Zn147  1  0.06562341  0.06888514  0.31082862  1
  Zn  Zn148  1  0.06785349  0.06046875  0.81261753  1
  Zn  Zn149  1  0.05690582  0.56611575  0.31233104  1
  Zn  Zn150  1  0.05460829  0.56345742  0.81087753  1
  Zn  Zn151  1  0.57296666  0.06441058  0.31246923  1
  Zn  Zn152  1  0.56566197  0.06041751  0.81219343  1
  Zn  Zn153  1  0.55416799  0.55912755  0.31208021  1
  Zn  Zn154  1  0.56454330  0.56540924  0.81634831  1
  Zn  Zn155  1  0.46112916  0.15689442  0.41944126  1
  Zn  Zn156  1  0.43743020  0.18675200  0.93824461  1
  Zn  Zn157  1  0.43594691  0.67969353  0.44385069  1
  Zn  Zn158  1  0.43914010  0.69059418  0.94695129  1
  Zn  Zn159  1  0.93906697  0.18800959  0.43476704  1
  Zn  Zn160  1  0.93577479  0.19065609  0.93870858  1
  Zn  Zn161  1  0.94038063  0.68856422  0.43868105  1
  Zn  Zn162  1  0.93604980  0.68977147  0.94365957  1
  Zn  Zn163  1  0.05594479  0.31549499  0.06479906  1
  Zn  Zn164  1  0.06093817  0.31380731  0.56330700  1
  Zn  Zn165  1  0.06447651  0.81130316  0.05823160  1
  Zn  Zn166  1  0.06171031  0.81256791  0.56219146  1
  Zn  Zn167  1  0.56759457  0.31135607  0.06456569  1
  Zn  Zn168  1  0.56438888  0.31100281  0.56309846  1
  Zn  Zn169  1  0.56098417  0.81187510  0.06361844  1
  Zn  Zn170  1  0.56346596  0.78969478  0.56129546  1
  O  O171  1  0.11908748  0.12050843  0.11219074  1
  O  O172  1  0.11479834  0.13238220  0.61686197  1
  O  O173  1  0.10929227  0.61507344  0.13538419  1
  O  O174  1  0.12074040  0.61917877  0.61983721  1
  O  O175  1  0.61835865  0.13489141  0.11501105  1
  O  O176  1  0.62304222  0.12526446  0.61862812  1
  O  O177  1  0.63262570  0.61878945  0.11688754  1
  O  O178  1  0.61680073  0.61740621  0.62122466  1
  O  O179  1  0.37942804  0.38016160  0.38227330  1
  O  O180  1  0.38229080  0.37358323  0.88050073  1
  O  O181  1  0.36554591  0.87687056  0.38026537  1
  O  O182  1  0.37872217  0.87405679  0.88300802  1
  O  O183  1  0.87331570  0.38873828  0.38465365  1
  O  O184  1  0.88691975  0.37600421  0.87214015  1
  O  O185  1  0.88680162  0.88187790  0.38001261  1
  O  O186  1  0.88229720  0.87981007  0.88238991  1
  O  O187  1  0.23276485  0.00949741  0.35540604  1
  O  O188  1  0.24892055  0.01124406  0.87898567  1
  O  O189  1  0.25522852  0.49912873  0.36734540  1
  O  O190  1  0.24564796  0.51320037  0.88097207  1
  O  O191  1  0.75927221  0.00752087  0.36662469  1
  O  O192  1  0.75872277  0.00816631  0.85926217  1
  O  O193  1  0.76175797  0.50224060  0.37465518  1
  O  O194  1  0.74477428  0.50981140  0.86524676  1
  O  O195  1  0.23781034  0.49911449  0.13129372  1
  O  O196  1  0.23702990  0.49205541  0.62143861  1
  O  O197  1  0.24025862  1.00580756  0.13357821  1
  O  O198  1  0.25219470  0.98544095  0.62442806  1
  O  O199  1  0.73881316  0.49326618  0.12975095  1
  O  O200  1  0.74460590  0.49416587  0.63835642  1
  O  O201  1  0.74859146  1.01701409  0.14943725  1
  O  O202  1  0.75967446  1.00548501  0.63545831  1
  O  O203  1  0.01013380  0.36828153  0.24537275  1
  O  O204  1  0.00427477  0.37394810  0.75511015  1
  O  O205  1  -0.00098100  0.86413079  0.25681392  1
  O  O206  1  0.00487745  0.87861565  0.76447911  1
  O  O207  1  0.50590922  0.37208654  0.25674527  1
  O  O208  1  0.50501881  0.36645858  0.75594003  1
  O  O209  1  0.49805770  0.88184236  0.25534482  1
  O  O210  1  0.49934577  0.85898798  0.74829767  1
  O  O211  1  0.49543244  0.13427043  0.24112486  1
  O  O212  1  0.50459296  0.13126903  0.74068905  1
  O  O213  1  0.48114525  0.61770460  0.24952655  1
  O  O214  1  0.49395983  0.63269189  0.74478769  1
  O  O215  1  1.00341821  0.13641119  0.23918889  1
  O  O216  1  1.00032552  0.12868062  0.74302177  1
  O  O217  1  0.98956224  0.63767759  0.24488508  1
  O  O218  1  0.99742117  0.62329916  0.73492547  1
  O  O219  1  0.37025393  0.25591391  0.00619799  1
  O  O220  1  0.36253857  0.26448866  0.50117674  1
  O  O221  1  0.35355797  0.74671404  -0.00308161  1
  O  O222  1  0.36332386  0.74781701  0.51262728  1
  O  O223  1  0.87143457  0.25789150  -0.00260122  1
  O  O224  1  0.88227076  0.26494802  0.49929444  1
  O  O225  1  0.87221031  0.75535879  0.01509871  1
  O  O226  1  0.86926093  0.75931397  0.49474953  1
  O  O227  1  0.12801534  0.24759715  0.49410482  1
  O  O228  1  0.12614636  0.24470715  0.99617647  1
  O  O229  1  0.12551754  0.74035441  0.49228384  1
  O  O230  1  0.12976058  0.74970746  0.98407418  1
  O  O231  1  0.63187013  0.24104921  0.50043403  1
  O  O232  1  0.63113466  0.24257185  0.99435768  1
  O  O233  1  0.63506498  0.73777007  0.49323584  1
  O  O234  1  0.64120454  0.75257727  0.98444731  1
  O  O235  1  0.49466150  0.24435564  0.12903668  1
  O  O236  1  0.50087709  0.24428758  0.63522693  1
  O  O237  1  0.51887729  0.70893773  0.04860017  1
  O  O238  1  0.48869786  0.73919672  0.63265481  1
  O  O239  1  1.00409440  0.24123198  0.13510400  1
  O  O240  1  0.99853008  0.24412997  0.63304072  1
  O  O241  1  1.00079995  0.74547912  0.13127815  1
  O  O242  1  1.00182629  0.73533330  0.62009917  1
  O  O243  1  0.01040353  0.24655237  0.36551890  1
  O  O244  1  0.00594376  0.25839583  0.86763813  1
  O  O245  1  0.00646715  0.75754904  0.36762807  1
  O  O246  1  0.00819609  0.75563765  0.88099740  1
  O  O247  1  0.50364639  0.25943181  0.36865338  1
  O  O248  1  0.50643691  0.25668158  0.87077984  1
  O  O249  1  0.49414609  0.75424410  0.38830719  1
  O  O250  1  0.50942943  0.74860235  0.86854824  1
  O  O251  1  0.24267935  0.13600600  0.50143734  1
  O  O252  1  0.24273688  0.13159012  0.99567722  1
  O  O253  1  0.23741222  0.63201343  0.50290255  1
  O  O254  1  0.24582643  0.63370920  0.99051056  1
  O  O255  1  0.74776026  0.12109104  0.48789228  1
  O  O256  1  0.74201012  0.12273685  0.99471886  1
  O  O257  1  0.74028398  0.63230013  0.50579039  1
  O  O258  1  0.74034593  0.61670872  0.98906485  1
  O  O259  1  0.25430903  0.36924111  0.00002594  1
  O  O260  1  0.25147756  0.37075860  0.51175641  1
  O  O261  1  0.24571306  0.85648349  -0.00089089  1
  O  O262  1  0.23457607  0.85569776  0.51130149  1
  O  O263  1  0.74950922  0.37752825  0.01679259  1
  O  O264  1  0.76146805  0.38190726  0.51137637  1
  O  O265  1  0.75522442  0.92637879  0.01254411  1
  O  O266  1  0.76323919  0.86659685  0.49430779  1
  O  O267  1  0.12674855  0.49506551  0.24648983  1
  O  O268  1  0.11923281  0.49501216  0.73898887  1
  O  O269  1  0.13387486  1.01070189  0.23707596  1
  O  O270  1  0.12905982  0.98196102  0.75679458  1
  O  O271  1  0.62334412  0.49309872  0.24417962  1
  O  O272  1  0.62911740  0.49589023  0.74239463  1
  O  O273  1  0.63418915  0.98782168  0.25403788  1
  O  O274  1  0.64207122  0.99594911  0.75142490  1
  O  O275  1  0.36173292  0.01129271  0.25381330  1
  O  O276  1  0.36638286  0.00404365  0.75614101  1
  O  O277  1  0.36452691  0.50105893  0.25760408  1
  O  O278  1  0.37843427  0.51281574  0.75306078  1
  O  O279  1  0.86822847  -0.00443934  0.26124499  1
  O  O280  1  0.87005988  0.00573065  0.75289058  1
  O  O281  1  0.87562499  0.51233337  0.26086181  1
  O  O282  1  0.86204890  0.49801306  0.74824532  1
  O  O283  1  0.12484426  0.36954909  0.36734248  1
  O  O284  1  0.11713500  0.37171747  0.86870558  1
  O  O285  1  0.11549530  0.86551017  0.37949276  1
  O  O286  1  0.11753495  0.86495293  0.87122537  1
  O  O287  1  0.61852429  0.37754132  0.37072005  1
  O  O288  1  0.62013239  0.36984483  0.87313019  1
  O  O289  1  0.62495434  0.87480882  0.35893103  1
  O  O290  1  0.62524345  0.86505562  0.86500760  1
  O  O291  1  0.38176373  0.13333870  0.13351960  1
  O  O292  1  0.38680733  0.12745974  0.62412564  1
  O  O293  1  0.37293605  0.61646876  0.13166486  1
  O  O294  1  0.37883068  0.62782637  0.63114728  1
  O  O295  1  0.88667405  0.11713285  0.11563075  1
  O  O296  1  0.88722052  0.12880435  0.62791914  1
  O  O297  1  0.88199548  0.63769385  0.13158272  1
  O  O298  1  0.88711118  0.62236863  0.61947427  1
  O  O299  1  0.25398503  0.25292767  0.11789407  1
  O  O300  1  0.24918479  0.25867654  0.61518835  1
  O  O301  1  0.23265078  0.74650944  0.10947832  1
  O  O302  1  0.25502989  0.75092817  0.62279047  1
  O  O303  1  0.74454832  0.26749699  0.12924238  1
  O  O304  1  0.75317611  0.26753025  0.63580066  1
  O  O305  1  0.76197372  0.75286124  0.12984691  1
  O  O306  1  0.74566553  0.75474231  0.61634261  1
  O  O307  1  0.23762943  0.25531549  0.38735082  1
  O  O308  1  0.24182422  0.24494870  0.88103728  1
  O  O309  1  0.23866959  0.74412837  0.38708948  1
  O  O310  1  0.23762883  0.74009527  0.88218885  1
  O  O311  1  0.75440440  0.23876126  0.36948672  1
  O  O312  1  0.74249125  0.24189773  0.87112116  1
  O  O313  1  0.74875376  0.74993231  0.38264864  1
  O  O314  1  0.74182776  0.73124180  0.86477368  1
  O  O315  1  0.00856971  0.11958767  0.00274609  1
  O  O316  1  0.00658801  0.12296204  0.50677505  1
  O  O317  1  -0.00332013  0.61854361  0.01111213  1
  O  O318  1  0.00974870  0.61978248  0.50593974  1
  O  O319  1  0.50829921  0.12400508  0.00635780  1
  O  O320  1  0.51612848  0.13462368  0.51795033  1
  O  O321  1  0.50185117  0.59511959  -0.02968201  1
  O  O322  1  0.50823142  0.62434170  0.51741864  1
  O  O323  1  0.49047143  0.36894547  0.49415756  1
  O  O324  1  0.49635001  0.37778095  0.99289414  1
  O  O325  1  0.51141009  0.88600638  0.51059103  1
  O  O326  1  0.50127711  0.88760474  0.99890587  1
  O  O327  1  0.99128222  0.38702409  0.50723319  1
  O  O328  1  0.99824349  0.38390331  0.99118064  1
  O  O329  1  0.99528710  0.87977497  0.49187498  1
  O  O330  1  1.00252135  0.88405121  0.98943075  1
  O  O331  1  0.48896677  0.48366526  0.37329905  1
  O  O332  1  0.50113655  0.48159571  0.87367128  1
  O  O333  1  0.49271057  1.04910076  0.38570413  1
  O  O334  1  0.49960619  0.99938192  0.88312806  1
  O  O335  1  0.99215536  0.50648430  0.38890618  1
  O  O336  1  1.00562570  0.49337263  0.88635190  1
  O  O337  1  0.99727480  0.99560398  0.37589692  1
  O  O338  1  0.99831909  0.99368459  0.88088055  1
  O  O339  1  0.00694625  0.00539862  0.11806017  1
  O  O340  1  -0.00102791  0.01151800  0.61565792  1
  O  O341  1  0.00206874  0.50877355  0.12184841  1
  O  O342  1  0.00846157  0.50904826  0.61434102  1
  O  O343  1  0.49752872  0.01737705  0.11935861  1
  O  O344  1  0.50070291  0.00486942  0.62769208  1
  O  O345  1  0.51172505  0.49347018  0.11440021  1
  O  O346  1  0.50951864  0.50598532  0.63224902  1
  O  O347  1  0.23949537  0.38531330  0.24912580  1
  O  O348  1  0.24700752  0.36921362  0.73797110  1
  O  O349  1  0.24681571  0.89396465  0.24843868  1
  O  O350  1  0.24250106  0.87181228  0.74157514  1
  O  O351  1  0.74114024  0.38156546  0.24394075  1
  O  O352  1  0.74475097  0.38711892  0.74834686  1
  O  O353  1  0.74841310  0.88986633  0.25325199  1
  O  O354  1  0.75502758  0.88000013  0.73778785  1
  O  O355  1  0.25631861  0.12378204  0.24692292  1
  O  O356  1  0.24728678  0.12523416  0.75968306  1
  O  O357  1  0.25716493  0.61111355  0.25216218  1
  O  O358  1  0.25741189  0.63032186  0.76003066  1
  O  O359  1  0.74177274  0.11595195  0.26788670  1
  O  O360  1  0.75539791  0.11799294  0.75104457  1
  O  O361  1  0.76266635  0.62752920  0.24563113  1
  O  O362  1  0.74570052  0.61064849  0.75943083  1
  O  O363  1  0.36392085  0.14414088  0.35724848  1
  O  O364  1  0.36029552  0.13031493  0.87427289  1
  O  O365  1  0.37152457  0.60719913  0.38095565  1
  O  O366  1  0.36405846  0.62375541  0.86856370  1
  O  O367  1  0.86543562  0.11710931  0.38036574  1
  O  O368  1  0.87190539  0.11995574  0.86604749  1
  O  O369  1  0.88083394  0.62006392  0.36704849  1
  O  O370  1  0.85837851  0.62846019  0.88398137  1
  O  O371  1  0.12384503  0.38415023  0.13458108  1
  O  O372  1  0.13034071  0.38330162  0.63074381  1
  O  O373  1  0.12773660  0.88869610  0.11922426  1
  O  O374  1  0.13117379  0.86593950  0.63688305  1
  O  O375  1  0.63104064  0.38320378  0.13344922  1
  O  O376  1  0.63200210  0.38175712  0.62999734  1
  O  O377  1  0.61461824  0.87064877  0.14446162  1
  O  O378  1  0.61840007  0.88310569  0.62084071  1
  O  O379  1  0.12054473  0.25943309  0.25805156  1
  O  O380  1  0.11818416  0.25863142  0.75504779  1
  O  O381  1  0.11827706  0.74287126  0.26215997  1
  O  O382  1  0.12675701  0.76080456  0.76686210  1
  O  O383  1  0.62041295  0.26443956  0.25310201  1
  O  O384  1  0.61575527  0.25675762  0.75753970  1
  O  O385  1  0.61949970  0.76449824  0.25578223  1
  O  O386  1  0.61684732  0.74949970  0.75508754  1
  O  O387  1  0.37757105  0.25028638  0.24162672  1
  O  O388  1  0.38901378  0.24597821  0.74834416  1
  O  O389  1  0.36656048  0.73025299  0.24620174  1
  O  O390  1  0.37939077  0.73997205  0.74468708  1
  O  O391  1  0.88966195  0.25745991  0.25520678  1
  O  O392  1  0.88322957  0.24251138  0.74829699  1
  O  O393  1  0.88230830  0.74785420  0.24278711  1
  O  O394  1  0.86033662  0.76407555  0.73068048  1
  O  O395  1  0.36576623  0.48567431  0.49320116  1
  O  O396  1  0.38010210  0.48930823  0.99694431  1
  O  O397  1  0.35086278  0.98356448  0.48408429  1
  O  O398  1  0.38906521  1.00885420  0.99565155  1
  O  O399  1  0.88132521  0.49565983  0.49521686  1
  O  O400  1  0.88565891  0.49605721  1.00832174  1
  O  O401  1  0.88336729  0.99174128  0.48710799  1
  O  O402  1  0.89324235  1.00286550  0.99000146  1
  O  O403  1  0.11773092  0.00790524  0.00345520  1
  O  O404  1  0.11994769  0.01589258  0.49481565  1
  O  O405  1  0.11311299  0.49556468  0.01527881  1
  O  O406  1  0.11852854  0.50638243  0.50561871  1
  O  O407  1  0.61452977  0.00942783  0.00224952  1
  O  O408  1  0.63062037  0.00529465  0.50401937  1
  O  O409  1  0.61684843  0.50398693  0.00939699  1
  O  O410  1  0.63282948  0.50500367  0.51646560  1
  O  O411  1  0.37244454  0.37049841  0.11880620  1
  O  O412  1  0.36750856  0.37490226  0.62019763  1
  O  O413  1  0.36515570  0.88150373  0.11489782  1
  O  O414  1  0.36625903  0.86215385  0.62171909  1
  O  O415  1  0.85837226  0.38331258  0.13173854  1
  O  O416  1  0.86881171  0.37604450  0.61677056  1
  O  O417  1  0.88095915  0.86123468  0.12458029  1
  O  O418  1  0.87822809  0.87715854  0.61433424  1
  O  O419  1  0.12617383  0.13805368  0.38430400  1
  O  O420  1  0.13127242  0.13089081  0.88534764  1
  O  O421  1  0.12448203  0.63077583  0.38364920  1
  O  O422  1  0.12721529  0.63553456  0.86694415  1
  O  O423  1  0.64070558  0.13126548  0.38672155  1
  O  O424  1  0.63015768  0.12994822  0.88478036  1
  O  O425  1  0.61657216  0.61794443  0.38868319  1
  O  O426  1  0.62814430  0.63409966  0.88716965  1
