# generated using pymatgen
data_V85Zn86O256
_symmetry_space_group_name_H-M   'P 1'
_cell_length_a   16.94035350
_cell_length_b   16.93453216
_cell_length_c   16.94594818
_cell_angle_alpha   90.05068820
_cell_angle_beta   90.00160573
_cell_angle_gamma   89.97570129
_symmetry_Int_Tables_number   1
_chemical_formula_structural   V85Zn86O256
_chemical_formula_sum   'V85 Zn86 O256'
_cell_volume   4861.39977450
_cell_formula_units_Z   1
loop_
 _symmetry_equiv_pos_site_id
 _symmetry_equiv_pos_as_xyz
  1  'x, y, z'
loop_
 _atom_site_type_symbol
 _atom_site_label
 _atom_site_symmetry_multiplicity
 _atom_site_fract_x
 _atom_site_fract_y
 _atom_site_fract_z
 _atom_site_occupancy
  V  V0  1  -0.00056467  0.12272165  0.62368862  1
  V  V1  1  0.62265928  0.62769764  -0.00533550  1
  V  V2  1  0.87088221  0.11659332  0.24821802  1
  V  V3  1  0.38286657  0.75642832  0.11822188  1
  V  V4  1  0.73158456  0.87595828  0.62746214  1
  V  V5  1  0.87240166  0.24705852  0.62284029  1
  V  V6  1  0.74867256  0.88487301  0.13105441  1
  V  V7  1  0.12241856  0.25218782  0.37313556  1
  V  V8  1  0.87071675  0.61937951  0.76104845  1
  V  V9  1  0.49173277  0.75896340  0.75039677  1
  V  V10  1  0.88145700  0.37312547  0.49416723  1
  V  V11  1  0.49728283  0.24648743  0.24421123  1
  V  V12  1  0.50106636  0.37342714  0.37399150  1
  V  V13  1  0.24986569  0.25014074  0.49639532  1
  V  V14  1  0.49813955  0.25186890  0.74821099  1
  V  V15  1  0.12496524  0.12350894  0.49801732  1
  V  V16  1  0.25362411  0.62852617  0.37883853  1
  V  V17  1  0.50322381  0.49895627  0.50215649  1
  V  V18  1  0.37434285  0.37722493  0.49862499  1
  V  V19  1  0.61943354  0.50521916  0.12674090  1
  V  V20  1  0.50485473  0.85926782  0.38034857  1
  V  V21  1  0.75062058  0.49866466  0.25072666  1
  V  V22  1  0.74772645  0.24874982  0.49862798  1
  V  V23  1  0.62972184  0.75696753  0.86561010  1
  V  V24  1  0.05749467  0.68356471  0.06969998  1
  V  V25  1  0.87211678  0.25750535  0.12585099  1
  V  V26  1  0.87157574  0.12072508  0.74911966  1
  V  V27  1  0.36785874  0.12341254  0.74957226  1
  V  V28  1  0.87178191  -0.00202026  0.37280071  1
  V  V29  1  0.25224254  0.50050798  0.25053774  1
  V  V30  1  0.24029036  0.63089351  0.88996409  1
  V  V31  1  0.62190762  0.24922313  0.87739042  1
  V  V32  1  0.74809936  0.25404871  0.00231334  1
  V  V33  1  0.73395751  -0.00319366  0.74703437  1
  V  V34  1  0.87198486  0.74650841  0.12609187  1
  V  V35  1  0.37508860  0.24504888  0.12027529  1
  V  V36  1  0.87334477  0.87912707  0.00085127  1
  V  V37  1  0.37380795  0.11439763  0.24584698  1
  V  V38  1  0.62091713  0.11268439  0.50299688  1
  V  V39  1  -0.00236789  0.12336458  0.12289235  1
  V  V40  1  -0.00017443  0.25271115  0.75125060  1
  V  V41  1  0.87385396  0.87193735  0.50544008  1
  V  V42  1  0.00255801  0.87570813  0.87508608  1
  V  V43  1  0.62458059  0.24916289  0.37420707  1
  V  V44  1  0.31589323  0.80839070  0.56267533  1
  V  V45  1  0.13720995  -0.00361142  0.12774879  1
  V  V46  1  0.75218774  0.50201035  0.76603983  1
  V  V47  1  0.62580761  0.63452691  0.49902021  1
  V  V48  1  0.37144370  0.50559061  0.87280055  1
  V  V49  1  0.12967816  0.25427065  0.87527176  1
  V  V50  1  0.13040746  0.75247700  0.38450735  1
  V  V51  1  0.11896404  0.37787191  0.25233065  1
  V  V52  1  0.74960481  0.63023447  0.37586016  1
  V  V53  1  0.49528568  0.50739776  0.00359295  1
  V  V54  1  -0.00078403  0.25061971  0.25074233  1
  V  V55  1  0.24760086  0.36934025  0.12225340  1
  V  V56  1  -0.01806429  0.49271890  0.00433591  1
  V  V57  1  0.88343731  0.49729451  0.37469300  1
  V  V58  1  0.74733895  0.11809502  0.37204317  1
  V  V59  1  0.13144597  0.13106352  0.00019438  1
  V  V60  1  0.24942258  0.11147358  0.36940459  1
  V  V61  1  0.61485524  0.12251524  0.00395583  1
  V  V62  1  0.37592374  0.25108992  0.62289716  1
  V  V63  1  -0.00035413  -0.00147438  0.49954954  1
  V  V64  1  0.38957978  -0.00249231  0.38735362  1
  V  V65  1  0.74688551  0.74885226  -0.00183505  1
  V  V66  1  0.36971839  0.37402566  -0.00104585  1
  V  V67  1  0.62368437  0.37616666  0.75112627  1
  V  V68  1  0.62307675  0.85602993  0.25268933  1
  V  V69  1  0.23679757  0.50546384  0.74457791  1
  V  V70  1  0.00311003  0.74547320  0.25157412  1
  V  V71  1  0.74983944  0.37555175  0.62450801  1
  V  V72  1  0.49593186  0.62649018  0.63062284  1
  V  V73  1  0.00189655  0.00392846  0.00082030  1
  V  V74  1  0.50156483  0.10977558  0.62138112  1
  V  V75  1  0.61641247  0.00531110  0.13695092  1
  V  V76  1  0.62792865  0.50048940  0.62660175  1
  V  V77  1  0.38910813  0.63322779  0.24522316  1
  V  V78  1  0.87330076  0.00280685  0.87444239  1
  V  V79  1  0.13153883  -0.00761402  0.62835077  1
  V  V80  1  0.00015532  0.74683415  0.74883974  1
  V  V81  1  -0.00045276  0.87499077  0.37311468  1
  V  V82  1  0.12179651  0.50371317  0.11527967  1
  V  V83  1  0.14093075  0.87850830  0.24952115  1
  V  V84  1  0.12428788  0.61805468  0.50739163  1
  Zn  Zn85  1  -0.01332323  0.38681931  0.87360284  1
  Zn  Zn86  1  0.75068417  0.38022658  0.12076857  1
  Zn  Zn87  1  0.24387076  0.38459944  0.62179643  1
  Zn  Zn88  1  0.74466238  0.12140664  0.87561076  1
  Zn  Zn89  1  0.74830340  0.75164091  0.49816023  1
  Zn  Zn90  1  0.36969742  0.62838913  0.74789643  1
  Zn  Zn91  1  0.62460825  0.37433993  0.24591045  1
  Zn  Zn92  1  0.11776881  0.38069498  0.74367857  1
  Zn  Zn93  1  0.00620130  0.49119500  0.50266390  1
  Zn  Zn94  1  0.49910956  0.87983800  0.87956831  1
  Zn  Zn95  1  0.12575191  0.75093691  0.88877393  1
  Zn  Zn96  1  0.49680283  0.37858104  0.87464231  1
  Zn  Zn97  1  0.25617062  -0.01416550  0.74930607  1
  Zn  Zn98  1  0.25260130  0.12889624  0.87687925  1
  Zn  Zn99  1  0.49651022  -0.00289848  0.00209860  1
  Zn  Zn100  1  0.36687828  0.87900621  -0.00096937  1
  Zn  Zn101  1  0.88002545  0.62289004  0.24933856  1
  Zn  Zn102  1  0.37340600  -0.00258682  0.87830020  1
  Zn  Zn103  1  0.87336214  0.74514849  0.62474883  1
  Zn  Zn104  1  -0.00266659  0.61611772  0.62819560  1
  Zn  Zn105  1  0.12942359  0.86617073  0.74787159  1
  Zn  Zn106  1  0.37774765  0.50097002  0.37171264  1
  Zn  Zn107  1  0.18903278  0.18541414  0.18621030  1
  Zn  Zn108  1  0.18551681  0.19371506  0.68242412  1
  Zn  Zn109  1  0.19609668  0.68984243  0.19890065  1
  Zn  Zn110  1  0.19115833  0.69281728  0.69120496  1
  Zn  Zn111  1  0.68688437  0.18626394  0.18888659  1
  Zn  Zn112  1  0.68464467  0.18467662  0.68750267  1
  Zn  Zn113  1  0.68930268  0.68308841  0.18355466  1
  Zn  Zn114  1  0.69088718  0.68678467  0.68524294  1
  Zn  Zn115  1  0.31029306  0.30952584  0.31063752  1
  Zn  Zn116  1  0.30876580  0.31770597  0.80994746  1
  Zn  Zn117  1  0.32037422  0.81080416  0.32013026  1
  Zn  Zn118  1  0.30845340  0.81661271  0.81783353  1
  Zn  Zn119  1  0.81124326  0.31166870  0.31088414  1
  Zn  Zn120  1  0.80992031  0.31505750  0.81380748  1
  Zn  Zn121  1  0.81052731  0.81300579  0.31099553  1
  Zn  Zn122  1  0.81328964  0.81312132  0.80992715  1
  Zn  Zn123  1  0.18873197  0.43780859  0.43465652  1
  Zn  Zn124  1  0.18432440  0.43692530  0.93232110  1
  Zn  Zn125  1  0.19318749  0.93405141  0.44148737  1
  Zn  Zn126  1  0.19174525  0.94437474  0.93034458  1
  Zn  Zn127  1  0.69025577  0.43972318  0.43634068  1
  Zn  Zn128  1  0.68362053  0.43482667  0.94086787  1
  Zn  Zn129  1  0.68421778  0.93326943  0.43620494  1
  Zn  Zn130  1  0.68374346  0.93782275  0.93993176  1
  Zn  Zn131  1  0.31120183  0.06017866  0.06106196  1
  Zn  Zn132  1  0.31222199  0.06246391  0.56158332  1
  Zn  Zn133  1  0.31270123  0.56562880  0.06802543  1
  Zn  Zn134  1  0.31255346  0.56809952  0.56130503  1
  Zn  Zn135  1  0.80679756  0.06821553  0.06017706  1
  Zn  Zn136  1  0.80749199  0.05714294  0.56137196  1
  Zn  Zn137  1  0.80659300  0.56793667  0.06436150  1
  Zn  Zn138  1  0.81654490  0.56167022  0.56574552  1
  Zn  Zn139  1  0.43669161  0.43748757  0.18640475  1
  Zn  Zn140  1  0.43399273  0.44025420  0.68848536  1
  Zn  Zn141  1  0.44066033  0.92941709  0.18993234  1
  Zn  Zn142  1  0.43373922  0.93287594  0.68668020  1
  Zn  Zn143  1  0.94002072  0.44078844  0.18537959  1
  Zn  Zn144  1  0.93679675  0.44046219  0.68301749  1
  Zn  Zn145  1  0.94326278  0.93338071  0.18626137  1
  Zn  Zn146  1  0.93902030  0.93649198  0.68781777  1
  Zn  Zn147  1  0.06059316  0.06117508  0.30992927  1
  Zn  Zn148  1  0.06357904  0.06701706  0.81323975  1
  Zn  Zn149  1  0.06500017  0.56365878  0.31544672  1
  Zn  Zn150  1  0.05879185  0.56634336  0.82226751  1
  Zn  Zn151  1  0.56159494  0.06396938  0.30803738  1
  Zn  Zn152  1  0.55401736  0.06490088  0.81329722  1
  Zn  Zn153  1  0.56573194  0.56194866  0.31640917  1
  Zn  Zn154  1  0.56297998  0.56582591  0.81589846  1
  Zn  Zn155  1  0.43792216  0.18403702  0.43620357  1
  Zn  Zn156  1  0.43740789  0.18674830  0.93739193  1
  Zn  Zn157  1  0.43729680  0.68475298  0.43920056  1
  Zn  Zn158  1  0.43737615  0.69043084  0.93608798  1
  Zn  Zn159  1  0.93750105  0.18703369  0.43481260  1
  Zn  Zn160  1  0.91953416  0.21950448  0.92184189  1
  Zn  Zn161  1  0.93843060  0.68648551  0.43708070  1
  Zn  Zn162  1  0.93180623  0.69059405  0.93402932  1
  Zn  Zn163  1  0.05988940  0.31353893  0.06248426  1
  Zn  Zn164  1  0.06310243  0.31354239  0.56470418  1
  Zn  Zn165  1  0.20432393  0.81350621  0.07087800  1
  Zn  Zn166  1  0.06059840  0.80791413  0.56353621  1
  Zn  Zn167  1  0.55855408  0.31932461  0.06209623  1
  Zn  Zn168  1  0.56315244  0.30854137  0.56198716  1
  Zn  Zn169  1  0.55479283  0.81157053  0.06643746  1
  Zn  Zn170  1  0.54886038  0.81393562  0.56429869  1
  O  O171  1  0.11580451  0.12142089  0.12059532  1
  O  O172  1  0.11775669  0.11983231  0.61656692  1
  O  O173  1  0.12120164  0.62418006  0.12825733  1
  O  O174  1  0.12880781  0.63159718  0.60784952  1
  O  O175  1  0.63023784  0.11169581  0.12164909  1
  O  O176  1  0.61196629  0.13298811  0.61555827  1
  O  O177  1  0.62975176  0.61341018  0.11276430  1
  O  O178  1  0.61992022  0.61764228  0.61909332  1
  O  O179  1  0.38127351  0.37353968  0.38334030  1
  O  O180  1  0.37158642  0.38634235  0.88297435  1
  O  O181  1  0.39315982  0.88820575  0.36569957  1
  O  O182  1  0.38088216  0.87626780  0.87872322  1
  O  O183  1  0.86794081  0.38228568  0.38286538  1
  O  O184  1  0.89008485  0.32901007  0.88699913  1
  O  O185  1  0.87638650  0.87943319  0.38332215  1
  O  O186  1  0.88271665  0.88233597  0.87875784  1
  O  O187  1  0.25950660  0.00803365  0.37735431  1
  O  O188  1  0.25262052  0.01291668  0.86395904  1
  O  O189  1  0.25181502  0.50406705  0.36244112  1
  O  O190  1  0.25338597  0.50798693  0.86739200  1
  O  O191  1  0.75444745  0.01142651  0.37958760  1
  O  O192  1  0.75509824  -0.00152282  0.86659119  1
  O  O193  1  0.75817050  0.50691638  0.36808973  1
  O  O194  1  0.74589753  0.49326176  0.86511376  1
  O  O195  1  0.24264233  0.49405179  0.13499792  1
  O  O196  1  0.25499264  0.50555892  0.64123104  1
  O  O197  1  0.23532025  1.01091068  0.13233259  1
  O  O198  1  0.23405921  1.00671227  0.62501583  1
  O  O199  1  0.74358422  0.49955268  0.13362736  1
  O  O200  1  0.74375412  0.49223947  0.63178890  1
  O  O201  1  0.74300887  0.98831996  0.12019901  1
  O  O202  1  0.75203930  0.98554248  0.63243393  1
  O  O203  1  0.01231804  0.36948522  0.24452276  1
  O  O204  1  -0.00495235  0.36511347  0.75198311  1
  O  O205  1  0.00687642  0.86420346  0.25601533  1
  O  O206  1  -0.00033135  0.86649022  0.75807156  1
  O  O207  1  0.49857079  0.36659057  0.25866330  1
  O  O208  1  0.50480275  0.36964152  0.75043211  1
  O  O209  1  0.51762206  0.87915592  0.26069335  1
  O  O210  1  0.50186090  0.86092366  0.75109413  1
  O  O211  1  0.49017495  0.13936996  0.25439097  1
  O  O212  1  0.49116341  0.13461261  0.73878773  1
  O  O213  1  0.48644717  0.61765522  0.25723404  1
  O  O214  1  0.49988739  0.63120538  0.74389648  1
  O  O215  1  0.99195860  0.13043922  0.24372097  1
  O  O216  1  0.99047059  0.12763986  0.74134827  1
  O  O217  1  1.00047199  0.64028152  0.25681315  1
  O  O218  1  0.98902359  0.62845181  0.75288666  1
  O  O219  1  0.37984484  0.26070183  0.00839141  1
  O  O220  1  0.37229659  0.25704590  0.50324245  1
  O  O221  1  0.37772807  0.74706255  0.01483135  1
  O  O222  1  0.36600984  0.74954898  0.49521065  1
  O  O223  1  0.85944615  0.23238919  0.01791114  1
  O  O224  1  0.86771353  0.25301673  0.50204755  1
  O  O225  1  0.86727628  0.75762517  0.00655459  1
  O  O226  1  0.87229363  0.75835067  0.50057130  1
  O  O227  1  0.12758797  0.24318283  0.49016395  1
  O  O228  1  0.11319774  0.24224740  0.98982766  1
  O  O229  1  0.12166479  0.74277517  0.48846209  1
  O  O230  1  0.11450832  0.74643654  1.01426375  1
  O  O231  1  0.63122417  0.24441246  0.49198154  1
  O  O232  1  0.62517038  0.24650080  0.99570388  1
  O  O233  1  0.62505192  0.73690541  0.50552648  1
  O  O234  1  0.62887028  0.74504628  0.99591161  1
  O  O235  1  0.48853439  0.25840341  0.13393204  1
  O  O236  1  0.48798592  0.24913366  0.62799185  1
  O  O237  1  0.48402719  0.74664788  0.13090702  1
  O  O238  1  0.51179326  0.74052151  0.64300051  1
  O  O239  1  0.99106021  0.24332781  0.12985360  1
  O  O240  1  0.99331943  0.24134244  0.63291173  1
  O  O241  1  0.99482128  0.74458122  0.12976641  1
  O  O242  1  0.99616570  0.74386502  0.63527170  1
  O  O243  1  0.01446670  0.24172633  0.36735997  1
  O  O244  1  0.01308422  0.23475604  0.85647110  1
  O  O245  1  0.00768239  0.75641555  0.36890877  1
  O  O246  1  0.00117213  0.75992402  0.87187728  1
  O  O247  1  0.50252727  0.25836044  0.36930083  1
  O  O248  1  0.50816783  0.25334647  0.86899247  1
  O  O249  1  0.49837562  0.76043764  0.37580781  1
  O  O250  1  0.51229039  0.74671158  0.86332284  1
  O  O251  1  0.24518090  0.13078573  0.48976423  1
  O  O252  1  0.23400343  0.12850415  1.00337672  1
  O  O253  1  0.24067975  0.61695227  0.48641731  1
  O  O254  1  0.25016602  0.61696997  0.98819791  1
  O  O255  1  0.74434206  0.13114464  0.49393581  1
  O  O256  1  0.73455225  0.13574901  0.99878244  1
  O  O257  1  0.74318203  0.62423271  0.49445489  1
  O  O258  1  0.74242298  0.64154100  1.00341905  1
  O  O259  1  0.26016793  0.38353590  0.00829317  1
  O  O260  1  0.25913175  0.37030128  0.49806017  1
  O  O261  1  0.25037376  0.88181919  -0.00019717  1
  O  O262  1  0.25201529  0.86940697  0.50963163  1
  O  O263  1  0.74458820  0.35932825  0.00227171  1
  O  O264  1  0.75634576  0.36706609  0.50355805  1
  O  O265  1  0.75307286  0.86757995  0.00874946  1
  O  O266  1  0.75474078  0.87490353  0.50974077  1
  O  O267  1  0.12916623  0.49432178  0.24348942  1
  O  O268  1  0.13392455  0.50300749  0.75580085  1
  O  O269  1  0.11718824  0.98572248  0.24364150  1
  O  O270  1  0.12077133  1.00317002  0.73374085  1
  O  O271  1  0.63127212  0.50024128  0.24255485  1
  O  O272  1  0.63115349  0.49620882  0.74671133  1
  O  O273  1  0.62879802  1.00077742  0.23859451  1
  O  O274  1  0.63582987  1.00966068  0.75211434  1
  O  O275  1  0.38245071  0.01222412  0.25324937  1
  O  O276  1  0.37414443  0.01180696  0.74549473  1
  O  O277  1  0.36637052  0.50537938  0.24959526  1
  O  O278  1  0.36772185  0.50402111  0.75994238  1
  O  O279  1  0.88175286  0.00905979  0.25485748  1
  O  O280  1  0.87106427  0.00931141  0.75268644  1
  O  O281  1  0.86925268  0.50107866  0.25569383  1
  O  O282  1  0.86696629  0.50944551  0.75128717  1
  O  O283  1  0.13031847  0.36454027  0.36480656  1
  O  O284  1  0.11371731  0.36729404  0.87091470  1
  O  O285  1  0.12112316  0.87100586  0.36974184  1
  O  O286  1  0.11043397  0.87498563  0.87599232  1
  O  O287  1  0.61740476  0.36853149  0.37363609  1
  O  O288  1  0.61986614  0.36736843  0.86938598  1
  O  O289  1  0.62020996  0.87489484  0.36126703  1
  O  O290  1  0.62191126  0.85974578  0.87955819  1
  O  O291  1  0.36496715  0.13905994  0.13165086  1
  O  O292  1  0.38298019  0.13304532  0.62587954  1
  O  O293  1  0.37418605  0.62806902  0.14095222  1
  O  O294  1  0.39259736  0.61903900  0.62565774  1
  O  O295  1  0.87724779  0.12742145  0.13443797  1
  O  O296  1  0.87811132  0.12681864  0.62812699  1
  O  O297  1  0.86671169  0.64226490  0.13067486  1
  O  O298  1  0.87511863  0.62758573  0.63775522  1
  O  O299  1  0.25487538  0.26385960  0.12890424  1
  O  O300  1  0.26370489  0.24889068  0.61426771  1
  O  O301  1  0.26738205  0.74260969  0.13197468  1
  O  O302  1  0.26351857  0.74543415  0.62435956  1
  O  O303  1  0.75396221  0.25265084  0.12109357  1
  O  O304  1  0.75338099  0.25389336  0.61916423  1
  O  O305  1  0.75500832  0.76065218  0.11975028  1
  O  O306  1  0.75224602  0.76445697  0.62378291  1
  O  O307  1  0.24034712  0.24164476  0.37783079  1
  O  O308  1  0.23436017  0.25016188  0.86811415  1
  O  O309  1  0.24196012  0.74039630  0.36887354  1
  O  O310  1  0.24564933  0.73485301  0.87642819  1
  O  O311  1  0.74570486  0.23905583  0.37851795  1
  O  O312  1  0.73427418  0.24692058  0.88143522  1
  O  O313  1  0.75477709  0.73447268  0.37555943  1
  O  O314  1  0.73934366  0.75707130  0.88285777  1
  O  O315  1  0.00302125  0.11429388  0.00451772  1
  O  O316  1  0.00427592  0.11907872  0.50334547  1
  O  O317  1  0.00012213  0.62606408  0.00694782  1
  O  O318  1  0.01605892  0.62487390  0.49715130  1
  O  O319  1  0.51188483  0.12795767  0.00345518  1
  O  O320  1  0.50806474  0.13094553  0.50998797  1
  O  O321  1  0.50604662  0.61485848  -0.00383427  1
  O  O322  1  0.50796719  0.61794699  0.50569847  1
  O  O323  1  0.49410138  0.37692793  0.49346488  1
  O  O324  1  0.48636727  0.38711686  0.99799035  1
  O  O325  1  0.51447197  0.87862824  0.47901042  1
  O  O326  1  0.49394299  0.87742225  0.99990226  1
  O  O327  1  0.98513266  0.36853256  0.49917487  1
  O  O328  1  0.99562154  0.39049631  1.00626246  1
  O  O329  1  0.99250443  0.87796217  0.49304011  1
  O  O330  1  0.98884021  0.89195700  0.99169389  1
  O  O331  1  0.50057176  0.48583084  0.38042797  1
  O  O332  1  0.48932127  0.50042990  0.88201937  1
  O  O333  1  0.49108758  1.00365999  0.37544467  1
  O  O334  1  0.49564295  0.99952643  0.87996853  1
  O  O335  1  0.98710987  0.50170442  0.37689039  1
  O  O336  1  1.00115107  0.50222265  0.89908336  1
  O  O337  1  0.99385172  0.99446104  0.38061906  1
  O  O338  1  0.99418256  0.99745466  0.87994991  1
  O  O339  1  0.00612235  0.00359343  0.11759006  1
  O  O340  1  0.00522434  0.00629708  0.61794211  1
  O  O341  1  0.00697554  0.50474999  0.11624116  1
  O  O342  1  -0.00322118  0.50288950  0.61509608  1
  O  O343  1  0.51441338  -0.00167749  0.12820474  1
  O  O344  1  0.49924608  0.01163903  0.62778271  1
  O  O345  1  0.50622264  0.49720058  0.11617432  1
  O  O346  1  0.50883653  0.50477531  0.62275844  1
  O  O347  1  0.24182906  0.38118643  0.24359542  1
  O  O348  1  0.24832838  0.39462268  0.74922144  1
  O  O349  1  0.23866734  0.87462436  0.26199347  1
  O  O350  1  0.24149436  0.87283039  0.74902708  1
  O  O351  1  0.74642821  0.38747974  0.25028950  1
  O  O352  1  0.74486329  0.38037026  0.74526680  1
  O  O353  1  0.73666349  0.87208565  0.24411000  1
  O  O354  1  0.75316117  0.88210405  0.73592065  1
  O  O355  1  0.25999001  0.13182875  0.26033335  1
  O  O356  1  0.26379318  0.13087988  0.74196941  1
  O  O357  1  0.25704964  0.61526606  0.26165025  1
  O  O358  1  0.25028598  0.61669749  0.76038937  1
  O  O359  1  0.75933694  0.12852588  0.25982518  1
  O  O360  1  0.75655594  0.11647755  0.74813582  1
  O  O361  1  0.75096018  0.61455787  0.25735462  1
  O  O362  1  0.76034162  0.61569896  0.74749270  1
  O  O363  1  0.36981015  0.11558583  0.36807755  1
  O  O364  1  0.37276464  0.13201190  0.86145524  1
  O  O365  1  0.36904418  0.62128461  0.36751844  1
  O  O366  1  0.36584918  0.61596473  0.87637659  1
  O  O367  1  0.86750067  0.11967862  0.36809098  1
  O  O368  1  0.86907997  0.12297797  0.86437274  1
  O  O369  1  0.86795793  0.61536258  0.37417061  1
  O  O370  1  0.87137175  0.62777260  0.86079099  1
  O  O371  1  0.13086504  0.38202359  0.13053694  1
  O  O372  1  0.13303789  0.36536954  0.63069989  1
  O  O373  1  0.13006396  0.88071644  0.14133434  1
  O  O374  1  0.11463493  0.89038096  0.62450194  1
  O  O375  1  0.62650945  0.39015122  0.12519730  1
  O  O376  1  0.62979623  0.37858940  0.63106132  1
  O  O377  1  0.62944202  0.88266779  0.13676623  1
  O  O378  1  0.63385440  0.87410305  0.62107356  1
  O  O379  1  0.12132870  0.25711136  0.25412700  1
  O  O380  1  0.11475815  0.24908259  0.75472158  1
  O  O381  1  0.12087879  0.76050566  0.25820559  1
  O  O382  1  0.10986162  0.74598409  0.75471529  1
  O  O383  1  0.61527921  0.25125341  0.25463237  1
  O  O384  1  0.61972469  0.25412877  0.75790389  1
  O  O385  1  0.62532717  0.75763378  0.24458016  1
  O  O386  1  0.62442288  0.74234189  0.76394160  1
  O  O387  1  0.38013298  0.24439773  0.24279586  1
  O  O388  1  0.37819769  0.25031674  0.73994455  1
  O  O389  1  0.37538641  0.73616784  0.24958986  1
  O  O390  1  0.39045729  0.74525219  0.75786100  1
  O  O391  1  0.87874949  0.23992948  0.24520463  1
  O  O392  1  0.87744379  0.23679711  0.74115292  1
  O  O393  1  0.88504999  0.75305123  0.24228031  1
  O  O394  1  0.88274694  0.74043877  0.75091286  1
  O  O395  1  0.38222949  0.49194977  0.49773195  1
  O  O396  1  0.37940002  0.49662895  0.99668337  1
  O  O397  1  0.37655453  1.00485301  0.48524368  1
  O  O398  1  0.37967292  1.00269329  0.99912355  1
  O  O399  1  0.87206675  0.48879564  0.49080931  1
  O  O400  1  0.88312340  0.50358356  1.00978414  1
  O  O401  1  0.87980593  0.99302133  0.49316490  1
  O  O402  1  0.87799742  1.00003675  0.99493387  1
  O  O403  1  0.11694992  0.00783185  0.00836748  1
  O  O404  1  0.12003663  0.00449864  0.50715471  1
  O  O405  1  0.12320755  0.49705538  0.01388606  1
  O  O406  1  0.12381353  0.51333977  0.49078634  1
  O  O407  1  0.62431826  0.00749830  0.01233271  1
  O  O408  1  0.63122940  0.01417599  0.49827341  1
  O  O409  1  0.61685921  0.50704180  0.00408167  1
  O  O410  1  0.62036340  0.50310470  0.50804009  1
  O  O411  1  0.36620864  0.36835212  0.11961142  1
  O  O412  1  0.37266171  0.37006541  0.61312889  1
  O  O413  1  0.37421403  0.86107036  0.12912874  1
  O  O414  1  0.38780916  0.86341628  0.61214309  1
  O  O415  1  0.87261079  0.36091530  0.13284891  1
  O  O416  1  0.86708664  0.36596566  0.61684790  1
  O  O417  1  0.86739808  0.86857291  0.12259844  1
  O  O418  1  0.87461498  0.87533678  0.61209656  1
  O  O419  1  0.13276336  0.12697323  0.37640795  1
  O  O420  1  0.12671358  0.13157306  0.88496066  1
  O  O421  1  0.13358590  0.63396201  0.37962797  1
  O  O422  1  0.13583273  0.62792684  0.88147077  1
  O  O423  1  0.63084187  0.12938476  0.37930283  1
  O  O424  1  0.62348357  0.13340491  0.88343276  1
  O  O425  1  0.63610096  0.61615140  0.38751362  1
  O  O426  1  0.62551824  0.63489503  0.88801375  1
