# generated using pymatgen
data_V85Zn86O256
_symmetry_space_group_name_H-M   'P 1'
_cell_length_a   16.95129167
_cell_length_b   16.94187843
_cell_length_c   16.95638480
_cell_angle_alpha   89.92697794
_cell_angle_beta   90.01312620
_cell_angle_gamma   89.96965437
_symmetry_Int_Tables_number   1
_chemical_formula_structural   V85Zn86O256
_chemical_formula_sum   'V85 Zn86 O256'
_cell_volume   4869.64381400
_cell_formula_units_Z   1
loop_
 _symmetry_equiv_pos_site_id
 _symmetry_equiv_pos_as_xyz
  1  'x, y, z'
loop_
 _atom_site_type_symbol
 _atom_site_label
 _atom_site_symmetry_multiplicity
 _atom_site_fract_x
 _atom_site_fract_y
 _atom_site_fract_z
 _atom_site_occupancy
  V  V0  1  0.87626230  0.12537463  0.25286106  1
  V  V1  1  0.75808042  0.62429559  0.87627296  1
  V  V2  1  0.49909739  0.24847060  0.25309382  1
  V  V3  1  0.12792535  0.11808413  0.50400647  1
  V  V4  1  0.00353218  0.12439150  0.62636437  1
  V  V5  1  0.37408548  0.37087648  0.51214745  1
  V  V6  1  0.00673286  0.61796022  0.12103675  1
  V  V7  1  0.06259154  0.30073791  0.18765713  1
  V  V8  1  0.25107827  0.74910475  -0.00166248  1
  V  V9  1  0.37459532  0.49413346  0.37795762  1
  V  V10  1  0.74949577  0.62701757  0.37439538  1
  V  V11  1  0.05915372  0.41920333  0.32456824  1
  V  V12  1  0.42056143  0.07196500  0.79676885  1
  V  V13  1  0.24465054  0.88158032  0.61996408  1
  V  V14  1  0.00071337  0.62425708  0.62529330  1
  V  V15  1  0.75400787  -0.00417674  0.73598736  1
  V  V16  1  0.37309507  0.62181486  0.25050359  1
  V  V17  1  0.37887676  0.37026272  -0.00865056  1
  V  V18  1  0.87711181  0.38817736  -0.00302769  1
  V  V19  1  0.62060390  0.49931306  0.12553371  1
  V  V20  1  0.25210049  0.62833247  0.38000170  1
  V  V21  1  0.87253305  0.87699181  0.50276375  1
  V  V22  1  0.13201629  0.49371730  0.62550404  1
  V  V23  1  0.87424730  0.49877221  0.37462530  1
  V  V24  1  0.74993488  0.75395612  0.00154635  1
  V  V25  1  0.12745003  -0.00483897  0.13699334  1
  V  V26  1  0.73956475  0.25009767  0.49673424  1
  V  V27  1  0.24460743  0.11973348  0.87008153  1
  V  V28  1  0.62871280  0.11126017  0.00061184  1
  V  V29  1  0.12606920  0.88271141  0.74834869  1
  V  V30  1  -0.00317273  0.39560973  0.87426601  1
  V  V31  1  0.62164077  0.75806616  0.87467187  1
  V  V32  1  0.50049012  0.49264228  -0.00697183  1
  V  V33  1  0.25010636  0.25096683  0.50958075  1
  V  V34  1  -0.00008937  0.74994767  0.75044749  1
  V  V35  1  0.76068933  0.49984332  0.75355517  1
  V  V36  1  0.62421237  0.62674697  -0.00099228  1
  V  V37  1  0.88023392  0.25271774  0.62529383  1
  V  V38  1  0.87456395  0.87854293  0.00125382  1
  V  V39  1  0.88049442  0.37274768  0.49315800  1
  V  V40  1  0.73664285  0.13195593  0.36958369  1
  V  V41  1  0.00172121  0.49831985  0.49927930  1
  V  V42  1  0.37471242  0.24512082  0.12214047  1
  V  V43  1  0.24419713  0.24338597  -0.00240629  1
  V  V44  1  0.37418232  0.11529031  0.25187206  1
  V  V45  1  0.49973755  0.62232422  0.12276310  1
  V  V46  1  0.11084842  0.24445762  0.87959269  1
  V  V47  1  0.62121210  0.75549504  0.37472322  1
  V  V48  1  0.62664408  0.37578163  0.76233546  1
  V  V49  1  0.36692326  0.74689619  0.61749065  1
  V  V50  1  0.11781034  0.24773828  0.37575394  1
  V  V51  1  0.61966623  0.36548721  0.25453159  1
  V  V52  1  0.25330290  0.61681250  0.87326439  1
  V  V53  1  0.37439956  0.75023755  0.12204531  1
  V  V54  1  0.37490719  0.88536705  0.49659145  1
  V  V55  1  0.87339430  0.00300437  0.87495818  1
  V  V56  1  0.62505795  0.62493735  0.49989540  1
  V  V57  1  0.62770550  0.49919503  0.62844729  1
  V  V58  1  0.12645771  0.75660280  0.36178231  1
  V  V59  1  0.12544477  0.74747210  0.87734256  1
  V  V60  1  0.00129605  0.87320103  0.36425931  1
  V  V61  1  0.74995593  0.75223406  0.50307544  1
  V  V62  1  0.12644358  0.36876273  0.74962186  1
  V  V63  1  0.00061634  0.87560235  0.87556206  1
  V  V64  1  0.01118343  0.00552141  -0.00054250  1
  V  V65  1  0.74344880  0.50069126  0.25099802  1
  V  V66  1  0.00558165  0.12625493  0.12695734  1
  V  V67  1  0.50781400  0.11784405  0.61982910  1
  V  V68  1  0.25487044  0.11779285  0.37822510  1
  V  V69  1  0.63001146  0.87497817  0.73990364  1
  V  V70  1  0.74582854  0.37014629  0.12369812  1
  V  V71  1  0.87594064  0.63256457  0.24963186  1
  V  V72  1  0.49607495  0.75461739  0.75173794  1
  V  V73  1  0.12718186  0.63678982  0.50348129  1
  V  V74  1  0.87132484  0.75195323  0.62710643  1
  V  V75  1  0.87458227  0.25280844  0.12805255  1
  V  V76  1  0.88111683  0.75344006  0.12810898  1
  V  V77  1  0.50287826  0.49729901  0.50126354  1
  V  V78  1  0.50059087  0.74990770  0.25057657  1
  V  V79  1  0.00197560  -0.00205720  0.50253032  1
  V  V80  1  0.49415892  0.25851656  0.75556490  1
  V  V81  1  0.50672269  0.10834186  0.12086380  1
  V  V82  1  0.38671672  0.88376379  -0.01244337  1
  V  V83  1  0.74621113  0.88641444  0.13496623  1
  V  V84  1  0.87769424  0.13128907  0.75008355  1
  Zn  Zn85  1  0.51701603  0.00531737  0.49783787  1
  Zn  Zn86  1  0.38312843  0.49588105  0.86844302  1
  Zn  Zn87  1  0.88081604  0.62108481  0.75603039  1
  Zn  Zn88  1  0.24328527  0.86991574  0.12826796  1
  Zn  Zn89  1  0.24189354  0.37849802  0.12511409  1
  Zn  Zn90  1  0.24978156  -0.01362871  0.26332691  1
  Zn  Zn91  1  0.61237478  0.88982757  0.23855173  1
  Zn  Zn92  1  0.37634862  0.62304603  0.75026557  1
  Zn  Zn93  1  0.37164469  0.24035174  0.63332989  1
  Zn  Zn94  1  0.25692192  0.49391634  0.74428677  1
  Zn  Zn95  1  0.23320323  0.49113841  0.24901189  1
  Zn  Zn96  1  0.24960783  0.00335059  0.74882077  1
  Zn  Zn97  1  0.75311965  0.37501498  0.62610071  1
  Zn  Zn98  1  0.49876259  0.62598462  0.62719390  1
  Zn  Zn99  1  0.50454490  0.36207578  0.38260404  1
  Zn  Zn100  1  0.12411740  0.61045724  -0.00053684  1
  Zn  Zn101  1  0.68960987  0.93701343  0.56671031  1
  Zn  Zn102  1  0.74641696  0.25079954  -0.00237668  1
  Zn  Zn103  1  0.75128187  0.13108323  0.87376350  1
  Zn  Zn104  1  0.87495658  0.00283996  0.37123018  1
  Zn  Zn105  1  0.48605146  0.88802022  0.36803403  1
  Zn  Zn106  1  0.62412212  0.25200166  0.88184518  1
  Zn  Zn107  1  0.19342265  0.17707320  0.18496255  1
  Zn  Zn108  1  0.18344458  0.18826778  0.69306743  1
  Zn  Zn109  1  0.19123520  0.68393527  0.18994079  1
  Zn  Zn110  1  0.18865903  0.68853151  0.69128461  1
  Zn  Zn111  1  0.68848134  0.06435032  0.19794661  1
  Zn  Zn112  1  0.68977230  0.19028461  0.68760752  1
  Zn  Zn113  1  0.68833822  0.69225309  0.18566148  1
  Zn  Zn114  1  0.68823472  0.68579294  0.68968141  1
  Zn  Zn115  1  0.30917695  0.30506555  0.31936655  1
  Zn  Zn116  1  0.30699029  0.30985063  0.81489098  1
  Zn  Zn117  1  0.30852714  0.81040346  0.31228749  1
  Zn  Zn118  1  0.31145449  0.81273471  0.81018787  1
  Zn  Zn119  1  0.81163603  0.31109700  0.31045405  1
  Zn  Zn120  1  0.81418162  0.31264393  0.81494993  1
  Zn  Zn121  1  0.81316733  0.81503105  0.31549236  1
  Zn  Zn122  1  0.81178543  0.81356081  0.81210976  1
  Zn  Zn123  1  0.19647027  0.44172930  0.44752674  1
  Zn  Zn124  1  0.19273938  0.43009582  0.93507761  1
  Zn  Zn125  1  0.18767017  0.93427720  0.44233501  1
  Zn  Zn126  1  0.19133831  0.93465906  0.94044787  1
  Zn  Zn127  1  0.68882085  0.43258073  0.43728650  1
  Zn  Zn128  1  0.69116095  0.44059931  0.93874029  1
  Zn  Zn129  1  0.66491148  0.96646620  0.38641229  1
  Zn  Zn130  1  0.69011998  0.93692270  0.93321536  1
  Zn  Zn131  1  0.31102857  0.06227837  0.05900507  1
  Zn  Zn132  1  0.31888628  0.06541691  0.57489562  1
  Zn  Zn133  1  0.30728153  0.55651540  0.06085624  1
  Zn  Zn134  1  0.31236366  0.56325741  0.56183938  1
  Zn  Zn135  1  0.81638563  0.06496083  0.06211403  1
  Zn  Zn136  1  0.81578057  0.07038568  0.55431042  1
  Zn  Zn137  1  0.80972243  0.56409866  0.06553444  1
  Zn  Zn138  1  0.81364805  0.56368480  0.56423318  1
  Zn  Zn139  1  0.39765639  0.41547323  0.20508770  1
  Zn  Zn140  1  0.43982767  0.43675410  0.68874246  1
  Zn  Zn141  1  0.42788103  0.93253513  0.18390916  1
  Zn  Zn142  1  0.44272483  0.93180801  0.67942880  1
  Zn  Zn143  1  0.92613762  0.44511140  0.18549771  1
  Zn  Zn144  1  0.94343259  0.43402689  0.68730755  1
  Zn  Zn145  1  0.93516359  0.94318264  0.18762894  1
  Zn  Zn146  1  0.93919742  0.93884925  0.68582211  1
  Zn  Zn147  1  0.05902888  0.06474644  0.31378017  1
  Zn  Zn148  1  0.06064930  0.06531967  0.81207065  1
  Zn  Zn149  1  0.05889843  0.58620258  0.31085476  1
  Zn  Zn150  1  0.06976276  0.56307832  0.80909833  1
  Zn  Zn151  1  0.55046195  0.06741305  0.31875785  1
  Zn  Zn152  1  0.58202399  0.06507313  0.80756823  1
  Zn  Zn153  1  0.55932980  0.56139039  0.31390453  1
  Zn  Zn154  1  0.56651256  0.56970510  0.81211098  1
  Zn  Zn155  1  0.43710873  0.18297890  0.43925677  1
  Zn  Zn156  1  0.44209770  0.18438847  0.93933346  1
  Zn  Zn157  1  0.43801610  0.68816643  0.44053526  1
  Zn  Zn158  1  0.43746690  0.68839567  0.93541771  1
  Zn  Zn159  1  0.94096943  0.19124467  0.43755125  1
  Zn  Zn160  1  0.93438742  0.19088138  0.94528458  1
  Zn  Zn161  1  0.94118406  0.69075544  0.43738304  1
  Zn  Zn162  1  0.93844939  0.68760777  0.94275466  1
  Zn  Zn163  1  0.06122727  0.43989824  0.05673425  1
  Zn  Zn164  1  0.06219382  0.31083437  0.56114206  1
  Zn  Zn165  1  0.06134480  0.81250131  0.06268255  1
  Zn  Zn166  1  0.06009345  0.81375955  0.56220219  1
  Zn  Zn167  1  0.56182957  0.30549225  0.06470265  1
  Zn  Zn168  1  0.56057987  0.31251007  0.57444870  1
  Zn  Zn169  1  0.56131461  0.81672285  0.06105287  1
  Zn  Zn170  1  0.55492239  0.81061421  0.56257296  1
  O  O171  1  0.11557232  0.11350693  0.12665430  1
  O  O172  1  0.11161333  0.13156274  0.61896343  1
  O  O173  1  0.10853013  0.63213907  0.12742336  1
  O  O174  1  0.12111111  0.62076983  0.61941110  1
  O  O175  1  0.61508748  0.11615430  0.11845629  1
  O  O176  1  0.60760761  0.12881248  0.63689079  1
  O  O177  1  0.62112972  0.62132455  0.11865249  1
  O  O178  1  0.62588762  0.61449440  0.61921657  1
  O  O179  1  0.38034755  0.38136519  0.38815607  1
  O  O180  1  0.37281719  0.37405638  0.88742146  1
  O  O181  1  0.37016900  0.86406165  0.39438421  1
  O  O182  1  0.36865905  0.86981514  0.88896888  1
  O  O183  1  0.87071966  0.38454078  0.38068594  1
  O  O184  1  0.88946912  0.37314224  0.88076080  1
  O  O185  1  0.88267569  0.87564840  0.38472529  1
  O  O186  1  0.88197101  0.88328569  0.87864240  1
  O  O187  1  0.24159654  0.01304605  0.37839751  1
  O  O188  1  0.23962374  0.01514506  0.87592371  1
  O  O189  1  0.26070323  0.50609970  0.37392856  1
  O  O190  1  0.25345103  0.50964925  0.87358722  1
  O  O191  1  0.76162269  0.02962810  0.38338027  1
  O  O192  1  0.76479060  0.00218154  0.86773630  1
  O  O193  1  0.75307135  0.50807072  0.37033905  1
  O  O194  1  0.74569281  0.51190659  0.86584690  1
  O  O195  1  0.26126884  0.49276256  0.13800215  1
  O  O196  1  0.23587140  0.50122865  0.62183775  1
  O  O197  1  0.23181684  1.00266282  0.12153529  1
  O  O198  1  0.24857863  0.98488899  0.62715865  1
  O  O199  1  0.74252570  0.49225119  0.13230924  1
  O  O200  1  0.74373533  0.50055049  0.63303416  1
  O  O201  1  0.75327134  0.99072275  0.12795455  1
  O  O202  1  0.76174215  1.00160892  0.63170825  1
  O  O203  1  -0.00066272  0.37179575  0.24633465  1
  O  O204  1  0.00774161  0.37906116  0.76573250  1
  O  O205  1  -0.00826921  0.87995734  0.26525300  1
  O  O206  1  0.00593466  0.86929664  0.75500027  1
  O  O207  1  0.49967441  0.36499413  0.25085449  1
  O  O208  1  0.51094152  0.36551913  0.74669846  1
  O  O209  1  0.49635905  0.86517212  0.24997862  1
  O  O210  1  0.51160279  0.86320691  0.74419933  1
  O  O211  1  0.49408535  0.12927252  0.23827657  1
  O  O212  1  0.49707206  0.13182409  0.74759287  1
  O  O213  1  0.49403156  0.63066591  0.24370686  1
  O  O214  1  0.50091795  0.63902805  0.74641186  1
  O  O215  1  0.99340484  0.12473329  0.23744621  1
  O  O216  1  0.98778143  0.11803307  0.73947015  1
  O  O217  1  0.98618422  0.62667772  0.23561608  1
  O  O218  1  1.00039928  0.63173179  0.74461417  1
  O  O219  1  0.37186929  0.25079551  0.00361559  1
  O  O220  1  0.36750758  0.25515248  0.50309990  1
  O  O221  1  0.36828070  0.75174023  0.00604276  1
  O  O222  1  0.37660900  0.75477989  0.51468886  1
  O  O223  1  0.87128170  0.26014696  0.01352439  1
  O  O224  1  0.87204707  0.25871250  0.50435119  1
  O  O225  1  0.86992410  0.75912681  0.00777907  1
  O  O226  1  0.87253464  0.75597426  0.50668468  1
  O  O227  1  0.13087716  0.24043146  0.49501447  1
  O  O228  1  0.13466832  0.25357351  0.98269228  1
  O  O229  1  0.12220095  0.73882429  0.49749640  1
  O  O230  1  0.13029022  0.74891552  0.98950797  1
  O  O231  1  0.64190735  0.26364274  0.50605747  1
  O  O232  1  0.62628687  0.23686860  1.00112373  1
  O  O233  1  0.62744898  0.74667861  0.49329355  1
  O  O234  1  0.62965698  0.74827405  0.99286696  1
  O  O235  1  0.49250106  0.23796483  0.13382157  1
  O  O236  1  0.49853591  0.24271287  0.64092760  1
  O  O237  1  0.49486783  0.74349886  0.13085640  1
  O  O238  1  0.48536839  0.74827954  0.63154288  1
  O  O239  1  0.99475373  0.24355888  0.12580985  1
  O  O240  1  0.98795129  0.24078308  0.61742365  1
  O  O241  1  0.98594975  0.74479701  0.12146406  1
  O  O242  1  0.99302943  0.74356975  0.62951478  1
  O  O243  1  0.01748695  0.25493240  0.37757853  1
  O  O244  1  0.00956623  0.25086425  0.88099112  1
  O  O245  1  0.01474062  0.75808028  0.37926371  1
  O  O246  1  0.00687562  0.75389828  0.87250448  1
  O  O247  1  0.49397916  0.24522099  0.35879716  1
  O  O248  1  0.50459666  0.24286009  0.85896740  1
  O  O249  1  0.50440647  0.74998549  0.36677945  1
  O  O250  1  0.51120756  0.74560080  0.86615202  1
  O  O251  1  0.24467992  0.12688278  0.49899677  1
  O  O252  1  0.25638766  0.13638788  0.98953340  1
  O  O253  1  0.24127127  0.61913147  0.48830862  1
  O  O254  1  0.24968352  0.63461767  0.99212161  1
  O  O255  1  0.75478638  0.14369974  0.48970161  1
  O  O256  1  0.73885333  0.12565413  1.00313980  1
  O  O257  1  0.74517201  0.63082323  0.49342495  1
  O  O258  1  0.74423630  0.63178035  0.99552654  1
  O  O259  1  0.26013096  0.35957486  0.00225395  1
  O  O260  1  0.26039847  0.36294514  0.49829329  1
  O  O261  1  0.25262151  0.85959732  0.00443374  1
  O  O262  1  0.25580483  0.87241558  0.51284708  1
  O  O263  1  0.75572035  0.37573903  0.00809849  1
  O  O264  1  0.76262940  0.36804522  0.50144152  1
  O  O265  1  0.75623949  0.87361953  0.00925148  1
  O  O266  1  0.76486485  0.86768749  0.50292828  1
  O  O267  1  0.11669839  0.49159554  0.27248964  1
  O  O268  1  0.12746605  0.49132081  0.74019653  1
  O  O269  1  0.12547656  1.00222169  0.23951246  1
  O  O270  1  0.12108285  0.98523879  0.75304418  1
  O  O271  1  0.62514693  0.49554651  0.24284399  1
  O  O272  1  0.63187927  0.49706216  0.74425578  1
  O  O273  1  0.63222935  0.99750030  0.27181778  1
  O  O274  1  0.64146712  0.98834071  0.75119633  1
  O  O275  1  0.37036905  0.01206446  0.24311607  1
  O  O276  1  0.37079625  -0.00296490  0.74612636  1
  O  O277  1  0.39084912  0.50913335  0.27066883  1
  O  O278  1  0.37442281  0.50261576  0.75131589  1
  O  O279  1  0.87637493  0.01804970  0.25102913  1
  O  O280  1  0.87234066  0.00498682  0.75661508  1
  O  O281  1  0.86429006  0.51155067  0.25572204  1
  O  O282  1  0.86391168  0.50079892  0.74324852  1
  O  O283  1  0.13085033  0.36744508  0.38122295  1
  O  O284  1  0.11232352  0.36738279  0.87071809  1
  O  O285  1  0.11993865  0.86280592  0.38045421  1
  O  O286  1  0.12085136  0.86783299  0.86921640  1
  O  O287  1  0.61982923  0.38264449  0.36137557  1
  O  O288  1  0.62740599  0.37783520  0.86515007  1
  O  O289  1  0.62233352  0.85910599  0.36547208  1
  O  O290  1  0.63325948  0.86331840  0.86406345  1
  O  O291  1  0.38293594  0.12905613  0.12663732  1
  O  O292  1  0.39161305  0.12588956  0.63572453  1
  O  O293  1  0.38046623  0.63348360  0.12708837  1
  O  O294  1  0.37344534  0.63605609  0.62600144  1
  O  O295  1  0.87963624  0.13495206  0.13151858  1
  O  O296  1  0.88415114  0.13242478  0.62881432  1
  O  O297  1  0.87913918  0.63294015  0.13084619  1
  O  O298  1  0.88504656  0.63250002  0.62582895  1
  O  O299  1  0.25703742  0.24548658  0.11510436  1
  O  O300  1  0.25020511  0.24191253  0.61374103  1
  O  O301  1  0.25740034  0.74432052  0.11658893  1
  O  O302  1  0.26228369  0.75775805  0.63200014  1
  O  O303  1  0.75728593  0.26609074  0.12444356  1
  O  O304  1  0.76190260  0.25039650  0.61365407  1
  O  O305  1  0.76051720  0.75751533  0.11906569  1
  O  O306  1  0.76395383  0.74125584  0.61992741  1
  O  O307  1  0.24207841  0.23788920  0.38710884  1
  O  O308  1  0.24070654  0.24001316  0.87949278  1
  O  O309  1  0.23729373  0.74195334  0.37536981  1
  O  O310  1  0.24285924  0.74197151  0.87934293  1
  O  O311  1  0.75442937  0.24641727  0.38763474  1
  O  O312  1  0.74647790  0.24825739  0.87855451  1
  O  O313  1  0.74215389  0.74556907  0.38115737  1
  O  O314  1  0.74523234  0.74609134  0.88249966  1
  O  O315  1  -0.00920224  0.11628244  0.01517037  1
  O  O316  1  0.00706055  0.11821178  0.50466878  1
  O  O317  1  0.00140253  0.62667913  0.01615330  1
  O  O318  1  0.00807143  0.61892396  0.50420848  1
  O  O319  1  0.51068335  0.12456790  0.01325018  1
  O  O320  1  0.50091821  0.12819241  0.51534329  1
  O  O321  1  0.50667096  0.62171228  0.00508553  1
  O  O322  1  0.50784432  0.61678808  0.50349025  1
  O  O323  1  0.49615237  0.38008520  0.50135212  1
  O  O324  1  0.49498060  0.38241779  1.00428242  1
  O  O325  1  0.48250464  0.87595410  0.50210436  1
  O  O326  1  0.48694613  0.87159391  0.99755148  1
  O  O327  1  0.98924334  0.38132795  0.50064555  1
  O  O328  1  0.99171747  0.37915381  0.98578885  1
  O  O329  1  0.99428865  0.88199247  0.49477652  1
  O  O330  1  0.99360528  0.88337235  0.99416049  1
  O  O331  1  0.49538768  0.50058260  0.39110040  1
  O  O332  1  0.50368856  0.50925508  0.88935056  1
  O  O333  1  0.49439231  0.99944373  0.38492413  1
  O  O334  1  0.48302892  1.02074002  0.85342529  1
  O  O335  1  0.99696217  0.49746073  0.37628673  1
  O  O336  1  1.00141007  0.49435231  0.87376975  1
  O  O337  1  0.99978266  0.99321016  0.38607506  1
  O  O338  1  0.99211877  0.99848161  0.88206837  1
  O  O339  1  0.00798250  0.00578963  0.11940038  1
  O  O340  1  -0.00418557  0.00848019  0.61159037  1
  O  O341  1  -0.00213903  0.51265829  0.12655162  1
  O  O342  1  0.00910151  0.50668133  0.61997541  1
  O  O343  1  0.49717484  0.01027321  0.12970033  1
  O  O344  1  0.50204629  0.01175535  0.62120234  1
  O  O345  1  0.50622311  0.50889477  0.11313839  1
  O  O346  1  0.50823434  0.50205707  0.61619946  1
  O  O347  1  0.28211281  0.38097932  0.24183084  1
  O  O348  1  0.23231893  0.37696374  0.75742592  1
  O  O349  1  0.25916411  0.87721416  0.24019642  1
  O  O350  1  0.24170192  0.87663779  0.74112772  1
  O  O351  1  0.73921357  0.38000753  0.24425348  1
  O  O352  1  0.74495003  0.38382029  0.74880317  1
  O  O353  1  0.74964363  0.87093165  0.23616325  1
  O  O354  1  0.74628017  0.88366146  0.74901601  1
  O  O355  1  0.25798207  0.12072370  0.26106137  1
  O  O356  1  0.24637255  0.12086998  0.75890212  1
  O  O357  1  0.25538366  0.61896198  0.26293537  1
  O  O358  1  0.25096529  0.62119284  0.75990704  1
  O  O359  1  0.75814820  0.13438309  0.26227183  1
  O  O360  1  0.76239878  0.11701660  0.74892046  1
  O  O361  1  0.75416365  0.62196321  0.25466911  1
  O  O362  1  0.75324815  0.61834487  0.75950508  1
  O  O363  1  0.36537160  0.12937165  0.36579990  1
  O  O364  1  0.36618451  0.12846769  0.86584100  1
  O  O365  1  0.36730396  0.62034621  0.37556049  1
  O  O366  1  0.36583857  0.62376162  0.87249972  1
  O  O367  1  0.87874682  0.13307764  0.36283232  1
  O  O368  1  0.87702931  0.12034733  0.86730813  1
  O  O369  1  0.87267609  0.62232273  0.36747681  1
  O  O370  1  0.86262750  0.63244508  0.87623803  1
  O  O371  1  0.11971690  0.36417600  0.12914955  1
  O  O372  1  0.11526778  0.38159984  0.63494668  1
  O  O373  1  0.12169204  0.89026155  0.12205961  1
  O  O374  1  0.13675069  0.86429169  0.63250783  1
  O  O375  1  0.62993676  0.38087368  0.13006755  1
  O  O376  1  0.62976425  0.38808369  0.63404181  1
  O  O377  1  0.64122069  0.87045532  0.12572478  1
  O  O378  1  0.62971172  0.86423141  0.63456387  1
  O  O379  1  0.12857338  0.25048823  0.25526317  1
  O  O380  1  0.12393943  0.25748069  0.76509458  1
  O  O381  1  0.12475711  0.74569386  0.26335859  1
  O  O382  1  0.12036932  0.75724879  0.76111350  1
  O  O383  1  0.61349068  0.26452737  0.24173157  1
  O  O384  1  0.62006408  0.26165594  0.75146592  1
  O  O385  1  0.61124246  0.74703704  0.25429133  1
  O  O386  1  0.62173545  0.75556407  0.75575348  1
  O  O387  1  0.37893289  0.23715689  0.24015005  1
  O  O388  1  0.38953414  0.26300602  0.75027036  1
  O  O389  1  0.38342334  0.74172672  0.24353624  1
  O  O390  1  0.38191640  0.75124427  0.74061067  1
  O  O391  1  0.87245602  0.24689761  0.23588137  1
  O  O392  1  0.87093389  0.24179310  0.73948333  1
  O  O393  1  0.86717805  0.74019337  0.24379420  1
  O  O394  1  0.88124837  0.74912475  0.74273783  1
  O  O395  1  0.38214407  0.49361582  0.49641672  1
  O  O396  1  0.38457953  0.48852578  0.99777517  1
  O  O397  1  0.36993922  0.98525551  0.50596137  1
  O  O398  1  0.36913385  0.98162511  1.00470929  1
  O  O399  1  0.88100498  0.49537614  0.49405603  1
  O  O400  1  0.86954120  0.48780836  1.00529634  1
  O  O401  1  0.88311701  0.99247198  0.49772503  1
  O  O402  1  0.88209051  0.99688726  0.99253781  1
  O  O403  1  0.11310749  -0.00284539  0.00419812  1
  O  O404  1  0.11883918  0.01092009  0.50001368  1
  O  O405  1  0.13725449  0.49873968  0.00322770  1
  O  O406  1  0.11904562  0.50673766  0.50529751  1
  O  O407  1  0.62767252  0.01121245  -0.00592142  1
  O  O408  1  0.62983161  -0.01213207  0.49058328  1
  O  O409  1  0.62051182  0.50532862  0.00659327  1
  O  O410  1  0.62075120  0.50157438  0.50700540  1
  O  O411  1  0.37946356  0.35394199  0.11069454  1
  O  O412  1  0.37886200  0.37101194  0.61453972  1
  O  O413  1  0.37415087  0.85855803  0.11411308  1
  O  O414  1  0.36469320  0.86619146  0.61777175  1
  O  O415  1  0.86808676  0.37199533  0.11947319  1
  O  O416  1  0.87613124  0.36822523  0.61736822  1
  O  O417  1  0.86704999  0.87136711  0.12327861  1
  O  O418  1  0.88491616  0.86332191  0.61586723  1
  O  O419  1  0.12893391  0.13111873  0.38381591  1
  O  O420  1  0.12633273  0.13714813  0.87201190  1
  O  O421  1  0.13016818  0.63680809  0.38332688  1
  O  O422  1  0.13249261  0.63261136  0.87724539  1
  O  O423  1  0.63810319  0.13501337  0.36773269  1
  O  O424  1  0.63039905  0.12678748  0.88886929  1
  O  O425  1  0.62792237  0.63489152  0.37977356  1
  O  O426  1  0.63693124  0.63719607  0.88003192  1
