# generated using pymatgen
data_V85Zn86O256
_symmetry_space_group_name_H-M   'P 1'
_cell_length_a   16.90942760
_cell_length_b   16.91292847
_cell_length_c   16.91190126
_cell_angle_alpha   90.01783443
_cell_angle_beta   89.99891098
_cell_angle_gamma   90.02123254
_symmetry_Int_Tables_number   1
_chemical_formula_structural   V85Zn86O256
_chemical_formula_sum   'V85 Zn86 O256'
_cell_volume   4836.59922643
_cell_formula_units_Z   1
loop_
 _symmetry_equiv_pos_site_id
 _symmetry_equiv_pos_as_xyz
  1  'x, y, z'
loop_
 _atom_site_type_symbol
 _atom_site_label
 _atom_site_symmetry_multiplicity
 _atom_site_fract_x
 _atom_site_fract_y
 _atom_site_fract_z
 _atom_site_occupancy
  V  V0  1  -0.00359693  0.37497466  0.37907400  1
  V  V1  1  0.87162185  0.00519279  0.37686653  1
  V  V2  1  0.24315707  -0.00288491  0.75318562  1
  V  V3  1  0.74375648  0.49333777  0.25470369  1
  V  V4  1  0.13535512  0.50096358  0.62989541  1
  V  V5  1  0.62821299  0.87793018  0.75143537  1
  V  V6  1  0.50286038  0.49824457  0.50729736  1
  V  V7  1  0.62581576  0.62232467  0.50248826  1
  V  V8  1  0.00320007  0.12090721  0.12839374  1
  V  V9  1  0.50037315  0.00825065  0.50361361  1
  V  V10  1  0.49845965  0.87395181  0.87616482  1
  V  V11  1  -0.00340701  0.12431121  0.63599301  1
  V  V12  1  0.50053755  -0.00014875  -0.00054022  1
  V  V13  1  0.89203173  0.37942933  -0.00296860  1
  V  V14  1  0.62712354  -0.00621748  0.12854835  1
  V  V15  1  0.50270566  0.12753173  0.12459925  1
  V  V16  1  0.11865459  0.25143758  0.87698800  1
  V  V17  1  0.24555517  0.62778854  0.37399514  1
  V  V18  1  0.88735864  0.50064260  0.87191447  1
  V  V19  1  0.63013951  0.63047356  0.00116815  1
  V  V20  1  0.24756080  0.75035631  0.49768224  1
  V  V21  1  0.37670704  0.74863145  0.62533011  1
  V  V22  1  0.37400490  0.24046581  0.61411964  1
  V  V23  1  -0.00507296  0.49665498  0.50348738  1
  V  V24  1  0.86901326  0.12564133  0.25191818  1
  V  V25  1  0.37512391  0.87455651  0.49884108  1
  V  V26  1  0.37577646  0.50030706  0.37391447  1
  V  V27  1  0.74835614  -0.00705872  0.25247579  1
  V  V28  1  0.24796847  0.37630703  0.12233097  1
  V  V29  1  0.87377944  0.74720102  0.63481283  1
  V  V30  1  0.63032855  0.74801303  0.37049034  1
  V  V31  1  0.49596809  0.62753415  0.12267895  1
  V  V32  1  0.37117325  -0.00191683  0.87416677  1
  V  V33  1  0.50023003  0.37784847  0.87116427  1
  V  V34  1  0.87495447  0.25068279  0.63033970  1
  V  V35  1  0.75643728  0.24448916  0.49729496  1
  V  V36  1  0.62329131  0.49377088  0.12681890  1
  V  V37  1  0.00428607  -0.00109487  0.00297415  1
  V  V38  1  0.86939511  0.50313933  0.37956075  1
  V  V39  1  0.00744736  0.86857998  0.37439621  1
  V  V40  1  0.12362438  0.37571454  0.75307592  1
  V  V41  1  0.12769691  0.13602039  0.50350395  1
  V  V42  1  0.74919748  0.50601933  0.74854581  1
  V  V43  1  0.75197638  0.25556914  -0.00177662  1
  V  V44  1  0.62974987  0.12554651  -0.00169363  1
  V  V45  1  0.13293037  0.12640404  0.00579989  1
  V  V46  1  0.36995926  0.87176838  0.01365932  1
  V  V47  1  0.50779304  0.37796987  0.36965385  1
  V  V48  1  0.25166060  0.37001621  0.61995956  1
  V  V49  1  0.86625896  0.62425918  0.25084888  1
  V  V50  1  0.87253516  0.00527360  0.86559561  1
  V  V51  1  0.11426389  0.49764487  0.12235661  1
  V  V52  1  0.49983025  0.74772149  0.75216190  1
  V  V53  1  0.75073964  0.74560681  0.49752132  1
  V  V54  1  0.24199258  0.87420153  0.62916771  1
  V  V55  1  0.11687719  0.62127287  -0.00249203  1
  V  V56  1  0.50725285  0.25595466  0.24575314  1
  V  V57  1  0.00333078  0.74483389  0.25015991  1
  V  V58  1  0.75306169  0.62790602  0.87632288  1
  V  V59  1  -0.00373195  0.62370451  0.63379519  1
  V  V60  1  0.62443903  0.38056587  0.73688222  1
  V  V61  1  0.62686322  0.25184600  0.87052420  1
  V  V62  1  0.37109839  0.37272250  -0.00431452  1
  V  V63  1  0.25025947  0.13254060  0.37696331  1
  V  V64  1  0.75633923  0.38135890  0.61660817  1
  V  V65  1  0.00418236  0.00162083  0.49991819  1
  V  V66  1  0.86864995  0.87154196  0.00339784  1
  V  V67  1  0.25380422  0.13430540  0.87526701  1
  V  V68  1  0.13058141  0.76214008  0.87010248  1
  V  V69  1  0.50697178  0.87630052  0.37415635  1
  V  V70  1  0.00202813  0.87613687  0.86903080  1
  V  V71  1  0.25001766  0.75231739  0.01361353  1
  V  V72  1  0.63059819  0.24497221  0.37242899  1
  V  V73  1  0.49880637  0.24351796  0.74169662  1
  V  V74  1  0.75537332  0.12581823  0.86112473  1
  V  V75  1  0.36928581  0.25129819  0.12265997  1
  V  V76  1  0.00167837  0.25024846  0.25328332  1
  V  V77  1  0.62307763  0.00674769  0.62753563  1
  V  V78  1  0.50089845  0.75465044  0.24774064  1
  V  V79  1  0.12221190  0.62807870  0.49702884  1
  V  V80  1  0.37299727  0.63096148  0.24498431  1
  V  V81  1  0.75057693  0.88139566  0.62852784  1
  V  V82  1  0.87432718  0.87493820  0.49951824  1
  V  V83  1  0.37244125  0.00029027  0.37002577  1
  V  V84  1  0.25032401  0.61914343  0.86977553  1
  Zn  Zn85  1  0.00385301  0.75246984  0.74901690  1
  Zn  Zn86  1  0.23407462  -0.00200631  0.23573875  1
  Zn  Zn87  1  0.24719878  0.50091420  0.24790718  1
  Zn  Zn88  1  0.13220937  0.25770177  0.38029154  1
  Zn  Zn89  1  0.50363706  0.62030222  0.62779406  1
  Zn  Zn90  1  0.36967349  0.37026423  0.49393155  1
  Zn  Zn91  1  0.49758171  0.50207896  -0.00222730  1
  Zn  Zn92  1  0.12360682  -0.00164921  0.62871719  1
  Zn  Zn93  1  0.62810837  0.12461656  0.49910965  1
  Zn  Zn94  1  0.12547591  0.37689807  0.25176925  1
  Zn  Zn95  1  -0.00720965  0.61915594  0.12135176  1
  Zn  Zn96  1  -0.00590824  0.25204463  0.75576521  1
  Zn  Zn97  1  0.86643354  0.74093637  0.11985778  1
  Zn  Zn98  1  0.37060229  0.61669347  0.74493948  1
  Zn  Zn99  1  0.37226453  0.12515284  0.24774069  1
  Zn  Zn100  1  0.36769889  0.49461947  0.86745912  1
  Zn  Zn101  1  0.63146879  0.75183849  0.87905324  1
  Zn  Zn102  1  0.74305186  0.86480425  0.12508172  1
  Zn  Zn103  1  0.12973048  0.87443726  0.23386817  1
  Zn  Zn104  1  0.37894794  0.12121763  0.74472245  1
  Zn  Zn105  1  0.87409466  0.25223610  0.12466187  1
  Zn  Zn106  1  0.74687609  0.37270566  0.12652299  1
  Zn  Zn107  1  0.18785932  0.18529709  0.19264729  1
  Zn  Zn108  1  0.18928896  0.18747253  0.68957002  1
  Zn  Zn109  1  0.18099232  0.68406752  0.18721985  1
  Zn  Zn110  1  0.18552056  0.68866995  0.68830866  1
  Zn  Zn111  1  0.68915686  0.18598184  0.18658556  1
  Zn  Zn112  1  0.68853313  0.19151777  0.68418235  1
  Zn  Zn113  1  0.68862822  0.68408744  0.18711180  1
  Zn  Zn114  1  0.68674554  0.68892057  0.68707772  1
  Zn  Zn115  1  0.31658776  0.31290298  0.30717157  1
  Zn  Zn116  1  0.31024497  0.31347518  0.80304790  1
  Zn  Zn117  1  0.31078604  0.81264566  0.30811969  1
  Zn  Zn118  1  0.31183676  0.81184935  0.81423487  1
  Zn  Zn119  1  0.81544385  0.31654203  0.31507002  1
  Zn  Zn120  1  0.81322503  0.31907697  0.81114986  1
  Zn  Zn121  1  0.81619874  0.81353719  0.31141087  1
  Zn  Zn122  1  0.81285193  0.81602546  0.81433910  1
  Zn  Zn123  1  0.18501298  0.44083332  0.43969340  1
  Zn  Zn124  1  0.18391823  0.43516479  0.94085090  1
  Zn  Zn125  1  0.18855871  0.93887677  0.42825426  1
  Zn  Zn126  1  0.18313430  0.93611590  1.06738777  1
  Zn  Zn127  1  0.68573097  0.43467904  0.43791749  1
  Zn  Zn128  1  0.68619846  0.44230067  0.93568110  1
  Zn  Zn129  1  0.68826818  0.93689979  0.43841820  1
  Zn  Zn130  1  0.68984409  0.94023113  0.93538162  1
  Zn  Zn131  1  0.31624358  0.06609140  0.05962382  1
  Zn  Zn132  1  0.30964116  0.06102688  0.55989510  1
  Zn  Zn133  1  0.30857088  0.56010895  0.05781890  1
  Zn  Zn134  1  0.31437545  0.56199490  0.56037685  1
  Zn  Zn135  1  0.81513640  0.06221824  0.06154870  1
  Zn  Zn136  1  0.81352015  0.06526125  0.56568336  1
  Zn  Zn137  1  0.81004836  0.55700195  0.06165320  1
  Zn  Zn138  1  0.81216818  0.56508009  0.56316258  1
  Zn  Zn139  1  0.43619043  0.44039488  0.18759952  1
  Zn  Zn140  1  0.43100969  0.43392518  0.68746970  1
  Zn  Zn141  1  0.43827192  0.93856135  0.18869825  1
  Zn  Zn142  1  0.43616623  0.93503377  0.68727322  1
  Zn  Zn143  1  0.93238296  0.43517637  0.18875219  1
  Zn  Zn144  1  0.93765925  0.43566540  0.69048664  1
  Zn  Zn145  1  0.94546720  0.93602484  0.18827492  1
  Zn  Zn146  1  0.93756042  0.93770938  0.68758064  1
  Zn  Zn147  1  0.06504468  0.06238943  0.31595612  1
  Zn  Zn148  1  0.06617599  0.06217789  0.81769959  1
  Zn  Zn149  1  0.06021329  0.56095132  0.31060617  1
  Zn  Zn150  1  0.06811817  0.56369494  0.81092897  1
  Zn  Zn151  1  0.56279905  0.06520485  0.31057276  1
  Zn  Zn152  1  0.56435784  0.06248355  0.81283815  1
  Zn  Zn153  1  0.56455887  0.56711075  0.31363766  1
  Zn  Zn154  1  0.56429750  0.56203850  0.81212242  1
  Zn  Zn155  1  0.44104483  0.18727936  0.43327894  1
  Zn  Zn156  1  0.43894624  0.19040770  0.93616326  1
  Zn  Zn157  1  0.43866710  0.68619839  0.43613240  1
  Zn  Zn158  1  0.43414801  0.68841535  0.93894544  1
  Zn  Zn159  1  0.93670963  0.18795483  0.44240347  1
  Zn  Zn160  1  0.93829115  0.18665747  0.94022775  1
  Zn  Zn161  1  0.93541889  0.68468052  0.43809571  1
  Zn  Zn162  1  0.93714354  0.68806452  0.93194351  1
  Zn  Zn163  1  0.06486889  0.30512020  0.06462179  1
  Zn  Zn164  1  0.05885927  0.31465543  0.56704360  1
  Zn  Zn165  1  0.05065325  0.80140543  0.05858489  1
  Zn  Zn166  1  0.06143123  0.81103388  0.56048225  1
  Zn  Zn167  1  0.56156314  0.31418281  0.05699792  1
  Zn  Zn168  1  0.56147263  0.31149460  0.55776160  1
  Zn  Zn169  1  0.56074509  0.81040246  0.06218128  1
  Zn  Zn170  1  0.56373358  0.81439980  0.56189938  1
  O  O171  1  0.11760485  0.13256625  0.11670900  1
  O  O172  1  0.11962215  0.12194078  0.61880988  1
  O  O173  1  0.12156674  0.61469312  0.11542326  1
  O  O174  1  0.12025104  0.61816493  0.62003816  1
  O  O175  1  0.62138243  0.11744600  0.11752891  1
  O  O176  1  0.62963005  0.11002551  0.62651897  1
  O  O177  1  0.61703678  0.61610820  0.11907415  1
  O  O178  1  0.62160214  0.63341635  0.60872114  1
  O  O179  1  0.38297987  0.38327769  0.37419478  1
  O  O180  1  0.37988530  0.37062832  0.87900927  1
  O  O181  1  0.38598382  0.88158300  0.38025781  1
  O  O182  1  0.37857516  0.88241346  0.88189356  1
  O  O183  1  0.88838513  0.38704702  0.37431833  1
  O  O184  1  0.87277336  0.38645993  0.88589704  1
  O  O185  1  0.88093738  0.88560340  0.38207889  1
  O  O186  1  0.87914139  0.88586370  0.88261147  1
  O  O187  1  0.26177007  0.01274498  0.38060131  1
  O  O188  1  0.26371500  0.00907394  0.86799817  1
  O  O189  1  0.25828217  0.50940055  0.37464263  1
  O  O190  1  0.24570971  0.51624592  0.88022056  1
  O  O191  1  0.75913376  -0.00313505  0.36897068  1
  O  O192  1  0.76413319  0.01020335  0.87945818  1
  O  O193  1  0.75811388  0.49278831  0.37006137  1
  O  O194  1  0.75565030  0.50759766  0.86642395  1
  O  O195  1  0.24055434  0.49172339  0.12489497  1
  O  O196  1  0.24020291  0.49547810  0.62024230  1
  O  O197  1  0.25663039  0.99915674  0.12291536  1
  O  O198  1  0.25136478  0.99112764  0.63375769  1
  O  O199  1  0.73935647  0.49694485  0.13345614  1
  O  O200  1  0.75810346  0.49279716  0.63366056  1
  O  O201  1  0.74270985  0.99948905  0.13149907  1
  O  O202  1  0.74321712  0.98814889  0.61907526  1
  O  O203  1  -0.00114176  0.36647620  0.25828952  1
  O  O204  1  0.01749003  0.37086068  0.74314115  1
  O  O205  1  -0.00538663  0.86237146  0.26027093  1
  O  O206  1  -0.00153574  0.87621899  0.76413515  1
  O  O207  1  0.49652647  0.36819143  0.25607448  1
  O  O208  1  0.50728017  0.36683144  0.75210411  1
  O  O209  1  0.49608770  0.86249856  0.25672264  1
  O  O210  1  0.50444461  0.86522624  0.75564745  1
  O  O211  1  0.49850747  0.13391142  0.23985763  1
  O  O212  1  0.50092366  0.13963941  0.75459951  1
  O  O213  1  0.49221886  0.63332004  0.24471060  1
  O  O214  1  0.50307928  0.63732400  0.74782428  1
  O  O215  1  0.99251415  0.13023253  0.24653160  1
  O  O216  1  1.00705876  0.12434951  0.73854367  1
  O  O217  1  0.98776971  0.62889223  0.25079961  1
  O  O218  1  1.00461269  0.62797930  0.73700593  1
  O  O219  1  0.38209741  0.26258995  0.00869087  1
  O  O220  1  0.38215933  0.25066320  0.51050014  1
  O  O221  1  0.35903440  0.75733469  -0.00431787  1
  O  O222  1  0.37081932  0.75390854  0.50658252  1
  O  O223  1  0.86930007  0.26225425  -0.00287318  1
  O  O224  1  0.86708390  0.24990354  0.51076407  1
  O  O225  1  0.88075312  0.76817699  -0.00364873  1
  O  O226  1  0.86714973  0.75409450  0.50699068  1
  O  O227  1  0.11892900  0.23963584  0.50036347  1
  O  O228  1  0.12371219  0.23796580  0.99172414  1
  O  O229  1  0.12977800  0.73562111  0.50475068  1
  O  O230  1  0.13341757  0.74262952  0.99056747  1
  O  O231  1  0.63182525  0.24708795  0.49152825  1
  O  O232  1  0.63193437  0.24596972  0.99100766  1
  O  O233  1  0.63179798  0.74731674  0.49249914  1
  O  O234  1  0.62121828  0.73592729  0.99821383  1
  O  O235  1  0.49684707  0.24837497  0.12895625  1
  O  O236  1  0.48777557  0.25497592  0.62974583  1
  O  O237  1  0.50528525  0.73775533  0.13409404  1
  O  O238  1  0.49195665  0.75258614  0.63211435  1
  O  O239  1  0.99661831  0.24041713  0.13506414  1
  O  O240  1  0.99153263  0.24174265  0.62628212  1
  O  O241  1  0.98607128  0.74121847  0.13501812  1
  O  O242  1  0.99226036  0.74348256  0.62513762  1
  O  O243  1  -0.00125343  0.25897814  0.37190517  1
  O  O244  1  0.01362855  0.24213832  0.87272414  1
  O  O245  1  -0.00958419  0.75782689  0.36800411  1
  O  O246  1  0.01038625  0.75709446  0.87279981  1
  O  O247  1  0.50586552  0.25779629  0.36554672  1
  O  O248  1  0.50528090  0.26010706  0.86593650  1
  O  O249  1  0.50636978  0.75732943  0.36948228  1
  O  O250  1  0.50112157  0.75529878  0.86780496  1
  O  O251  1  0.23793484  0.12169469  0.49386246  1
  O  O252  1  0.24210242  0.12213828  0.98954439  1
  O  O253  1  0.24231801  0.62807688  0.49372419  1
  O  O254  1  0.24264281  0.63507760  0.99144892  1
  O  O255  1  0.74805851  0.13929155  0.50373617  1
  O  O256  1  0.74948859  0.13747598  0.99291501  1
  O  O257  1  0.74396305  0.63820542  0.50261692  1
  O  O258  1  0.74150389  0.61813791  0.99029858  1
  O  O259  1  0.25705690  0.37407606  0.01131581  1
  O  O260  1  0.24979690  0.37859956  0.51230795  1
  O  O261  1  0.25487902  0.86069854  0.00165876  1
  O  O262  1  0.25554989  0.87031386  0.50380574  1
  O  O263  1  0.74990208  0.36390434  -0.00306693  1
  O  O264  1  0.74376727  0.36738378  0.51247771  1
  O  O265  1  0.76524719  0.88167153  0.00041520  1
  O  O266  1  0.75358578  0.86571154  0.50807931  1
  O  O267  1  0.12733615  0.49822296  0.23954576  1
  O  O268  1  0.12388457  0.49280050  0.73999556  1
  O  O269  1  0.11952667  0.98968441  0.25510633  1
  O  O270  1  0.13925186  1.00040597  0.75122270  1
  O  O271  1  0.63272625  0.50679385  0.24314566  1
  O  O272  1  0.63348688  0.49066259  0.75120310  1
  O  O273  1  0.63535548  1.00742033  0.24143519  1
  O  O274  1  0.61672200  0.98646087  0.74311793  1
  O  O275  1  0.38090982  0.00312802  0.26385877  1
  O  O276  1  0.37141537  0.00144230  0.75729489  1
  O  O277  1  0.37383198  0.51062626  0.25982108  1
  O  O278  1  0.37909074  0.50432786  0.75477047  1
  O  O279  1  0.87187207  0.00600667  0.25785059  1
  O  O280  1  0.87754473  -0.00248190  0.76651895  1
  O  O281  1  0.86852848  0.50486955  0.25891202  1
  O  O282  1  0.86634017  0.49217560  0.76451714  1
  O  O283  1  0.11367306  0.37676493  0.37379864  1
  O  O284  1  0.13469760  0.36352873  0.86712913  1
  O  O285  1  0.10800676  0.87121350  0.38456804  1
  O  O286  1  0.11907580  0.86211139  0.88125047  1
  O  O287  1  0.61347541  0.36542940  0.37618829  1
  O  O288  1  0.61867204  0.37030825  0.86571609  1
  O  O289  1  0.61336109  0.86764312  0.37944081  1
  O  O290  1  0.62110697  0.87432599  0.86861563  1
  O  O291  1  0.38482507  0.13645011  0.12217084  1
  O  O292  1  0.37256928  0.13623762  0.62379321  1
  O  O293  1  0.38153115  0.61744066  0.13335945  1
  O  O294  1  0.37720785  0.63729472  0.62399753  1
  O  O295  1  0.88324224  0.12804360  0.13344439  1
  O  O296  1  0.88475341  0.13373216  0.62400260  1
  O  O297  1  0.87478838  0.61786498  0.13450528  1
  O  O298  1  0.88397290  0.63525752  0.62071990  1
  O  O299  1  0.26356410  0.25481123  0.13138451  1
  O  O300  1  0.26437586  0.25388126  0.62590445  1
  O  O301  1  0.24678365  0.74273158  0.11224473  1
  O  O302  1  0.25593433  0.75507116  0.62034927  1
  O  O303  1  0.75193285  0.25246983  0.11478703  1
  O  O304  1  0.75670488  0.25789478  0.61825714  1
  O  O305  1  0.75390252  0.75277259  0.12979821  1
  O  O306  1  0.75577052  0.75868645  0.61926756  1
  O  O307  1  0.25264131  0.23859381  0.37022486  1
  O  O308  1  0.24571358  0.23821628  0.86764696  1
  O  O309  1  0.25759215  0.73488003  0.38294731  1
  O  O310  1  0.24095687  0.74516441  0.88115081  1
  O  O311  1  0.74323420  0.25991967  0.38403169  1
  O  O312  1  0.74714783  0.24562910  0.87816377  1
  O  O313  1  0.74084572  0.75929626  0.38323391  1
  O  O314  1  0.75228488  0.73321505  0.86664369  1
  O  O315  1  0.00534478  0.11945916  0.00969671  1
  O  O316  1  0.00665825  0.11763901  0.50812460  1
  O  O317  1  0.01288622  0.63116380  -0.00072942  1
  O  O318  1  0.00611792  0.61808925  0.50794404  1
  O  O319  1  0.50738760  0.12096946  0.00444083  1
  O  O320  1  0.50357856  0.11137091  0.49641522  1
  O  O321  1  0.50271023  0.62385096  0.00756261  1
  O  O322  1  0.50659317  0.61632116  0.50044276  1
  O  O323  1  0.49776503  0.38291100  0.48917864  1
  O  O324  1  0.49283850  0.37665277  0.98755289  1
  O  O325  1  0.49478947  0.88110201  0.49192416  1
  O  O326  1  0.49356210  0.87854679  0.99338683  1
  O  O327  1  1.00426114  0.38861809  0.49589738  1
  O  O328  1  0.99016340  0.36990076  1.00016427  1
  O  O329  1  0.99270879  0.88196599  0.49765967  1
  O  O330  1  0.99216850  0.88271850  0.98807917  1
  O  O331  1  0.49503036  0.49470200  0.37778583  1
  O  O332  1  0.50116504  0.48626685  0.87450705  1
  O  O333  1  0.49741184  0.99339240  0.38028605  1
  O  O334  1  0.49147236  0.99601519  0.87889264  1
  O  O335  1  0.99400016  0.49519297  0.38434463  1
  O  O336  1  0.98648082  0.50495404  0.86879947  1
  O  O337  1  0.99138996  0.99329879  0.38457142  1
  O  O338  1  0.99299347  0.99679436  0.88173306  1
  O  O339  1  -0.00516993  0.01310547  0.11808551  1
  O  O340  1  0.00059014  0.00572905  0.61830965  1
  O  O341  1  0.01030096  0.49706676  0.12785698  1
  O  O342  1  0.00409950  0.50608107  0.61987811  1
  O  O343  1  0.50660744  0.00743026  0.12077307  1
  O  O344  1  0.50894150  -0.00938689  0.61517289  1
  O  O345  1  0.50510086  0.51123892  0.12580857  1
  O  O346  1  0.49519943  0.49813430  0.61047299  1
  O  O347  1  0.24978872  0.37719987  0.23662347  1
  O  O348  1  0.23816907  0.37112967  0.73323494  1
  O  O349  1  0.24021529  0.88459155  0.26829577  1
  O  O350  1  0.25739992  0.88288260  0.74071027  1
  O  O351  1  0.75619520  0.38804507  0.24575854  1
  O  O352  1  0.74196191  0.38336752  0.74106646  1
  O  O353  1  0.75667216  0.88945151  0.24583342  1
  O  O354  1  0.74085818  0.87193064  0.74183218  1
  O  O355  1  0.25252756  0.11881855  0.26046621  1
  O  O356  1  0.25468223  0.11587090  0.75734719  1
  O  O357  1  0.25570863  0.62569860  0.25639200  1
  O  O358  1  0.24966071  0.63147006  0.76579131  1
  O  O359  1  0.76417182  0.11715343  0.24573195  1
  O  O360  1  0.74679754  0.12986218  0.76182188  1
  O  O361  1  0.75936558  0.61137047  0.25111249  1
  O  O362  1  0.74348375  0.61284794  0.75394165  1
  O  O363  1  0.36949199  0.11812685  0.37503613  1
  O  O364  1  0.37027634  0.11877372  0.87543421  1
  O  O365  1  0.36969586  0.61833174  0.36797218  1
  O  O366  1  0.35869370  0.62589464  0.87648698  1
  O  O367  1  0.88202311  0.11334012  0.36877492  1
  O  O368  1  0.87110231  0.11406783  0.87848672  1
  O  O369  1  0.87693719  0.61102152  0.36884591  1
  O  O370  1  0.86841614  0.61022757  0.88217243  1
  O  O371  1  0.13183622  0.37876281  0.12409263  1
  O  O372  1  0.13105925  0.38235212  0.62837116  1
  O  O373  1  0.11049326  0.87113319  0.12041844  1
  O  O374  1  0.13782899  0.87598646  0.61977473  1
  O  O375  1  0.62223860  0.38975076  0.11936084  1
  O  O376  1  0.63221652  0.37044535  0.63257404  1
  O  O377  1  0.62353601  0.88977128  0.11852420  1
  O  O378  1  0.63257364  0.88130612  0.63122949  1
  O  O379  1  0.11206882  0.25121342  0.25520491  1
  O  O380  1  0.12365102  0.25542981  0.75842544  1
  O  O381  1  0.10722188  0.74652922  0.24896305  1
  O  O382  1  0.12474626  0.75072130  0.76502496  1
  O  O383  1  0.61623565  0.24799927  0.25375256  1
  O  O384  1  0.61886453  0.25855183  0.75142761  1
  O  O385  1  0.61537475  0.74128512  0.26125490  1
  O  O386  1  0.61762905  0.76149475  0.75052453  1
  O  O387  1  0.38860590  0.24874129  0.23956826  1
  O  O388  1  0.38334769  0.24785910  0.73767308  1
  O  O389  1  0.38388963  0.73837600  0.25567375  1
  O  O390  1  0.38258658  0.74747895  0.74276165  1
  O  O391  1  0.88361603  0.24295120  0.25193852  1
  O  O392  1  0.87566944  0.25583258  0.73786100  1
  O  O393  1  0.87857249  0.73687849  0.25317344  1
  O  O394  1  0.87816966  0.75609087  0.73785970  1
  O  O395  1  0.38347656  0.50107772  0.48699321  1
  O  O396  1  0.37613652  0.48652263  0.99338188  1
  O  O397  1  0.38273727  0.99501155  0.49271252  1
  O  O398  1  0.38236776  0.99267737  0.99166879  1
  O  O399  1  0.88402753  0.50621517  0.49380062  1
  O  O400  1  0.87248922  0.48674635  0.98919218  1
  O  O401  1  0.88265151  0.99821389  0.49500880  1
  O  O402  1  0.88609881  0.99465862  0.99250053  1
  O  O403  1  0.11152135  0.01134417  -0.00151255  1
  O  O404  1  0.11332807  0.00600607  0.49992933  1
  O  O405  1  0.12737155  0.50927880  0.00728352  1
  O  O406  1  0.11683518  0.51057563  0.50908038  1
  O  O407  1  0.62025421  0.00643955  0.00419984  1
  O  O408  1  0.61831950  0.00006831  0.50776799  1
  O  O409  1  0.62087374  0.51001810  0.00761989  1
  O  O410  1  0.61633784  0.51002283  0.49215387  1
  O  O411  1  0.36982848  0.37154545  0.11741351  1
  O  O412  1  0.36704763  0.36411129  0.61989503  1
  O  O413  1  0.38327836  0.87406052  0.11249165  1
  O  O414  1  0.36687669  0.86472256  0.61938764  1
  O  O415  1  0.87149181  0.37504699  0.10894671  1
  O  O416  1  0.86642509  0.36837621  0.62644427  1
  O  O417  1  0.87772413  0.87950749  0.10875501  1
  O  O418  1  0.86831028  0.87098970  0.61980623  1
  O  O419  1  0.13180627  0.12969845  0.38552825  1
  O  O420  1  0.13443550  0.13098097  0.88257089  1
  O  O421  1  0.13336522  0.61711389  0.38403327  1
  O  O422  1  0.13288039  0.63305326  0.87984196  1
  O  O423  1  0.62186893  0.14046989  0.37576240  1
  O  O424  1  0.63410507  0.13004225  0.87934518  1
  O  O425  1  0.62054317  0.63859762  0.38758580  1
  O  O426  1  0.63293599  0.62496564  0.88347768  1
