# generated using pymatgen
data_V85Zn86O256
_symmetry_space_group_name_H-M   'P 1'
_cell_length_a   16.94207879
_cell_length_b   16.93777481
_cell_length_c   16.95083285
_cell_angle_alpha   90.04813548
_cell_angle_beta   89.89918167
_cell_angle_gamma   90.05566014
_symmetry_Int_Tables_number   1
_chemical_formula_structural   V85Zn86O256
_chemical_formula_sum   'V85 Zn86 O256'
_cell_volume   4864.21836561
_cell_formula_units_Z   1
loop_
 _symmetry_equiv_pos_site_id
 _symmetry_equiv_pos_as_xyz
  1  'x, y, z'
loop_
 _atom_site_type_symbol
 _atom_site_label
 _atom_site_symmetry_multiplicity
 _atom_site_fract_x
 _atom_site_fract_y
 _atom_site_fract_z
 _atom_site_occupancy
  V  V0  1  0.37591709  0.87529128  0.00093153  1
  V  V1  1  0.24299996  0.12422828  0.36683636  1
  V  V2  1  0.88644195  0.37479766  0.50056115  1
  V  V3  1  0.36510869  0.25632413  0.62404015  1
  V  V4  1  0.87463899  0.11827503  0.24923183  1
  V  V5  1  0.62248860  0.00040820  0.62779712  1
  V  V6  1  -0.05888086  0.93620682  0.93783329  1
  V  V7  1  -0.00023092  0.10471288  0.62102303  1
  V  V8  1  -0.00269934  0.37741527  0.86824207  1
  V  V9  1  0.75982156  -0.00207000  0.75140572  1
  V  V10  1  0.62448578  0.62544261  0.00517559  1
  V  V11  1  0.74542838  0.74798359  0.50164009  1
  V  V12  1  0.93423439  0.43905433  0.32589561  1
  V  V13  1  0.75021980  0.49952450  0.75387860  1
  V  V14  1  0.37013461  0.12464945  0.75240170  1
  V  V15  1  0.11897418  0.87299281  0.75489267  1
  V  V16  1  0.11671688  0.26555133  0.37364112  1
  V  V17  1  0.49381104  0.37420732  0.37741622  1
  V  V18  1  0.87578445  0.24646935  0.62372879  1
  V  V19  1  0.12536875  0.24498810  0.87201842  1
  V  V20  1  0.24065788  0.87811675  0.62455769  1
  V  V21  1  0.23924519  0.74442521  0.50070771  1
  V  V22  1  0.00284971  0.50942827  -0.00805118  1
  V  V23  1  0.11989687  0.74815752  0.36167979  1
  V  V24  1  0.74849160  0.37524978  0.12361438  1
  V  V25  1  0.50142351  0.62663377  0.62452073  1
  V  V26  1  0.50022649  0.87433797  0.87402097  1
  V  V27  1  0.75029222  0.87222320  0.62598405  1
  V  V28  1  0.74847971  0.25176602  0.50137484  1
  V  V29  1  0.12933529  0.50363737  0.11551870  1
  V  V30  1  0.92006570  0.57338786  0.80920431  1
  V  V31  1  0.74161423  0.12305423  0.88173307  1
  V  V32  1  0.25069603  0.88699148  0.13229814  1
  V  V33  1  0.75592559  0.87876879  0.13107266  1
  V  V34  1  0.24509912  0.24739583  -0.00676230  1
  V  V35  1  0.75401294  0.62117483  0.37820965  1
  V  V36  1  0.62582604  0.87372809  0.75323126  1
  V  V37  1  0.62169855  0.24701184  0.37648863  1
  V  V38  1  0.49799416  0.12832047  0.62769690  1
  V  V39  1  0.25529885  0.62558542  0.87070136  1
  V  V40  1  0.87352325  0.38018825  -0.00715896  1
  V  V41  1  0.88004452  0.75213505  0.13445830  1
  V  V42  1  0.88052668  0.24952398  0.12396614  1
  V  V43  1  0.37075465  0.00178830  0.87437183  1
  V  V44  1  0.62808844  0.88612785  0.25322599  1
  V  V45  1  0.37708303  0.37481093  -0.00510779  1
  V  V46  1  0.25243094  0.49586754  0.74287578  1
  V  V47  1  0.50080061  0.49589891  -0.00132027  1
  V  V48  1  0.49348569  0.24763523  0.24852567  1
  V  V49  1  0.24564432  0.37417781  0.12744324  1
  V  V50  1  0.36960196  0.74420452  0.62851741  1
  V  V51  1  0.49934606  0.87385280  0.37612977  1
  V  V52  1  0.24819501  0.49956643  0.24886012  1
  V  V53  1  0.24461217  0.00175421  0.74733888  1
  V  V54  1  0.62319786  0.37242968  0.24941910  1
  V  V55  1  0.49514199  0.74612763  0.75078912  1
  V  V56  1  0.74805675  0.49882430  0.25598403  1
  V  V57  1  0.12097315  0.11179673  0.50086156  1
  V  V58  1  0.37864978  0.74939000  0.12929731  1
  V  V59  1  0.37108071  0.87456243  0.50082387  1
  V  V60  1  0.24879879  0.74349153  0.00337946  1
  V  V61  1  0.62161054  0.50013054  0.62694431  1
  V  V62  1  0.37123062  0.24200011  0.12226615  1
  V  V63  1  0.62923307  0.00408024  0.11124297  1
  V  V64  1  0.24826107  0.62465722  0.37623862  1
  V  V65  1  0.11979164  0.74850516  0.88065399  1
  V  V66  1  0.75172871  0.62120704  0.87584510  1
  V  V67  1  0.50297896  0.50502334  0.49818673  1
  V  V68  1  0.37949035  0.50140717  0.86719356  1
  V  V69  1  0.00639766  0.63019116  0.12883694  1
  V  V70  1  0.00111612  0.88119502  0.37395160  1
  V  V71  1  0.00836179  0.11122099  0.12134350  1
  V  V72  1  0.87548499  0.12223598  0.75741035  1
  V  V73  1  -0.04849680  0.56138607  0.55146395  1
  V  V74  1  -0.00003637  0.24854640  0.74498410  1
  V  V75  1  0.36883818  0.00072194  0.36897351  1
  V  V76  1  0.87702537  0.88063366  0.49798312  1
  V  V77  1  0.12398878  0.89213379  0.24540186  1
  V  V78  1  0.62581994  0.75127891  0.87684588  1
  V  V79  1  0.49721820  0.00014653  0.50170993  1
  V  V80  1  0.13317565  0.50622057  0.60852355  1
  V  V81  1  0.61622959  0.25449799  0.88207632  1
  V  V82  1  0.62480207  0.74499306  0.37539364  1
  V  V83  1  0.74901119  0.11762635  0.37245390  1
  V  V84  1  0.75506644  0.75195630  0.00518765  1
  Zn  Zn85  1  0.50305182  0.74764773  0.25002835  1
  Zn  Zn86  1  0.11358104  0.10696622  -0.01014940  1
  Zn  Zn87  1  0.62492325  0.12534695  0.50253259  1
  Zn  Zn88  1  0.87659340  0.73425226  0.63402328  1
  Zn  Zn89  1  0.37861563  0.62414055  0.25120341  1
  Zn  Zn90  1  0.51020904  0.12725050  0.11991030  1
  Zn  Zn91  1  0.61607083  0.37652982  0.75692218  1
  Zn  Zn92  1  0.62346929  0.49972424  0.12581172  1
  Zn  Zn93  1  0.49760232  0.25781818  0.75448325  1
  Zn  Zn94  1  0.74706999  0.37249648  0.62876912  1
  Zn  Zn95  1  0.37394427  0.50104574  0.37358521  1
  Zn  Zn96  1  0.50203331  0.00582379  -0.00240240  1
  Zn  Zn97  1  0.74775011  0.24573209  0.00155647  1
  Zn  Zn98  1  0.36817092  0.11724706  0.24378894  1
  Zn  Zn99  1  0.50064559  0.62419426  0.12845287  1
  Zn  Zn100  1  0.00250860  0.25760837  0.25109123  1
  Zn  Zn101  1  0.36915747  0.38127351  0.50697806  1
  Zn  Zn102  1  0.13270508  0.37159047  0.73686941  1
  Zn  Zn103  1  -0.00159690  0.73815490  0.74880698  1
  Zn  Zn104  1  0.24281294  0.25446280  0.50063505  1
  Zn  Zn105  1  0.87551759  0.00092702  0.37474590  1
  Zn  Zn106  1  0.88305330  0.62451333  0.25496831  1
  Zn  Zn107  1  0.18305245  0.19041639  0.19065220  1
  Zn  Zn108  1  0.18396486  0.18208114  0.68577672  1
  Zn  Zn109  1  0.19064852  0.68636007  0.18635591  1
  Zn  Zn110  1  0.18408126  0.68127752  0.69056134  1
  Zn  Zn111  1  0.69023649  0.18710073  0.18868058  1
  Zn  Zn112  1  0.68499314  0.18869974  0.69281627  1
  Zn  Zn113  1  0.68860541  0.68829010  0.19202071  1
  Zn  Zn114  1  0.68656571  0.68310169  0.68979940  1
  Zn  Zn115  1  0.30585094  0.31106411  0.31365138  1
  Zn  Zn116  1  0.31565773  0.31445976  0.81182318  1
  Zn  Zn117  1  0.30936381  0.81294564  0.31185578  1
  Zn  Zn118  1  0.30978728  0.81335730  0.81210788  1
  Zn  Zn119  1  0.80940796  0.30164097  0.31010487  1
  Zn  Zn120  1  0.80928955  0.30971106  0.81282646  1
  Zn  Zn121  1  0.81219594  0.81240742  0.31187027  1
  Zn  Zn122  1  0.82351859  0.80341350  0.80971577  1
  Zn  Zn123  1  0.19119283  0.43557031  0.44017243  1
  Zn  Zn124  1  0.18751816  0.43373771  0.93352342  1
  Zn  Zn125  1  0.18684869  0.93610000  0.43447804  1
  Zn  Zn126  1  0.18608255  0.93226249  0.93699043  1
  Zn  Zn127  1  0.68380201  0.43415184  0.43959890  1
  Zn  Zn128  1  0.68686684  0.43775343  0.93787649  1
  Zn  Zn129  1  0.68498917  0.93762162  0.44029222  1
  Zn  Zn130  1  0.77654737  0.93472735  0.93870863  1
  Zn  Zn131  1  0.27593148  0.04624921  0.04299547  1
  Zn  Zn132  1  0.30716075  0.06515642  0.55997343  1
  Zn  Zn133  1  0.31615581  0.56417356  0.06053472  1
  Zn  Zn134  1  0.31463850  0.56345276  0.56025822  1
  Zn  Zn135  1  0.81626391  0.06049529  0.06616134  1
  Zn  Zn136  1  0.81178715  0.06183762  0.56331934  1
  Zn  Zn137  1  0.81600414  0.56363364  0.06532255  1
  Zn  Zn138  1  0.79157115  0.55945391  0.55845302  1
  Zn  Zn139  1  0.43324329  0.43534991  0.18388583  1
  Zn  Zn140  1  0.44099800  0.43556082  0.69125027  1
  Zn  Zn141  1  0.44348284  0.93567505  0.18751754  1
  Zn  Zn142  1  0.43330049  0.93408321  0.68717604  1
  Zn  Zn143  1  0.93768809  0.44124302  0.16531999  1
  Zn  Zn144  1  0.93999289  0.43266033  0.68152860  1
  Zn  Zn145  1  0.94079444  0.93672245  0.18909124  1
  Zn  Zn146  1  0.95792487  0.90162520  0.66690080  1
  Zn  Zn147  1  0.05791346  0.06675878  0.31135214  1
  Zn  Zn148  1  0.05970821  0.05840267  0.81021785  1
  Zn  Zn149  1  0.07233647  0.56286332  0.30796009  1
  Zn  Zn150  1  0.08691767  0.56059830  0.81519580  1
  Zn  Zn151  1  0.55789984  0.06429765  0.31203921  1
  Zn  Zn152  1  0.56195287  0.06249917  0.81294729  1
  Zn  Zn153  1  0.56401224  0.56374847  0.31190764  1
  Zn  Zn154  1  0.56186664  0.56352020  0.81277711  1
  Zn  Zn155  1  0.43266885  0.18434611  0.43953508  1
  Zn  Zn156  1  0.43584152  0.18132334  0.94198192  1
  Zn  Zn157  1  0.43336919  0.68669510  0.44049283  1
  Zn  Zn158  1  0.43712780  0.68515938  0.94061918  1
  Zn  Zn159  1  0.94074859  0.18678234  0.43794162  1
  Zn  Zn160  1  0.93724562  0.18855339  0.93809727  1
  Zn  Zn161  1  0.93247948  0.70082110  0.43221288  1
  Zn  Zn162  1  0.93986819  0.69779319  0.94945354  1
  Zn  Zn163  1  0.06247692  0.31704224  0.05805168  1
  Zn  Zn164  1  0.06826764  0.31251649  0.56206835  1
  Zn  Zn165  1  0.06560766  0.81729317  0.06492118  1
  Zn  Zn166  1  0.05988125  0.80658095  0.55827288  1
  Zn  Zn167  1  0.56130769  0.30940908  0.05860594  1
  Zn  Zn168  1  0.55930654  0.31451066  0.56557414  1
  Zn  Zn169  1  0.56453767  0.81757697  0.06399021  1
  Zn  Zn170  1  0.56257755  0.81168711  0.56160670  1
  O  O171  1  0.10926093  0.13257222  0.12344563  1
  O  O172  1  0.11468575  0.12748975  0.61049247  1
  O  O173  1  0.12172961  0.61504730  0.12280869  1
  O  O174  1  0.12304719  0.60661821  0.63008695  1
  O  O175  1  0.63055756  0.10817074  0.13187753  1
  O  O176  1  0.61497517  0.11988318  0.62677600  1
  O  O177  1  0.62741862  0.62354076  0.11494196  1
  O  O178  1  0.61725177  0.61147539  0.62734797  1
  O  O179  1  0.38704411  0.37527114  0.37091665  1
  O  O180  1  0.37019356  0.38505328  0.88780540  1
  O  O181  1  0.37713060  0.88078761  0.38133660  1
  O  O182  1  0.38013653  0.87870850  0.88217504  1
  O  O183  1  0.87086994  0.37621813  0.38115881  1
  O  O184  1  0.88486908  0.36979915  0.88106075  1
  O  O185  1  0.88181636  0.87496702  0.37934279  1
  O  O186  1  0.86939661  0.88135518  0.88094689  1
  O  O187  1  0.25881825  0.00843470  0.38042751  1
  O  O188  1  0.26533481  -0.00928056  0.86154235  1
  O  O189  1  0.24890641  0.50741919  0.36530034  1
  O  O190  1  0.25721958  0.50656541  0.86989846  1
  O  O191  1  0.74866550  0.01447684  0.38115703  1
  O  O192  1  0.74247141  0.01212057  0.86414196  1
  O  O193  1  0.74164754  0.50742344  0.36942508  1
  O  O194  1  0.74759057  0.51165324  0.87118270  1
  O  O195  1  0.24647529  0.49590443  0.12509113  1
  O  O196  1  0.24504875  0.50470308  0.63025734  1
  O  O197  1  0.27126979  0.98401256  0.13924167  1
  O  O198  1  0.25676830  0.98841733  0.63303237  1
  O  O199  1  0.75109906  0.49094737  0.13514214  1
  O  O200  1  0.73834824  0.49776626  0.63510250  1
  O  O201  1  0.74203669  0.99108130  0.12392163  1
  O  O202  1  0.74136119  0.99338578  0.63153853  1
  O  O203  1  -0.01432040  0.38340692  0.25679106  1
  O  O204  1  -0.00182918  0.36720401  0.75484571  1
  O  O205  1  0.01583703  0.87571127  0.25373045  1
  O  O206  1  0.01829984  0.88358853  0.76217086  1
  O  O207  1  0.50287419  0.36565332  0.25385448  1
  O  O208  1  0.50152054  0.37198941  0.75708208  1
  O  O209  1  0.50955205  0.87053112  0.26040277  1
  O  O210  1  0.50457145  0.86630744  0.75272411  1
  O  O211  1  0.49466775  0.13719051  0.24511799  1
  O  O212  1  0.49085876  0.12431777  0.73997448  1
  O  O213  1  0.49784170  0.62845911  0.24688946  1
  O  O214  1  0.50397952  0.63283534  0.73711952  1
  O  O215  1  0.99284179  0.12971295  0.23689492  1
  O  O216  1  0.99182262  0.12711561  0.74277943  1
  O  O217  1  1.00083395  0.61676105  0.23349840  1
  O  O218  1  1.00037355  0.61591643  0.75926197  1
  O  O219  1  0.36841007  0.25894907  0.00274252  1
  O  O220  1  0.37395519  0.24567471  0.51751552  1
  O  O221  1  0.37159518  0.75774880  0.00701094  1
  O  O222  1  0.36354922  0.75697675  0.50722929  1
  O  O223  1  0.87345106  0.26230900  0.00588724  1
  O  O224  1  0.86787512  0.25505066  0.50342124  1
  O  O225  1  0.86129985  0.74748603  0.01439298  1
  O  O226  1  0.85991941  0.76200412  0.50296328  1
  O  O227  1  0.12242755  0.24139881  0.48743062  1
  O  O228  1  0.13049821  0.25446520  0.98894941  1
  O  O229  1  0.13546948  0.75675215  0.48880724  1
  O  O230  1  0.13863214  0.75850818  0.99366005  1
  O  O231  1  0.63092117  0.24952683  0.49621130  1
  O  O232  1  0.62959979  0.24878348  0.98845666  1
  O  O233  1  0.63670348  0.75729362  0.49178737  1
  O  O234  1  0.63269616  0.74312524  0.99834400  1
  O  O235  1  0.49022536  0.25093373  0.13203244  1
  O  O236  1  0.49146376  0.24024823  0.62773210  1
  O  O237  1  0.49214520  0.75089480  0.12540294  1
  O  O238  1  0.49346475  0.74424561  0.62786476  1
  O  O239  1  0.98861414  0.25771073  0.12711631  1
  O  O240  1  0.99382245  0.24277639  0.63058566  1
  O  O241  1  0.99350411  0.74118430  0.11534708  1
  O  O242  1  0.98543212  0.78257819  0.63831879  1
  O  O243  1  0.01170516  0.24810888  0.37159968  1
  O  O244  1  0.00322288  0.25879481  0.86649016  1
  O  O245  1  0.01041967  0.76310112  0.37529239  1
  O  O246  1  0.01663118  0.74247952  0.87832450  1
  O  O247  1  0.50041261  0.25381327  0.36936879  1
  O  O248  1  0.51398640  0.24032004  0.87609416  1
  O  O249  1  0.50813069  0.75547860  0.37988059  1
  O  O250  1  0.50373133  0.75250235  0.87052522  1
  O  O251  1  0.23590242  0.12933085  0.49331069  1
  O  O252  1  0.25323069  0.14726462  0.99538710  1
  O  O253  1  0.25399382  0.63495640  0.49122964  1
  O  O254  1  0.25650565  0.63849070  0.99505494  1
  O  O255  1  0.74970579  0.13664247  0.49459153  1
  O  O256  1  0.76000318  0.12375179  0.98354598  1
  O  O257  1  0.74509122  0.63472924  0.49046089  1
  O  O258  1  0.74380976  0.62810555  0.99673133  1
  O  O259  1  0.25623634  0.37085102  0.00827828  1
  O  O260  1  0.25953581  0.36672338  0.49267197  1
  O  O261  1  0.26321172  0.86492085  0.00948744  1
  O  O262  1  0.25155501  0.86867559  0.50743972  1
  O  O263  1  0.75711070  0.37568525  0.00728235  1
  O  O264  1  0.75583771  0.36317597  0.49960418  1
  O  O265  1  0.74179552  0.86176439  0.01697557  1
  O  O266  1  0.75105767  0.86887054  0.50809176  1
  O  O267  1  0.14059866  0.50172796  0.23580538  1
  O  O268  1  0.13986840  0.49272069  0.74326737  1
  O  O269  1  0.12616324  0.99042277  0.25293015  1
  O  O270  1  0.13806555  0.99263429  0.75724657  1
  O  O271  1  0.63228659  0.49109272  0.24727079  1
  O  O272  1  0.63188423  0.49877048  0.74617462  1
  O  O273  1  0.62252009  0.98847140  0.25250413  1
  O  O274  1  0.63126184  0.99270949  0.74491362  1
  O  O275  1  0.38611203  0.00006794  0.26566003  1
  O  O276  1  0.36820423  0.00543940  0.75331777  1
  O  O277  1  0.36310832  0.50086264  0.24909156  1
  O  O278  1  0.37252230  0.49962957  0.76223689  1
  O  O279  1  0.87659565  0.01410679  0.25026592  1
  O  O280  1  0.86202115  0.00682102  0.74353915  1
  O  O281  1  0.87260527  0.49511080  0.25752420  1
  O  O282  1  0.86920573  0.50323991  0.74616633  1
  O  O283  1  0.12367345  0.36419920  0.37714431  1
  O  O284  1  0.10949887  0.37006460  0.87044286  1
  O  O285  1  0.12088039  0.87072213  0.36457833  1
  O  O286  1  0.14134590  0.85954701  0.86525775  1
  O  O287  1  0.61235502  0.36751372  0.37006886  1
  O  O288  1  0.63145729  0.35803946  0.87717558  1
  O  O289  1  0.62206831  0.86749405  0.37056058  1
  O  O290  1  0.61671519  0.86623899  0.86798333  1
  O  O291  1  0.36602576  0.13942711  0.12488565  1
  O  O292  1  0.37932871  0.12997044  0.63360375  1
  O  O293  1  0.37718072  0.63814534  0.12463370  1
  O  O294  1  0.38181863  0.63824260  0.62198559  1
  O  O295  1  0.88199430  0.13228619  0.12956381  1
  O  O296  1  0.88057088  0.12791203  0.63167712  1
  O  O297  1  0.88547155  0.63148519  0.12942595  1
  O  O298  1  0.88408153  0.61756519  0.60638965  1
  O  O299  1  0.25122226  0.25828159  0.11877446  1
  O  O300  1  0.26244583  0.24474644  0.62613202  1
  O  O301  1  0.25885492  0.75559741  0.11910610  1
  O  O302  1  0.25311257  0.75157257  0.61979129  1
  O  O303  1  0.76068841  0.25637190  0.12334227  1
  O  O304  1  0.75474701  0.24891202  0.61803255  1
  O  O305  1  0.75643647  0.75454669  0.12238819  1
  O  O306  1  0.75027635  0.75411551  0.62034544  1
  O  O307  1  0.23715045  0.24093000  0.37534976  1
  O  O308  1  0.23680043  0.26320283  0.88030608  1
  O  O309  1  0.24360927  0.74464564  0.38215053  1
  O  O310  1  0.25083878  0.74242216  0.88268961  1
  O  O311  1  0.74168683  0.24199402  0.38291705  1
  O  O312  1  0.74209233  0.23735152  0.87611180  1
  O  O313  1  0.74334330  0.74577004  0.38203773  1
  O  O314  1  0.74647638  0.74106149  0.88512038  1
  O  O315  1  -0.00093704  0.13086932  0.01564815  1
  O  O316  1  0.00926070  0.12281927  0.50691284  1
  O  O317  1  -0.00447905  0.61387726  0.00775871  1
  O  O318  1  -0.00175755  0.62567474  0.49182705  1
  O  O319  1  0.49567891  0.11764154  0.00867307  1
  O  O320  1  0.49897518  0.11855839  0.51195374  1
  O  O321  1  0.51012533  0.61905104  0.00353106  1
  O  O322  1  0.49856521  0.61963577  0.51246497  1
  O  O323  1  0.49481991  0.38140071  0.49216004  1
  O  O324  1  0.49081938  0.38328390  1.00304020  1
  O  O325  1  0.49238780  0.87998573  0.49671300  1
  O  O326  1  0.48974612  0.88003743  0.99531487  1
  O  O327  1  0.98536714  0.36858443  0.50004171  1
  O  O328  1  0.99333819  0.38718517  0.98892548  1
  O  O329  1  0.98837440  0.87215051  0.49011050  1
  O  O330  1  0.99936516  0.87684112  0.99388969  1
  O  O331  1  0.50156160  0.49297957  0.38190758  1
  O  O332  1  0.49232968  0.50888225  0.88775514  1
  O  O333  1  0.49425500  0.99515893  0.38483191  1
  O  O334  1  0.48867658  0.99248752  0.87229524  1
  O  O335  1  0.99752093  0.50005560  0.37222382  1
  O  O336  1  0.99186138  0.50310107  0.87199751  1
  O  O337  1  0.99693204  0.98680316  0.37033398  1
  O  O338  1  0.99693129  1.00311413  0.88706256  1
  O  O339  1  0.00058178  0.01230696  0.12402740  1
  O  O340  1  -0.00543269  0.00576102  0.62957764  1
  O  O341  1  0.01090749  0.50691073  0.11143673  1
  O  O342  1  0.00727188  0.50458077  0.61775269  1
  O  O343  1  0.51795193  -0.00205570  0.12568909  1
  O  O344  1  0.50133657  0.00526709  0.62153198  1
  O  O345  1  0.50096234  0.50092731  0.11273396  1
  O  O346  1  0.50195534  0.50780775  0.62026125  1
  O  O347  1  0.25433848  0.38125384  0.23472802  1
  O  O348  1  0.25379582  0.39086987  0.75251689  1
  O  O349  1  0.23575801  0.86976955  0.24426261  1
  O  O350  1  0.24548971  0.88076101  0.74115541  1
  O  O351  1  0.74641333  0.38095122  0.24549687  1
  O  O352  1  0.74956866  0.38894169  0.75247573  1
  O  O353  1  0.74227713  0.87165662  0.24074310  1
  O  O354  1  0.74811498  0.87900764  0.74477795  1
  O  O355  1  0.24913941  0.12684649  0.26240923  1
  O  O356  1  0.25647411  0.11326126  0.74388992  1
  O  O357  1  0.25436312  0.61786010  0.25613380  1
  O  O358  1  0.25087344  0.61300331  0.75985933  1
  O  O359  1  0.76068095  0.13364328  0.26168510  1
  O  O360  1  0.75605642  0.11806276  0.75701597  1
  O  O361  1  0.75259259  0.61003399  0.25404505  1
  O  O362  1  0.74706752  0.61335232  0.76188750  1
  O  O363  1  0.36367517  0.11780907  0.37436474  1
  O  O364  1  0.37771265  0.11707586  0.86080857  1
  O  O365  1  0.36252404  0.62464554  0.37303678  1
  O  O366  1  0.36604395  0.61520953  0.88182490  1
  O  O367  1  0.86855951  0.12537384  0.36771095  1
  O  O368  1  0.86640943  0.13165610  0.86184183  1
  O  O369  1  0.85910548  0.63293104  0.37113160  1
  O  O370  1  0.86736803  0.62516306  0.88640268  1
  O  O371  1  0.13309553  0.38954616  0.11736226  1
  O  O372  1  0.11778694  0.39468606  0.62368428  1
  O  O373  1  0.13414760  0.87453125  0.13778989  1
  O  O374  1  0.13632610  0.86776377  0.63402218  1
  O  O375  1  0.63637964  0.37237211  0.12833413  1
  O  O376  1  0.62505178  0.38689016  0.62880799  1
  O  O377  1  0.63236194  0.88390338  0.13472816  1
  O  O378  1  0.63394439  0.87732043  0.63138059  1
  O  O379  1  0.12043159  0.24956703  0.26665558  1
  O  O380  1  0.11964485  0.25288078  0.75296065  1
  O  O381  1  0.12973272  0.75433078  0.25959938  1
  O  O382  1  0.12211460  0.75442251  0.75925788  1
  O  O383  1  0.61596982  0.25422350  0.25447204  1
  O  O384  1  0.62344631  0.25214391  0.76482782  1
  O  O385  1  0.62593629  0.75992583  0.25996125  1
  O  O386  1  0.61871898  0.75367593  0.75605147  1
  O  O387  1  0.37939337  0.25099489  0.24066581  1
  O  O388  1  0.37426591  0.24119470  0.74236480  1
  O  O389  1  0.37712418  0.75150838  0.24035924  1
  O  O390  1  0.38207701  0.75599025  0.74022879  1
  O  O391  1  0.87926716  0.24149276  0.24100514  1
  O  O392  1  0.87763456  0.24112324  0.74279450  1
  O  O393  1  0.87198193  0.74516761  0.23844217  1
  O  O394  1  0.88144829  0.73005848  0.75114054  1
  O  O395  1  0.38888453  0.49984923  0.49671473  1
  O  O396  1  0.38181590  0.49381826  0.99355601  1
  O  O397  1  0.37860025  0.99482928  0.49348083  1
  O  O398  1  0.36932096  0.99162836  0.98966846  1
  O  O399  1  0.88055661  0.49568386  0.50635663  1
  O  O400  1  0.88360394  0.48701370  1.00749924  1
  O  O401  1  0.86518273  0.98528927  0.49603021  1
  O  O402  1  0.87000384  0.98722724  0.99620276  1
  O  O403  1  0.16888193  0.01188556  0.00850135  1
  O  O404  1  0.12713949  0.01253650  0.49820318  1
  O  O405  1  0.11523281  0.49812679  0.00050162  1
  O  O406  1  0.13264431  0.50627117  0.50887935  1
  O  O407  1  0.62765813  -0.00419046  0.01343589  1
  O  O408  1  0.61569791  0.00147404  0.50952937  1
  O  O409  1  0.61831023  0.50668310  0.00145663  1
  O  O410  1  0.61179808  0.49506153  0.50912268  1
  O  O411  1  0.36640600  0.36662463  0.11371233  1
  O  O412  1  0.37993869  0.35865132  0.62654420  1
  O  O413  1  0.37436083  0.86686520  0.11960752  1
  O  O414  1  0.36489962  0.86397233  0.62019566  1
  O  O415  1  0.86471306  0.36838871  0.11721005  1
  O  O416  1  0.86996662  0.36641878  0.61610620  1
  O  O417  1  0.86744107  0.86771767  0.13334949  1
  O  O418  1  0.85748016  0.87892542  0.61720539  1
  O  O419  1  0.12754612  0.12512713  0.38408577  1
  O  O420  1  0.11431080  0.14062704  0.87464480  1
  O  O421  1  0.13768059  0.63438440  0.36931672  1
  O  O422  1  0.14380724  0.63484626  0.87933562  1
  O  O423  1  0.62968736  0.13079272  0.37710589  1
  O  O424  1  0.63666454  0.13166825  0.87085353  1
  O  O425  1  0.63534356  0.63865895  0.36829215  1
  O  O426  1  0.63247505  0.63040532  0.88636978  1
