# generated using pymatgen
data_V85Zn86O256
_symmetry_space_group_name_H-M   'P 1'
_cell_length_a   16.92360499
_cell_length_b   16.91952037
_cell_length_c   16.93156326
_cell_angle_alpha   90.01763629
_cell_angle_beta   90.04319705
_cell_angle_gamma   89.97592816
_symmetry_Int_Tables_number   1
_chemical_formula_structural   V85Zn86O256
_chemical_formula_sum   'V85 Zn86 O256'
_cell_volume   4848.16958820
_cell_formula_units_Z   1
loop_
 _symmetry_equiv_pos_site_id
 _symmetry_equiv_pos_as_xyz
  1  'x, y, z'
loop_
 _atom_site_type_symbol
 _atom_site_label
 _atom_site_symmetry_multiplicity
 _atom_site_fract_x
 _atom_site_fract_y
 _atom_site_fract_z
 _atom_site_occupancy
  V  V0  1  0.62977849  0.87848385  0.73595152  1
  V  V1  1  0.49654140  0.87891170  0.88365680  1
  V  V2  1  0.36707373  0.62075161  0.24775041  1
  V  V3  1  0.49742549  0.25217802  0.24715783  1
  V  V4  1  0.37512045  0.74993517  0.12038543  1
  V  V5  1  0.49309930  0.37934472  0.87221262  1
  V  V6  1  0.12622936  0.87722150  0.75257871  1
  V  V7  1  0.50244862  0.50834074  0.50990679  1
  V  V8  1  0.87378313  0.12439189  0.25157901  1
  V  V9  1  0.11774273  0.25331893  0.37455066  1
  V  V10  1  0.74709111  0.25030642  0.50203867  1
  V  V11  1  0.87840260  -0.01109926  0.37365979  1
  V  V12  1  0.00375341  0.25092208  0.75000713  1
  V  V13  1  -0.00118452  0.12604998  0.62810601  1
  V  V14  1  0.86482054  0.00682864  0.87565227  1
  V  V15  1  0.62283594  0.62209933  -0.00072318  1
  V  V16  1  0.12510745  0.00069044  0.13106615  1
  V  V17  1  0.12309669  0.00056610  0.62704825  1
  V  V18  1  0.00331291  0.00205555  -0.00169789  1
  V  V19  1  0.24983288  0.38688637  0.62434129  1
  V  V20  1  0.63049952  0.24998869  0.87142471  1
  V  V21  1  0.00081816  -0.00970861  0.49768689  1
  V  V22  1  0.10826704  0.74589345  0.37690788  1
  V  V23  1  -0.00227559  0.74168996  0.75006807  1
  V  V24  1  0.63751870  0.37602673  0.24520485  1
  V  V25  1  0.25806004  0.00587888  0.75305116  1
  V  V26  1  0.25147325  0.75390139  -0.00031138  1
  V  V27  1  0.25292019  0.87464499  0.13202747  1
  V  V28  1  0.87184284  0.25228231  0.62907708  1
  V  V29  1  -0.00167481  0.12806725  0.12789957  1
  V  V30  1  0.12301899  0.12805132  0.50172483  1
  V  V31  1  0.00039166  0.87702997  0.87350775  1
  V  V32  1  0.50072529  0.74972435  0.74351411  1
  V  V33  1  0.62878762  0.73233034  0.37120657  1
  V  V34  1  0.62706293  0.11160361  0.50089534  1
  V  V35  1  0.25387958  0.11760418  0.37838533  1
  V  V36  1  0.37082138  0.25094853  0.11737051  1
  V  V37  1  0.11961023  0.62667241  0.00481514  1
  V  V38  1  0.86832591  0.49366217  0.36742825  1
  V  V39  1  0.25540612  0.61697331  0.87666161  1
  V  V40  1  0.62374524  0.87263578  0.25260316  1
  V  V41  1  0.86406770  0.37879003  0.00410930  1
  V  V42  1  0.61841395  0.11848024  -0.00359139  1
  V  V43  1  0.12703042  0.75189806  0.87460334  1
  V  V44  1  0.50286743  0.11749278  0.62856625  1
  V  V45  1  0.38026679  0.61928448  0.75127071  1
  V  V46  1  0.86901686  0.25731258  0.12835090  1
  V  V47  1  0.87312987  0.62728651  0.25947100  1
  V  V48  1  0.49791321  0.74624425  0.25065267  1
  V  V49  1  0.75100175  0.74988994  -0.00032930  1
  V  V50  1  0.37565592  0.11755265  0.25432209  1
  V  V51  1  0.48929222  0.49872107  -0.00185308  1
  V  V52  1  0.12714238  0.38370427  0.74981773  1
  V  V53  1  0.75001814  0.87218717  0.12521795  1
  V  V54  1  0.37903588  0.37599558  0.49841538  1
  V  V55  1  0.24149562  0.62344479  0.37430772  1
  V  V56  1  -0.00212266  0.50249528  0.00870295  1
  V  V57  1  0.75368447  0.62635152  0.87058758  1
  V  V58  1  0.63495519  0.49323928  0.12416449  1
  V  V59  1  0.11052753  0.86980157  0.25678866  1
  V  V60  1  0.13200511  0.13649076  0.00239300  1
  V  V61  1  0.37450155  0.50115607  0.37041921  1
  V  V62  1  0.62583125  0.75224415  0.87353386  1
  V  V63  1  -0.00058554  0.37562317  0.87654312  1
  V  V64  1  0.48917462  -0.00263259  0.49264281  1
  V  V65  1  0.63109766  0.61991129  0.51603764  1
  V  V66  1  0.62505228  0.38120469  0.74307685  1
  V  V67  1  0.86890813  0.74767891  0.63084228  1
  V  V68  1  0.75128641  0.00150595  0.73370178  1
  V  V69  1  0.87581438  0.50468721  0.87019362  1
  V  V70  1  0.75045759  0.24218413  -0.00178861  1
  V  V71  1  0.89120680  0.74278365  0.12838383  1
  V  V72  1  0.74851139  -0.00085355  0.24955476  1
  V  V73  1  0.37670890  0.74712561  0.62190004  1
  V  V74  1  0.87563023  0.87666510  -0.00012781  1
  V  V75  1  0.12963292  0.50512349  0.13225726  1
  V  V76  1  0.25184370  0.25196747  0.49996003  1
  V  V77  1  0.88035645  0.37553256  0.49676624  1
  V  V78  1  0.24411331  0.74480826  0.50038967  1
  V  V79  1  0.74983848  0.75486030  0.49741344  1
  V  V80  1  0.24950314  0.37424736  0.12427701  1
  V  V81  1  0.62470359  0.24968681  0.37352704  1
  V  V82  1  0.01026927  0.61859856  0.61934420  1
  V  V83  1  0.12298717  0.38038540  0.25402037  1
  V  V84  1  0.74951794  0.50478928  0.74131969  1
  Zn  Zn85  1  0.74477113  0.38287521  0.62073714  1
  Zn  Zn86  1  0.13565775  0.25459638  0.87976489  1
  Zn  Zn87  1  0.49247556  0.87624731  0.37181837  1
  Zn  Zn88  1  0.50384478  0.37951015  0.37368328  1
  Zn  Zn89  1  0.37971240  0.12717857  0.75486359  1
  Zn  Zn90  1  0.25259192  0.50149008  0.75147798  1
  Zn  Zn91  1  0.25166096  0.87436369  0.62484434  1
  Zn  Zn92  1  0.01110368  0.50743149  0.48733039  1
  Zn  Zn93  1  0.86807202  0.13120519  0.75828211  1
  Zn  Zn94  1  0.61581284  -0.00421168  0.11901393  1
  Zn  Zn95  1  -0.00410318  0.25699431  0.25578115  1
  Zn  Zn96  1  0.36795046  0.87423766  0.49218962  1
  Zn  Zn97  1  0.87253234  0.87313332  0.50241721  1
  Zn  Zn98  1  0.39779460  0.00848699  0.90899938  1
  Zn  Zn99  1  0.36419065  0.37349910  -0.00983712  1
  Zn  Zn100  1  0.50261510  0.25141182  0.74597194  1
  Zn  Zn101  1  0.37817798  0.24762555  0.62583010  1
  Zn  Zn102  1  0.25323391  -0.00820423  0.26171045  1
  Zn  Zn103  1  0.49976604  0.62045106  0.12427436  1
  Zn  Zn104  1  0.26295884  0.13285434  0.88285841  1
  Zn  Zn105  1  0.49700769  0.11889333  0.12143452  1
  Zn  Zn106  1  0.75066669  0.12200988  0.37476421  1
  Zn  Zn107  1  0.19015942  0.19042057  0.19162190  1
  Zn  Zn108  1  0.18829341  0.19352550  0.68772013  1
  Zn  Zn109  1  0.18347556  0.68944101  0.19148267  1
  Zn  Zn110  1  0.18940260  0.68608647  0.68880399  1
  Zn  Zn111  1  0.68733673  0.18751310  0.18336316  1
  Zn  Zn112  1  0.68476350  0.18425384  0.68617639  1
  Zn  Zn113  1  0.69065823  0.68208799  0.18548032  1
  Zn  Zn114  1  0.68928669  0.68934985  0.68824594  1
  Zn  Zn115  1  0.30743017  0.31206506  0.30975827  1
  Zn  Zn116  1  0.31324598  0.30574644  0.80893295  1
  Zn  Zn117  1  0.31066343  0.80943350  0.31500532  1
  Zn  Zn118  1  0.31558812  0.81447901  0.81232414  1
  Zn  Zn119  1  0.81028808  0.31250527  0.31480901  1
  Zn  Zn120  1  0.81026473  0.31865187  0.81357861  1
  Zn  Zn121  1  0.81308176  0.80699271  0.31233170  1
  Zn  Zn122  1  0.81304840  0.81693109  0.80987845  1
  Zn  Zn123  1  0.18827683  0.44255095  0.43506086  1
  Zn  Zn124  1  0.18558469  0.43660160  0.94079820  1
  Zn  Zn125  1  0.18430866  0.93188001  0.43918152  1
  Zn  Zn126  1  0.22186152  0.95880077  0.95779899  1
  Zn  Zn127  1  0.69007100  0.43928442  0.43474963  1
  Zn  Zn128  1  0.68433285  0.43767513  0.93411351  1
  Zn  Zn129  1  0.68710174  0.93246097  0.43282798  1
  Zn  Zn130  1  0.68632199  0.93593965  0.93133625  1
  Zn  Zn131  1  0.31451779  0.06160117  0.07156840  1
  Zn  Zn132  1  0.31266318  0.06259849  0.56806958  1
  Zn  Zn133  1  0.30827535  0.56221214  0.06298200  1
  Zn  Zn134  1  0.31426689  0.56753833  0.56048673  1
  Zn  Zn135  1  0.80964685  0.06259040  0.06309619  1
  Zn  Zn136  1  0.81638611  0.06503942  0.56086008  1
  Zn  Zn137  1  0.80990315  0.56503540  0.06402066  1
  Zn  Zn138  1  0.82068729  0.56718253  0.55800537  1
  Zn  Zn139  1  0.44084968  0.43611545  0.18490310  1
  Zn  Zn140  1  0.43726744  0.43764783  0.68567825  1
  Zn  Zn141  1  0.43855346  0.93756844  0.18380474  1
  Zn  Zn142  1  0.44078746  0.93404819  0.68231221  1
  Zn  Zn143  1  0.93918329  0.44153923  0.19200966  1
  Zn  Zn144  1  0.93540482  0.43704574  0.68713524  1
  Zn  Zn145  1  0.93630792  0.93710227  0.18576847  1
  Zn  Zn146  1  0.93463271  0.93341207  0.68635786  1
  Zn  Zn147  1  0.06368043  0.06253245  0.31493555  1
  Zn  Zn148  1  0.06346721  0.06457319  0.81603233  1
  Zn  Zn149  1  0.04874567  0.56660651  0.30584533  1
  Zn  Zn150  1  0.06387161  0.56376511  0.81606527  1
  Zn  Zn151  1  0.56225670  0.06305057  0.31157175  1
  Zn  Zn152  1  0.57123860  0.05945326  0.81379194  1
  Zn  Zn153  1  0.55965413  0.55811767  0.30913339  1
  Zn  Zn154  1  0.56327003  0.56260203  0.81144561  1
  Zn  Zn155  1  0.44026614  0.18672217  0.43733931  1
  Zn  Zn156  1  0.44084235  0.19366771  0.93255644  1
  Zn  Zn157  1  0.43776550  0.68729396  0.43582678  1
  Zn  Zn158  1  0.43920979  0.69082485  0.93447533  1
  Zn  Zn159  1  0.93576308  0.18349483  0.43955077  1
  Zn  Zn160  1  0.93999371  0.18901791  0.93903956  1
  Zn  Zn161  1  0.93274893  0.68043426  0.44189292  1
  Zn  Zn162  1  0.93755429  0.68894357  0.93925246  1
  Zn  Zn163  1  0.05657626  0.31773187  0.06862529  1
  Zn  Zn164  1  0.08247123  0.35030796  0.54316947  1
  Zn  Zn165  1  0.06773487  0.81781096  0.06216802  1
  Zn  Zn166  1  0.06255058  0.80827570  0.56537352  1
  Zn  Zn167  1  0.55952813  0.31195285  0.06021160  1
  Zn  Zn168  1  0.56140925  0.31077893  0.56200299  1
  Zn  Zn169  1  0.56280646  0.81037902  0.06386825  1
  Zn  Zn170  1  0.56191612  0.80994868  0.55917019  1
  O  O171  1  0.11707016  0.12451166  0.12200129  1
  O  O172  1  0.11884056  0.12252544  0.62017855  1
  O  O173  1  0.13010378  0.61969645  0.11635464  1
  O  O174  1  0.10965239  0.62800808  0.63135997  1
  O  O175  1  0.62552742  0.12502303  0.10858009  1
  O  O176  1  0.61465059  0.12636443  0.61285334  1
  O  O177  1  0.62291250  0.61286142  0.11820266  1
  O  O178  1  0.62348646  0.62682066  0.61416931  1
  O  O179  1  0.37261340  0.38301477  0.38290859  1
  O  O180  1  0.38905754  0.37229406  0.87292159  1
  O  O181  1  0.37935522  0.86743503  0.37887450  1
  O  O182  1  0.39391042  0.87723648  0.86843009  1
  O  O183  1  0.87076832  0.38443240  0.37973752  1
  O  O184  1  0.87960968  0.38444063  0.88435793  1
  O  O185  1  0.87274378  0.88494665  0.37648873  1
  O  O186  1  0.88120024  0.88182743  0.88139089  1
  O  O187  1  0.24342164  0.01320740  0.38002361  1
  O  O188  1  0.23928779  0.01308523  0.85609564  1
  O  O189  1  0.26105031  0.51310161  0.38178592  1
  O  O190  1  0.24840256  0.51382503  0.87890492  1
  O  O191  1  0.75795526  -0.00023585  0.36740523  1
  O  O192  1  0.76179697  -0.00637184  0.86533100  1
  O  O193  1  0.76866949  0.50487869  0.38525640  1
  O  O194  1  0.75677956  0.50817556  0.87010975  1
  O  O195  1  0.23662731  0.49536855  0.12437221  1
  O  O196  1  0.25497808  0.49004368  0.62386880  1
  O  O197  1  0.24185425  0.98959005  0.13643071  1
  O  O198  1  0.24080491  0.99735947  0.63366714  1
  O  O199  1  0.73416700  0.49571344  0.11435651  1
  O  O200  1  0.76153641  0.50467278  0.63832751  1
  O  O201  1  0.74899305  0.98637531  0.13006745  1
  O  O202  1  0.76067394  0.99521420  0.63498353  1
  O  O203  1  0.01580638  0.37268364  0.24459443  1
  O  O204  1  0.00713057  0.37081247  0.75415207  1
  O  O205  1  0.01190027  0.87677740  0.24804546  1
  O  O206  1  0.00663741  0.86663192  0.75458170  1
  O  O207  1  0.50609477  0.36312887  0.25209052  1
  O  O208  1  0.50771889  0.37870935  0.75501670  1
  O  O209  1  0.50698946  0.86174921  0.24772136  1
  O  O210  1  0.51266955  0.87121785  0.75328713  1
  O  O211  1  0.49330865  0.13621091  0.25199821  1
  O  O212  1  0.50683601  0.11900700  0.73671217  1
  O  O213  1  0.49040680  0.63318006  0.24772340  1
  O  O214  1  0.49332178  0.63693183  0.75745226  1
  O  O215  1  0.99536412  0.12573202  0.23969727  1
  O  O216  1  0.99818859  0.13351428  0.74595450  1
  O  O217  1  0.97330867  0.61877594  0.23611257  1
  O  O218  1  1.00307031  0.63782518  0.75000335  1
  O  O219  1  0.38282809  0.25338246  0.01409130  1
  O  O220  1  0.37084611  0.26006675  0.49761631  1
  O  O221  1  0.36744638  0.74530915  0.01179196  1
  O  O222  1  0.36760963  0.74552124  0.50730244  1
  O  O223  1  0.86883719  0.25750783  0.00545751  1
  O  O224  1  0.86104224  0.24947848  0.50467087  1
  O  O225  1  0.87052673  0.75840780  0.00683469  1
  O  O226  1  0.86552958  0.74995571  0.50604849  1
  O  O227  1  0.13375879  0.25138072  0.49360214  1
  O  O228  1  0.11379041  0.23901108  1.00399376  1
  O  O229  1  0.12891422  0.75346863  0.48572602  1
  O  O230  1  0.12886894  0.74263492  0.99608792  1
  O  O231  1  0.63216244  0.24470091  0.49264982  1
  O  O232  1  0.63311192  0.24542293  0.99410403  1
  O  O233  1  0.62692937  0.73668682  0.49255595  1
  O  O234  1  0.63220379  0.74333053  0.99531406  1
  O  O235  1  0.49297546  0.24624297  0.13318822  1
  O  O236  1  0.50072051  0.23323267  0.62162794  1
  O  O237  1  0.49141442  0.74614621  0.13056664  1
  O  O238  1  0.49372163  0.75266594  0.63491519  1
  O  O239  1  0.98632970  0.24328504  0.12726709  1
  O  O240  1  0.99057419  0.24789997  0.63967044  1
  O  O241  1  0.98871305  0.75683619  0.12028716  1
  O  O242  1  0.99469382  0.74137266  0.63303257  1
  O  O243  1  0.01378028  0.24113247  0.37542549  1
  O  O244  1  -0.00283213  0.25742230  0.86395384  1
  O  O245  1  0.00960294  0.74352884  0.37997379  1
  O  O246  1  0.00444949  0.75591617  0.86898133  1
  O  O247  1  0.51186290  0.25244485  0.37027098  1
  O  O248  1  0.51431445  0.26167285  0.87274248  1
  O  O249  1  0.50875908  0.74856169  0.36523531  1
  O  O250  1  0.50589094  0.75917979  0.86338621  1
  O  O251  1  0.24566752  0.13253638  0.49767170  1
  O  O252  1  0.23369574  0.12761575  1.00713985  1
  O  O253  1  0.24885659  0.63493992  0.49140724  1
  O  O254  1  0.24276217  0.63515788  0.99533914  1
  O  O255  1  0.74239765  0.13096850  0.49962733  1
  O  O256  1  0.74528276  0.13746116  1.00043871  1
  O  O257  1  0.73661713  0.63266164  0.50525957  1
  O  O258  1  0.74332574  0.62928196  0.98972645  1
  O  O259  1  0.25017312  0.38045318  0.01588150  1
  O  O260  1  0.26004631  0.36960706  0.50429787  1
  O  O261  1  0.23389038  0.85772771  0.01525696  1
  O  O262  1  0.24803877  0.86032908  0.50255082  1
  O  O263  1  0.76042480  0.36803644  -0.00564163  1
  O  O264  1  0.75487701  0.36640563  0.50260738  1
  O  O265  1  0.75387256  0.87125709  0.00627413  1
  O  O266  1  0.74615936  0.85963684  0.49957077  1
  O  O267  1  0.11925949  0.49649368  0.24225720  1
  O  O268  1  0.12779542  0.48802364  0.75652741  1
  O  O269  1  0.12581829  0.98798501  0.24967616  1
  O  O270  1  0.12805308  0.99488678  0.74499299  1
  O  O271  1  0.61848858  0.49143677  0.23418259  1
  O  O272  1  0.63666756  0.49416640  0.75383573  1
  O  O273  1  0.63016144  0.98896415  0.25022685  1
  O  O274  1  0.63895539  0.98885928  0.74975978  1
  O  O275  1  0.37406433  0.01385124  0.24938748  1
  O  O276  1  0.36122220  -0.00154094  0.74350816  1
  O  O277  1  0.38138954  0.50813105  0.25773049  1
  O  O278  1  0.37625146  0.51532300  0.74638450  1
  O  O279  1  0.87027166  0.00318609  0.25545904  1
  O  O280  1  0.86461130  -0.00216236  0.75599506  1
  O  O281  1  0.87108381  0.50360871  0.26070160  1
  O  O282  1  0.86847577  0.49454369  0.76495065  1
  O  O283  1  0.13513667  0.36509066  0.36461593  1
  O  O284  1  0.11676464  0.37400866  0.87119148  1
  O  O285  1  0.12540511  0.86239512  0.36487702  1
  O  O286  1  0.12066496  0.87147565  0.86439958  1
  O  O287  1  0.62526710  0.36889384  0.36617166  1
  O  O288  1  0.62008762  0.36979403  0.86368292  1
  O  O289  1  0.62206947  0.86336700  0.36160172  1
  O  O290  1  0.61909210  0.86821114  0.86508053  1
  O  O291  1  0.37295713  0.13441402  0.13553886  1
  O  O292  1  0.39093090  0.12502355  0.62499325  1
  O  O293  1  0.37372943  0.63061223  0.13215559  1
  O  O294  1  0.36999501  0.63778189  0.63542654  1
  O  O295  1  0.88041043  0.13083401  0.13094537  1
  O  O296  1  0.88037257  0.13807520  0.62752784  1
  O  O297  1  0.87730178  0.64279821  0.11262538  1
  O  O298  1  0.88620685  0.64138812  0.62248307  1
  O  O299  1  0.25906245  0.25922090  0.12934927  1
  O  O300  1  0.25419474  0.25589338  0.61136834  1
  O  O301  1  0.25583592  0.75331625  0.12116043  1
  O  O302  1  0.25464407  0.74991755  0.61695866  1
  O  O303  1  0.76193161  0.24845108  0.11609192  1
  O  O304  1  0.75519562  0.25079711  0.61880387  1
  O  O305  1  0.75483957  0.75995689  0.11891192  1
  O  O306  1  0.76256917  0.74550136  0.61996350  1
  O  O307  1  0.24357444  0.24290974  0.38533162  1
  O  O308  1  0.24843630  0.24501201  0.87565613  1
  O  O309  1  0.24146877  0.73788245  0.38106857  1
  O  O310  1  0.24669850  0.74760380  0.88329667  1
  O  O311  1  0.73995979  0.24657071  0.38227261  1
  O  O312  1  0.73964429  0.25617960  0.88219161  1
  O  O313  1  0.74047278  0.74968931  0.38224376  1
  O  O314  1  0.74827449  0.74483269  0.87872337  1
  O  O315  1  0.00373772  0.12091225  0.01307554  1
  O  O316  1  0.00523365  0.11877790  0.50926064  1
  O  O317  1  0.01151393  0.61823562  -0.00562145  1
  O  O318  1  0.00290207  0.62365492  0.51405206  1
  O  O319  1  0.51545549  0.13005312  -0.00087070  1
  O  O320  1  0.50614772  0.11391389  0.50351650  1
  O  O321  1  0.50596207  0.61782039  -0.00220200  1
  O  O322  1  0.51103008  0.61538775  0.49558711  1
  O  O323  1  0.49545607  0.38518283  0.49666237  1
  O  O324  1  0.49804630  0.38260335  0.99026364  1
  O  O325  1  0.50397951  0.88966828  0.49926266  1
  O  O326  1  0.50595103  0.86702283  0.98277573  1
  O  O327  1  0.97820144  0.35402194  0.49879707  1
  O  O328  1  0.99041138  0.38365352  0.99568946  1
  O  O329  1  1.00163827  0.88773367  0.50406722  1
  O  O330  1  0.99728357  0.88346982  0.99492566  1
  O  O331  1  0.48849839  0.49962802  0.38199078  1
  O  O332  1  0.50886655  0.49060688  0.88521836  1
  O  O333  1  0.50299775  0.99951798  0.38874770  1
  O  O334  1  0.50584565  0.98533252  0.87408163  1
  O  O335  1  0.97905874  0.50969024  0.37708256  1
  O  O336  1  0.99273666  0.49759783  0.88472344  1
  O  O337  1  0.99149569  1.00682091  0.38600363  1
  O  O338  1  0.99322235  0.99468588  0.87997458  1
  O  O339  1  0.00426131  0.00787625  0.12012930  1
  O  O340  1  0.00333412  0.00580779  0.62103138  1
  O  O341  1  0.00839915  0.49642963  0.11314487  1
  O  O342  1  -0.00856957  0.51810693  0.63111796  1
  O  O343  1  0.50245318  0.00438205  0.12411856  1
  O  O344  1  0.50081989  0.00956334  0.61222341  1
  O  O345  1  0.50765915  0.50030165  0.11356282  1
  O  O346  1  0.49645850  0.50083083  0.60848946  1
  O  O347  1  0.23686563  0.37325087  0.23840022  1
  O  O348  1  0.24674690  0.37952187  0.74253332  1
  O  O349  1  0.23938537  0.87179511  0.24530792  1
  O  O350  1  0.24262901  0.88580175  0.75079293  1
  O  O351  1  0.73678996  0.36818142  0.24679998  1
  O  O352  1  0.74302324  0.38718761  0.74797557  1
  O  O353  1  0.74364034  0.87589779  0.24296898  1
  O  O354  1  0.73806689  0.88236832  0.75103833  1
  O  O355  1  0.25698915  0.12406516  0.26197048  1
  O  O356  1  0.25250243  0.11460827  0.74420938  1
  O  O357  1  0.25972894  0.62954891  0.25793796  1
  O  O358  1  0.25736873  0.62412821  0.76000753  1
  O  O359  1  0.75512900  0.11691155  0.24850241  1
  O  O360  1  0.74965290  0.10743701  0.74567401  1
  O  O361  1  0.77483190  0.62073041  0.22817200  1
  O  O362  1  0.74589457  0.62064964  0.76257105  1
  O  O363  1  0.36549879  0.13295978  0.36770668  1
  O  O364  1  0.38045672  0.11781731  0.87340079  1
  O  O365  1  0.36713439  0.62002072  0.36723899  1
  O  O366  1  0.36579433  0.63480627  0.86551923  1
  O  O367  1  0.87272441  0.11623691  0.36648820  1
  O  O368  1  0.88144985  0.11275952  0.87500589  1
  O  O369  1  0.86970330  0.62180942  0.36475295  1
  O  O370  1  0.86615350  0.61712941  0.88252869  1
  O  O371  1  0.12994501  0.38402327  0.13003679  1
  O  O372  1  0.14021491  0.36389128  0.64028749  1
  O  O373  1  0.13119637  0.87666298  0.13930436  1
  O  O374  1  0.12434494  0.87891964  0.63845404  1
  O  O375  1  0.61996134  0.38472679  0.12935719  1
  O  O376  1  0.62562891  0.37105243  0.63801212  1
  O  O377  1  0.63224785  0.87212092  0.13480555  1
  O  O378  1  0.62376099  0.86970596  0.63754781  1
  O  O379  1  0.12271136  0.25681826  0.25897547  1
  O  O380  1  0.11678773  0.25846830  0.75476161  1
  O  O381  1  0.12282335  0.75959668  0.26156693  1
  O  O382  1  0.11981747  0.75757056  0.75542905  1
  O  O383  1  0.61912377  0.25349758  0.25459352  1
  O  O384  1  0.62564440  0.25675132  0.75672427  1
  O  O385  1  0.61957459  0.74960558  0.25266003  1
  O  O386  1  0.62070855  0.75864750  0.75291469  1
  O  O387  1  0.38182134  0.24527207  0.24452738  1
  O  O388  1  0.38509428  0.24533741  0.74336821  1
  O  O389  1  0.38095082  0.74134388  0.24145060  1
  O  O390  1  0.38285072  0.74557532  0.74320571  1
  O  O391  1  0.87480775  0.24542523  0.24452953  1
  O  O392  1  0.87736235  0.25191664  0.74444850  1
  O  O393  1  0.87395302  0.74225972  0.23771934  1
  O  O394  1  0.88202665  0.75379034  0.74065460  1
  O  O395  1  0.38508587  0.49779503  0.49340234  1
  O  O396  1  0.38563431  0.49868170  1.00385112  1
  O  O397  1  0.38639968  0.99828175  0.50232379  1
  O  O398  1  0.33040173  0.98534925  0.99343962  1
  O  O399  1  0.88152668  0.49032679  0.49460458  1
  O  O400  1  0.87947878  0.49572664  0.99602130  1
  O  O401  1  0.88201017  0.99785770  0.49216621  1
  O  O402  1  0.87910582  0.99586649  0.99394402  1
  O  O403  1  0.12285818  0.01062606  0.01134681  1
  O  O404  1  0.11855770  0.00521927  0.50671569  1
  O  O405  1  0.11689768  0.50836232  0.00671259  1
  O  O406  1  0.10877706  0.45855700  0.50980137  1
  O  O407  1  0.63608976  0.01596105  -0.00258657  1
  O  O408  1  0.62174409  0.00886542  0.49345123  1
  O  O409  1  0.61801167  0.50180511  0.00751741  1
  O  O410  1  0.61719749  0.51179977  0.49536760  1
  O  O411  1  0.36590176  0.36842237  0.12736515  1
  O  O412  1  0.37062272  0.37358328  0.61277433  1
  O  O413  1  0.36160352  0.86430113  0.13411695  1
  O  O414  1  0.37292405  0.86143431  0.62017827  1
  O  O415  1  0.88015863  0.36870576  0.11763746  1
  O  O416  1  0.87027142  0.36479832  0.61923141  1
  O  O417  1  0.86861512  0.86658123  0.12115057  1
  O  O418  1  0.88381028  0.85436005  0.61991901  1
  O  O419  1  0.13278967  0.13288398  0.38248005  1
  O  O420  1  0.11825359  0.12859969  0.89587881  1
  O  O421  1  0.12875511  0.63577378  0.36357767  1
  O  O422  1  0.13363466  0.63268775  0.88339947  1
  O  O423  1  0.62701429  0.13312359  0.38180483  1
  O  O424  1  0.62438150  0.13502157  0.88499111  1
  O  O425  1  0.62330900  0.63012822  0.37515217  1
  O  O426  1  0.63240027  0.63240274  0.88001344  1
