# generated using pymatgen
data_V85Zn86O256
_symmetry_space_group_name_H-M   'P 1'
_cell_length_a   16.95272408
_cell_length_b   16.94075810
_cell_length_c   16.96942130
_cell_angle_alpha   90.10774515
_cell_angle_beta   90.04499799
_cell_angle_gamma   89.90625364
_symmetry_Int_Tables_number   1
_chemical_formula_structural   V85Zn86O256
_chemical_formula_sum   'V85 Zn86 O256'
_cell_volume   4873.46537370
_cell_formula_units_Z   1
loop_
 _symmetry_equiv_pos_site_id
 _symmetry_equiv_pos_as_xyz
  1  'x, y, z'
loop_
 _atom_site_type_symbol
 _atom_site_label
 _atom_site_symmetry_multiplicity
 _atom_site_fract_x
 _atom_site_fract_y
 _atom_site_fract_z
 _atom_site_occupancy
  V  V0  1  0.62681051  0.74633348  0.87761810  1
  V  V1  1  -0.00234773  0.87513899  0.37472272  1
  V  V2  1  0.62003192  0.25219959  0.87564891  1
  V  V3  1  0.87167576  0.61779456  0.25033647  1
  V  V4  1  0.00839531  0.12640266  0.12341530  1
  V  V5  1  0.12379812  0.38709836  0.74600305  1
  V  V6  1  0.00173634  0.12635119  0.62260999  1
  V  V7  1  -0.00175039  0.62163527  0.62982894  1
  V  V8  1  0.37186328  0.75202340  0.62824122  1
  V  V9  1  0.61766517  0.50178597  0.13314955  1
  V  V10  1  0.05507691  0.57329402  0.17294364  1
  V  V11  1  0.12235650  0.62765411  -0.00978758  1
  V  V12  1  0.23913571  0.38569451  0.13593639  1
  V  V13  1  0.86882736  0.76086330  0.12852418  1
  V  V14  1  0.13243880  -0.00994427  0.62152526  1
  V  V15  1  0.87603126  0.25126608  0.62262985  1
  V  V16  1  0.62183063  0.50039818  0.62696707  1
  V  V17  1  0.12886415  0.25414752  0.37261257  1
  V  V18  1  -0.00534841  -0.01019358  -0.00431766  1
  V  V19  1  0.85325704  0.11255996  0.22833756  1
  V  V20  1  0.37546706  0.25160097  0.12586042  1
  V  V21  1  0.12406849  0.74741661  0.37954973  1
  V  V22  1  0.74760461  0.25196372  0.50129875  1
  V  V23  1  0.75256266  0.75724591  0.00935577  1
  V  V24  1  0.29682129  0.69347075  -0.05854119  1
  V  V25  1  0.87109352  0.61980108  0.75970171  1
  V  V26  1  0.13168895  0.12468179  -0.00879522  1
  V  V27  1  0.50138880  0.12101780  0.12423549  1
  V  V28  1  0.36469231  0.12753006  0.75266949  1
  V  V29  1  0.24742787  0.38670925  0.62401590  1
  V  V30  1  -0.00340492  0.38145368  0.87364317  1
  V  V31  1  0.37163430  0.37766146  -0.00411156  1
  V  V32  1  0.25197851  0.86799482  0.11760823  1
  V  V33  1  -0.00480269  0.37903411  0.37257382  1
  V  V34  1  0.74649895  0.86431508  0.62028809  1
  V  V35  1  0.75209296  -0.00057536  0.74750150  1
  V  V36  1  -0.00010834  0.00086977  0.49748940  1
  V  V37  1  0.50397957  -0.00540332  -0.00658670  1
  V  V38  1  0.25768759  0.50564158  0.76633781  1
  V  V39  1  0.62285961  0.87489051  0.75897082  1
  V  V40  1  0.63188662  0.63095213  0.49782672  1
  V  V41  1  0.25293082  0.12593975  0.37616987  1
  V  V42  1  0.49842594  0.75190342  0.75377507  1
  V  V43  1  0.62627961  0.76588713  0.37542608  1
  V  V44  1  0.37719711  0.87142693  0.50007154  1
  V  V45  1  0.24586199  0.75650306  0.51076835  1
  V  V46  1  -0.00267691  0.74910932  0.24485618  1
  V  V47  1  0.87191883  0.00150037  0.37119657  1
  V  V48  1  0.49595032  0.36909719  0.37024427  1
  V  V49  1  0.75069638  0.12512529  0.37823789  1
  V  V50  1  0.74938112  0.49498131  0.26439089  1
  V  V51  1  0.61885758  0.12575892  0.50169975  1
  V  V52  1  0.00133310  0.50706650  -0.00099891  1
  V  V53  1  0.12756150  -0.00174403  0.12293670  1
  V  V54  1  0.62467832  0.11492479  -0.00183494  1
  V  V55  1  0.37203704  0.00498641  0.87177327  1
  V  V56  1  0.37320285  0.87851192  -0.01023138  1
  V  V57  1  0.87142757  0.38693845  -0.00473545  1
  V  V58  1  0.49433757  0.50248138  0.49648857  1
  V  V59  1  0.12656792  0.87379179  0.25076392  1
  V  V60  1  0.49641418  0.25054702  0.74832452  1
  V  V61  1  0.38883613  0.74901916  0.12663535  1
  V  V62  1  0.00485842  0.24855573  0.24894269  1
  V  V63  1  0.12468417  0.61727513  0.50959155  1
  V  V64  1  0.87945530  0.25329877  0.12075502  1
  V  V65  1  0.62193983  -0.00199302  0.62486325  1
  V  V66  1  0.38129231  -0.01515092  0.37146884  1
  V  V67  1  0.62553668  0.62298090  0.01056221  1
  V  V68  1  0.75510662  0.12692392  0.87191483  1
  V  V69  1  0.25357129  -0.00467300  0.24944039  1
  V  V70  1  0.74842221  0.37686522  0.62728614  1
  V  V71  1  0.87724309  0.12517723  0.74989024  1
  V  V72  1  0.36587606  0.24917396  0.62008776  1
  V  V73  1  0.86992470  0.86496436  0.49716714  1
  V  V74  1  0.62017236  0.36031493  0.24923215  1
  V  V75  1  0.12391050  0.87344841  0.76020852  1
  V  V76  1  0.13005657  0.12972184  0.49929787  1
  V  V77  1  0.13269669  0.25048076  0.87167286  1
  V  V78  1  0.63193564  0.90333201  0.22397014  1
  V  V79  1  0.49763045  0.50016606  -0.00261528  1
  V  V80  1  0.37056600  0.37315403  0.49903077  1
  V  V81  1  0.00129410  0.25305970  0.74934105  1
  V  V82  1  0.75030776  0.25061300  -0.00080884  1
  V  V83  1  0.38101448  0.12672451  0.24986132  1
  V  V84  1  0.74782907  0.37427872  0.12672023  1
  Zn  Zn85  1  -0.00790225  0.75881362  0.75669407  1
  Zn  Zn86  1  0.87038051  0.38252649  0.49219265  1
  Zn  Zn87  1  0.61787164  0.24552509  0.37146658  1
  Zn  Zn88  1  0.49695658  0.62450031  0.62840763  1
  Zn  Zn89  1  0.75146455  0.49720485  0.75722336  1
  Zn  Zn90  1  0.38210672  0.61719020  0.25270914  1
  Zn  Zn91  1  0.25944916  0.62667690  0.37897100  1
  Zn  Zn92  1  0.62077232  0.37692135  0.75130598  1
  Zn  Zn93  1  0.87151869  0.74584789  0.62323094  1
  Zn  Zn94  1  0.89845909  -0.03109335  0.86113646  1
  Zn  Zn95  1  0.24976120  0.00129137  0.74737853  1
  Zn  Zn96  1  -0.00536027  0.49954385  0.50154223  1
  Zn  Zn97  1  0.75806367  0.62743141  0.38387022  1
  Zn  Zn98  1  0.11528173  0.75749535  0.88410168  1
  Zn  Zn99  1  0.34929469  0.49300367  0.35647051  1
  Zn  Zn100  1  0.50242729  -0.00856476  0.49500133  1
  Zn  Zn101  1  0.50791476  0.75129983  0.25774823  1
  Zn  Zn102  1  0.49463923  0.12272351  0.62421584  1
  Zn  Zn103  1  0.37173320  0.62631545  0.75945345  1
  Zn  Zn104  1  0.49264500  0.37987521  0.87244700  1
  Zn  Zn105  1  0.25082981  0.24944883  -0.00069980  1
  Zn  Zn106  1  0.75485379  0.61290804  0.88655318  1
  Zn  Zn107  1  0.19353000  0.18987118  0.18773435  1
  Zn  Zn108  1  0.18708523  0.19171277  0.68471479  1
  Zn  Zn109  1  0.19792187  0.68892682  0.18946876  1
  Zn  Zn110  1  0.18584468  0.68700999  0.69159930  1
  Zn  Zn111  1  0.69264019  0.17039598  0.18008552  1
  Zn  Zn112  1  0.68448881  0.18847396  0.68714611  1
  Zn  Zn113  1  0.68655236  0.68483205  0.19515078  1
  Zn  Zn114  1  0.68719835  0.68372244  0.68766451  1
  Zn  Zn115  1  0.31340307  0.30991613  0.30875668  1
  Zn  Zn116  1  0.31091096  0.31680627  0.81124297  1
  Zn  Zn117  1  0.30459250  0.78911839  0.30418187  1
  Zn  Zn118  1  0.30745815  0.82351890  0.80442463  1
  Zn  Zn119  1  0.81349584  0.30400029  0.30948235  1
  Zn  Zn120  1  0.81228953  0.31439256  0.81172914  1
  Zn  Zn121  1  0.80079612  0.81059955  0.31200245  1
  Zn  Zn122  1  0.81134995  0.80231890  0.81203993  1
  Zn  Zn123  1  0.18876197  0.43306792  0.44449573  1
  Zn  Zn124  1  0.18481703  0.43789599  0.94500203  1
  Zn  Zn125  1  0.19276297  0.93533597  0.43854859  1
  Zn  Zn126  1  0.19102159  0.94327676  0.93560352  1
  Zn  Zn127  1  0.67906973  0.43521808  0.43982637  1
  Zn  Zn128  1  0.68353456  0.43920357  0.93767989  1
  Zn  Zn129  1  0.69122302  0.94195936  0.43651505  1
  Zn  Zn130  1  0.72523250  0.92387350  0.92183892  1
  Zn  Zn131  1  0.31331721  0.06055578  0.06234157  1
  Zn  Zn132  1  0.31354234  0.06093821  0.55835506  1
  Zn  Zn133  1  0.31613172  0.55834240  0.07409081  1
  Zn  Zn134  1  0.31318348  0.56610957  0.56369962  1
  Zn  Zn135  1  0.81760969  0.06427979  0.05779458  1
  Zn  Zn136  1  0.81148536  0.05930079  0.56132488  1
  Zn  Zn137  1  0.80970286  0.56504221  0.07433806  1
  Zn  Zn138  1  0.81627589  0.55666149  0.56456626  1
  Zn  Zn139  1  0.43498985  0.43697178  0.18677034  1
  Zn  Zn140  1  0.43387845  0.43874494  0.68736507  1
  Zn  Zn141  1  0.44657352  0.93181607  0.18477313  1
  Zn  Zn142  1  0.43795409  0.93426851  0.68624041  1
  Zn  Zn143  1  0.93573791  0.43271970  0.19191839  1
  Zn  Zn144  1  0.93524033  0.44198852  0.68291709  1
  Zn  Zn145  1  0.93849394  0.93741213  0.18516544  1
  Zn  Zn146  1  0.93952502  0.93729632  0.68025881  1
  Zn  Zn147  1  0.06170602  0.06400060  0.30969116  1
  Zn  Zn148  1  0.06460743  0.06196723  0.81042222  1
  Zn  Zn149  1  0.11926518  0.53131673  0.34111318  1
  Zn  Zn150  1  0.06019335  0.56439203  0.81331896  1
  Zn  Zn151  1  0.56097862  0.05978686  0.31319463  1
  Zn  Zn152  1  0.55836892  0.06513508  0.81242160  1
  Zn  Zn153  1  0.55379369  0.56534989  0.31344425  1
  Zn  Zn154  1  0.56308007  0.56513601  0.81604235  1
  Zn  Zn155  1  0.43511004  0.18724491  0.43783692  1
  Zn  Zn156  1  0.43553066  0.18785583  0.93774502  1
  Zn  Zn157  1  0.44082564  0.68346436  0.43432016  1
  Zn  Zn158  1  0.45969724  0.69096820  0.94345013  1
  Zn  Zn159  1  0.93707961  0.18944123  0.43582122  1
  Zn  Zn160  1  0.94257032  0.18940235  0.93700678  1
  Zn  Zn161  1  0.93975454  0.68240119  0.43478492  1
  Zn  Zn162  1  0.93840898  0.69567405  0.93727040  1
  Zn  Zn163  1  0.06440782  0.31553522  0.05769637  1
  Zn  Zn164  1  0.06520520  0.31361786  0.55897463  1
  Zn  Zn165  1  0.06188450  0.80803829  0.06373024  1
  Zn  Zn166  1  0.05401430  0.80797432  0.56634728  1
  Zn  Zn167  1  0.55834600  0.30969143  0.06263089  1
  Zn  Zn168  1  0.55719633  0.31340262  0.56357866  1
  Zn  Zn169  1  0.57128353  0.82290899  0.06101231  1
  Zn  Zn170  1  0.55795413  0.80923878  0.56318692  1
  O  O171  1  0.12110216  0.12079540  0.11957990  1
  O  O172  1  0.12126203  0.12163559  0.61591093  1
  O  O173  1  0.12272797  0.63257545  0.12092380  1
  O  O174  1  0.11149905  0.63209647  0.62073961  1
  O  O175  1  0.61329872  0.12979472  0.10994056  1
  O  O176  1  0.62314883  0.11675454  0.61815489  1
  O  O177  1  0.62940820  0.61288984  0.12352210  1
  O  O178  1  0.62163672  0.61777111  0.61694106  1
  O  O179  1  0.37645851  0.37676873  0.38147054  1
  O  O180  1  0.37436284  0.36924328  0.89104834  1
  O  O181  1  0.36547998  0.88062677  0.38002104  1
  O  O182  1  0.37195768  0.88185664  0.88329909  1
  O  O183  1  0.89137365  0.36534230  0.37255078  1
  O  O184  1  0.88344526  0.36979265  0.88415212  1
  O  O185  1  0.87530972  0.88233867  0.37859940  1
  O  O186  1  0.82861242  0.88789538  0.87860412  1
  O  O187  1  0.25695197  0.00778829  0.36809657  1
  O  O188  1  0.26583898  0.00103482  0.86984360  1
  O  O189  1  0.22946492  0.50893673  0.37166419  1
  O  O190  1  0.24801217  0.49397142  0.86385182  1
  O  O191  1  0.75984169  0.01306736  0.37788454  1
  O  O192  1  0.73928572  0.02129343  0.86248288  1
  O  O193  1  0.74538934  0.49447895  0.36624716  1
  O  O194  1  0.74419308  0.50084241  0.87008958  1
  O  O195  1  0.24770113  0.48545329  0.12410376  1
  O  O196  1  0.25424769  0.48963251  0.63327421  1
  O  O197  1  0.24715237  0.99054903  0.13043367  1
  O  O198  1  0.23451007  1.00661263  0.62343331  1
  O  O199  1  0.73829980  0.48957534  0.13423255  1
  O  O200  1  0.74015193  0.49083860  0.62965353  1
  O  O201  1  0.77587555  1.07468543  0.16218567  1
  O  O202  1  0.73857271  0.99591080  0.62989605  1
  O  O203  1  -0.00222716  0.35997381  0.25842847  1
  O  O204  1  0.00514677  0.37569081  0.75447051  1
  O  O205  1  0.00616722  0.86926475  0.25594537  1
  O  O206  1  0.01736596  0.87869035  0.73999046  1
  O  O207  1  0.50796246  0.37668965  0.25844711  1
  O  O208  1  0.49704530  0.36382181  0.75260065  1
  O  O209  1  0.52712403  0.87352374  0.24130601  1
  O  O210  1  0.51083838  0.86313641  0.74529481  1
  O  O211  1  0.48915172  0.11823767  0.24046069  1
  O  O212  1  0.49043303  0.13667698  0.74589561  1
  O  O213  1  0.49617938  0.63581774  0.25136521  1
  O  O214  1  0.49466346  0.63836498  0.75425604  1
  O  O215  1  0.99233876  0.12825569  0.23869535  1
  O  O216  1  0.99623288  0.13139534  0.74319500  1
  O  O217  1  0.99652014  0.63012518  0.24190451  1
  O  O218  1  0.99079643  0.62486746  0.74354718  1
  O  O219  1  0.37189328  0.25570738  0.00641011  1
  O  O220  1  0.37722337  0.25840681  0.50895694  1
  O  O221  1  0.36822365  0.75456124  -0.00265197  1
  O  O222  1  0.36669909  0.75350070  0.50678992  1
  O  O223  1  0.87266845  0.26029345  0.00313096  1
  O  O224  1  0.86559232  0.25262805  0.50592155  1
  O  O225  1  0.86000476  0.74114264  0.01193658  1
  O  O226  1  0.87869655  0.76230603  0.49806538  1
  O  O227  1  0.12222869  0.23592876  0.49059377  1
  O  O228  1  0.12421876  0.24259032  0.98825213  1
  O  O229  1  0.12819123  0.74816088  0.49777275  1
  O  O230  1  0.12317871  0.73782953  1.00100578  1
  O  O231  1  0.62993989  0.24142764  0.50287668  1
  O  O232  1  0.62908802  0.24270101  0.99181360  1
  O  O233  1  0.62211511  0.73539827  0.49812207  1
  O  O234  1  0.62976490  0.74222956  0.99793071  1
  O  O235  1  0.48635579  0.23509514  0.11727208  1
  O  O236  1  0.48685523  0.24995816  0.63255947  1
  O  O237  1  0.48787263  0.75679832  0.10842409  1
  O  O238  1  0.49226051  0.74678118  0.63617758  1
  O  O239  1  1.00248214  0.24612722  0.13090226  1
  O  O240  1  0.99700242  0.24593284  0.62902075  1
  O  O241  1  0.99113875  0.75543822  0.13929837  1
  O  O242  1  0.99304104  0.73863594  0.63270945  1
  O  O243  1  0.00806825  0.25132292  0.36623912  1
  O  O244  1  0.00785984  0.26204094  0.86851233  1
  O  O245  1  0.00404054  0.75627819  0.36550781  1
  O  O246  1  0.00161357  0.75613983  0.87057207  1
  O  O247  1  0.49902208  0.26359298  0.37989104  1
  O  O248  1  0.50550683  0.25034705  0.86718443  1
  O  O249  1  0.52058300  0.74660348  0.38086436  1
  O  O250  1  0.51710886  0.75540300  0.87062919  1
  O  O251  1  0.24262450  0.12043436  0.48779717  1
  O  O252  1  0.23546541  0.12466426  1.00420409  1
  O  O253  1  0.23896540  0.63474922  0.50389256  1
  O  O254  1  0.24511047  0.62590062  1.00023001  1
  O  O255  1  0.74191053  0.13149404  0.49551835  1
  O  O256  1  0.74413466  0.12946169  0.99015211  1
  O  O257  1  0.73515088  0.61759113  0.50369337  1
  O  O258  1  0.73855430  0.62792534  1.00515963  1
  O  O259  1  0.25723220  0.37294689  0.00843784  1
  O  O260  1  0.26054863  0.37581367  0.50916191  1
  O  O261  1  0.25980534  0.88344110  0.00628970  1
  O  O262  1  0.26092603  0.86804971  0.50257763  1
  O  O263  1  0.75619801  0.37010046  0.00444722  1
  O  O264  1  0.74673349  0.36801574  0.51076813  1
  O  O265  1  0.73972585  0.85544277  0.01161021  1
  O  O266  1  0.75962503  0.88440849  0.50909986  1
  O  O267  1  0.11162530  0.51582703  0.22892367  1
  O  O268  1  0.13221432  0.49083600  0.75399746  1
  O  O269  1  0.13036473  0.99376220  0.24319442  1
  O  O270  1  0.12441967  0.99598430  0.73567629  1
  O  O271  1  0.62997594  0.48971548  0.24691822  1
  O  O272  1  0.61936333  0.49934195  0.73714130  1
  O  O273  1  0.62863693  1.00301309  0.24415503  1
  O  O274  1  0.62657772  0.99344507  0.74392192  1
  O  O275  1  0.37288557  0.00012390  0.25523526  1
  O  O276  1  0.37671007  0.00861236  0.75320238  1
  O  O277  1  0.37032468  0.50307174  0.24541182  1
  O  O278  1  0.36335413  0.50313488  0.75375514  1
  O  O279  1  0.88391953  0.00778572  0.26110325  1
  O  O280  1  0.87220985  0.00621017  0.74929290  1
  O  O281  1  0.86254925  0.50460993  0.24434980  1
  O  O282  1  0.87240597  0.51510758  0.74580313  1
  O  O283  1  0.12066625  0.35757860  0.38005661  1
  O  O284  1  0.11667584  0.37008675  0.86802745  1
  O  O285  1  0.11916265  0.86646566  0.37337957  1
  O  O286  1  0.12608420  0.88141167  0.86268988  1
  O  O287  1  0.61553182  0.36860908  0.36717380  1
  O  O288  1  0.62160722  0.36111850  0.87413369  1
  O  O289  1  0.62388931  0.86544569  0.38738320  1
  O  O290  1  0.63610926  0.86858731  0.86252483  1
  O  O291  1  0.37902831  0.12873823  0.13149504  1
  O  O292  1  0.37418429  0.13276488  0.62828935  1
  O  O293  1  0.36917426  0.64792246  0.12362697  1
  O  O294  1  0.37640153  0.63877808  0.62959527  1
  O  O295  1  0.89715033  0.13592862  0.11658719  1
  O  O296  1  0.88099702  0.12998736  0.62757479  1
  O  O297  1  0.87020965  0.63621635  0.14307724  1
  O  O298  1  0.88304899  0.62671549  0.63222523  1
  O  O299  1  0.26316609  0.25099863  0.12120038  1
  O  O300  1  0.26131317  0.26268979  0.63189092  1
  O  O301  1  0.26231671  0.76511037  0.12370831  1
  O  O302  1  0.25481894  0.74798249  0.61856171  1
  O  O303  1  0.75682516  0.25380925  0.11608009  1
  O  O304  1  0.75239842  0.25449728  0.61685950  1
  O  O305  1  0.75314351  0.74285071  0.11736507  1
  O  O306  1  0.74799585  0.76142702  0.62439641  1
  O  O307  1  0.24303447  0.23487402  0.36628228  1
  O  O308  1  0.23594961  0.25587597  0.87497246  1
  O  O309  1  0.23701113  0.75500757  0.39437432  1
  O  O310  1  0.24408902  0.75268975  0.87785297  1
  O  O311  1  0.74766789  0.25020010  0.39232409  1
  O  O312  1  0.74244267  0.24344425  0.87753154  1
  O  O313  1  0.73314613  0.74459245  0.38087762  1
  O  O314  1  0.74067850  0.74066219  0.89123700  1
  O  O315  1  0.01252185  0.12110222  0.00614036  1
  O  O316  1  0.00806809  0.12010539  0.50142217  1
  O  O317  1  0.00414826  0.61453703  -0.00239178  1
  O  O318  1  0.00571483  0.62776168  0.51202090  1
  O  O319  1  0.50641573  0.11746544  0.00249609  1
  O  O320  1  0.50985271  0.12376654  0.50201149  1
  O  O321  1  0.51454455  0.61523186  0.00537645  1
  O  O322  1  0.50926327  0.61498177  0.50484578  1
  O  O323  1  0.48798213  0.37977806  0.49546825  1
  O  O324  1  0.49111557  0.38074435  0.99901904  1
  O  O325  1  0.48337357  0.87345736  0.50336487  1
  O  O326  1  0.49400030  0.88918081  0.99989375  1
  O  O327  1  1.00001214  0.37204847  0.48449052  1
  O  O328  1  0.99306296  0.38438980  0.99304085  1
  O  O329  1  0.99078886  0.88120433  0.49422065  1
  O  O330  1  1.00376999  0.89179638  1.00808043  1
  O  O331  1  0.50496388  0.48612201  0.38902776  1
  O  O332  1  0.50814115  0.49671179  0.89175743  1
  O  O333  1  0.48524963  1.00313650  0.37769355  1
  O  O334  1  0.48829118  1.00565854  0.88229451  1
  O  O335  1  1.01491620  0.47904657  0.36890587  1
  O  O336  1  1.00159648  0.48909839  0.88298527  1
  O  O337  1  0.99444903  0.99544330  0.37896636  1
  O  O338  1  1.00246888  1.00310523  0.88874085  1
  O  O339  1  0.00663768  0.00839324  0.11724049  1
  O  O340  1  0.00936179  0.00877835  0.61561591  1
  O  O341  1  -0.00281102  0.50402354  0.11913425  1
  O  O342  1  0.00072784  0.51575110  0.62415070  1
  O  O343  1  0.49083636  0.01349859  0.10991782  1
  O  O344  1  0.51157499  0.00041929  0.62277126  1
  O  O345  1  0.51385607  0.48948332  0.11627459  1
  O  O346  1  0.50389076  0.49931939  0.61588905  1
  O  O347  1  0.25149702  0.36849140  0.23497532  1
  O  O348  1  0.24363274  0.38579158  0.74457965  1
  O  O349  1  0.24428528  0.87639364  0.24296406  1
  O  O350  1  0.23087069  0.88378708  0.74411683  1
  O  O351  1  0.74401610  0.37607854  0.24645965  1
  O  O352  1  0.74475377  0.37208687  0.73778140  1
  O  O353  1  0.72620092  0.87552820  0.25624973  1
  O  O354  1  0.73934911  0.88052868  0.73681225  1
  O  O355  1  0.26155728  0.11522566  0.25380842  1
  O  O356  1  0.26097770  0.12500779  0.74475395  1
  O  O357  1  0.27380230  0.67050805  0.26862021  1
  O  O358  1  0.24954052  0.60975075  0.75022075  1
  O  O359  1  0.75529582  0.15463074  0.27657076  1
  O  O360  1  0.75714038  0.12366524  0.75304028  1
  O  O361  1  0.75470462  0.61155808  0.25738432  1
  O  O362  1  0.76185103  0.62328991  0.75026549  1
  O  O363  1  0.36926641  0.11921767  0.36790798  1
  O  O364  1  0.37753575  0.11999214  0.86385064  1
  O  O365  1  0.37491010  0.60986479  0.38127409  1
  O  O366  1  0.36524918  0.64241349  0.88560467  1
  O  O367  1  0.86830161  0.11808577  0.37093692  1
  O  O368  1  0.86694488  0.13144022  0.86810477  1
  O  O369  1  0.87477871  0.63050731  0.35791446  1
  O  O370  1  0.87445978  0.62703973  0.86262401  1
  O  O371  1  0.14066371  0.36678082  0.12159691  1
  O  O372  1  0.13427306  0.36928771  0.63371081  1
  O  O373  1  0.13389765  0.87871203  0.12845505  1
  O  O374  1  0.12119482  0.88932135  0.61974547  1
  O  O375  1  0.62846809  0.37620234  0.13218263  1
  O  O376  1  0.62991610  0.38151806  0.62584523  1
  O  O377  1  0.63301493  0.89354052  0.12342718  1
  O  O378  1  0.62926506  0.88051995  0.62771047  1
  O  O379  1  0.11379030  0.23557122  0.25881693  1
  O  O380  1  0.11942054  0.25962777  0.75446639  1
  O  O381  1  0.11698469  0.75424847  0.25889889  1
  O  O382  1  0.12538888  0.76636785  0.75122317  1
  O  O383  1  0.62937608  0.25824739  0.24740619  1
  O  O384  1  0.61397937  0.24993667  0.75595302  1
  O  O385  1  0.62685500  0.74986858  0.26794076  1
  O  O386  1  0.62129746  0.75359528  0.75808981  1
  O  O387  1  0.37422287  0.23662000  0.24154270  1
  O  O388  1  0.37811012  0.24541582  0.74508272  1
  O  O389  1  0.39279915  0.77380442  0.22936323  1
  O  O390  1  0.38055633  0.75324650  0.74661281  1
  O  O391  1  0.88302712  0.23674511  0.23872275  1
  O  O392  1  0.88202454  0.24612117  0.74269073  1
  O  O393  1  0.87964028  0.74627048  0.24798170  1
  O  O394  1  0.87288954  0.73694100  0.74503808  1
  O  O395  1  0.38095670  0.49042995  0.50242713  1
  O  O396  1  0.38630295  0.49202750  1.00944031  1
  O  O397  1  0.37510224  0.99003190  0.49114062  1
  O  O398  1  0.38121359  0.99618071  0.99087719  1
  O  O399  1  0.88077817  0.49533425  0.49845541  1
  O  O400  1  0.87937627  0.49120814  1.00899399  1
  O  O401  1  0.88029670  0.99597414  0.48881709  1
  O  O402  1  0.89156958  1.00516824  0.99707521  1
  O  O403  1  0.11832656  0.00682720  0.00402741  1
  O  O404  1  0.12248605  0.00715231  0.50597949  1
  O  O405  1  0.11304185  0.50926730  0.00155126  1
  O  O406  1  0.11775696  0.51413449  0.49738996  1
  O  O407  1  0.62036164  0.01205508  -0.01383727  1
  O  O408  1  0.62366272  0.00823773  0.50724992  1
  O  O409  1  0.62046952  0.50449556  0.01249867  1
  O  O410  1  0.61641850  0.50386970  0.51115947  1
  O  O411  1  0.37066846  0.36491094  0.11618623  1
  O  O412  1  0.36771081  0.36938067  0.61820691  1
  O  O413  1  0.37184085  0.87156041  0.10812977  1
  O  O414  1  0.37589035  0.86197619  0.61889865  1
  O  O415  1  0.86938957  0.37009265  0.11719481  1
  O  O416  1  0.86517846  0.36835344  0.62420098  1
  O  O417  1  0.87179232  0.86162868  0.13371724  1
  O  O418  1  0.86524195  0.87503963  0.61484616  1
  O  O419  1  0.13241497  0.12765879  0.38049729  1
  O  O420  1  0.11987483  0.13587692  0.87995233  1
  O  O421  1  0.12011052  0.64005498  0.38827796  1
  O  O422  1  0.12437207  0.62689655  0.88683490  1
  O  O423  1  0.63051058  0.12646535  0.38453197  1
  O  O424  1  0.62954631  0.13673572  0.87779138  1
  O  O425  1  0.62745024  0.61858295  0.39315852  1
  O  O426  1  0.62605378  0.63273273  0.88734529  1
