# generated using pymatgen
data_V85Zn86O256
_symmetry_space_group_name_H-M   'P 1'
_cell_length_a   16.94451373
_cell_length_b   16.94339301
_cell_length_c   16.95080707
_cell_angle_alpha   90.14635365
_cell_angle_beta   89.98475571
_cell_angle_gamma   89.97971560
_symmetry_Int_Tables_number   1
_chemical_formula_structural   V85Zn86O256
_chemical_formula_sum   'V85 Zn86 O256'
_cell_volume   4866.51891883
_cell_formula_units_Z   1
loop_
 _symmetry_equiv_pos_site_id
 _symmetry_equiv_pos_as_xyz
  1  'x, y, z'
loop_
 _atom_site_type_symbol
 _atom_site_label
 _atom_site_symmetry_multiplicity
 _atom_site_fract_x
 _atom_site_fract_y
 _atom_site_fract_z
 _atom_site_occupancy
  V  V0  1  0.49848183  0.12283207  0.12708810  1
  V  V1  1  0.24111602  0.62235328  0.87554210  1
  V  V2  1  0.62481094  0.62901480  0.00238357  1
  V  V3  1  0.49955048  0.75146509  0.75038481  1
  V  V4  1  0.75480822  0.61474624  0.37521139  1
  V  V5  1  0.37448645  0.12419164  0.75684598  1
  V  V6  1  0.85690698  0.86436068  0.01642494  1
  V  V7  1  -0.00264443  0.25864016  0.25249936  1
  V  V8  1  0.63007704  0.51068857  0.62446773  1
  V  V9  1  0.25175551  -0.00609109  0.73368452  1
  V  V10  1  0.36949649  0.24936111  0.12536012  1
  V  V11  1  0.75100845  0.24998813  0.50299565  1
  V  V12  1  0.00208240  0.88215396  0.37568458  1
  V  V13  1  0.25584833  0.87454934  0.11579291  1
  V  V14  1  0.24513150  0.11664833  0.87307316  1
  V  V15  1  0.87903252  0.87848942  0.50064971  1
  V  V16  1  0.87074521  -0.00312256  0.36875258  1
  V  V17  1  0.24837898  0.12384161  0.37868575  1
  V  V18  1  0.37415229  0.62495971  0.74833988  1
  V  V19  1  0.75159624  0.38088458  0.63163372  1
  V  V20  1  0.00070204  0.12306264  0.12623504  1
  V  V21  1  0.38358567  0.37030974  -0.00592226  1
  V  V22  1  0.63561004  0.00215325  0.13738602  1
  V  V23  1  0.00949616  0.62509705  0.10827292  1
  V  V24  1  0.87374116  0.25069367  0.12713335  1
  V  V25  1  0.25053671  -0.00393725  0.24947375  1
  V  V26  1  0.37427478  0.62051453  0.23974597  1
  V  V27  1  0.10975551  -0.00180052  0.61900106  1
  V  V28  1  0.62612228  0.12253691  0.00072649  1
  V  V29  1  0.75000249  0.74213863  0.50541900  1
  V  V30  1  0.87612732  0.62081682  0.23699145  1
  V  V31  1  0.38009864  0.75002815  0.11415275  1
  V  V32  1  0.88008071  0.24613131  0.62523802  1
  V  V33  1  0.37194894  0.87397523  0.50780516  1
  V  V34  1  0.75055424  0.12646017  0.87508843  1
  V  V35  1  0.67888238  0.82852864  0.19927856  1
  V  V36  1  0.37446587  0.37713844  0.50031569  1
  V  V37  1  0.63380992  0.75354434  0.87910150  1
  V  V38  1  0.74753583  0.11911489  0.36856715  1
  V  V39  1  0.88062747  0.12256480  0.74766248  1
  V  V40  1  0.11573844  0.75765891  0.87048618  1
  V  V41  1  0.38398057  0.49528612  0.87075443  1
  V  V42  1  0.87305666  0.49724616  0.87511666  1
  V  V43  1  0.61234048  0.50176244  0.12504433  1
  V  V44  1  0.62546301  0.74183520  0.38342851  1
  V  V45  1  0.12248883  0.24646177  0.87664450  1
  V  V46  1  0.50284102  0.50851102  0.50076559  1
  V  V47  1  0.49674058  0.74836301  0.24635171  1
  V  V48  1  0.88154265  0.37783212  -0.00336205  1
  V  V49  1  0.24654119  0.37578286  0.62460741  1
  V  V50  1  0.88293203  0.37400563  0.49516766  1
  V  V51  1  0.48555781  0.87924535  0.87648153  1
  V  V52  1  -0.00119966  0.50657729  0.49386812  1
  V  V53  1  0.50207105  -0.00136275  0.50149090  1
  V  V54  1  0.24632545  0.74641993  -0.00310717  1
  V  V55  1  0.62575912  0.12529730  0.50278959  1
  V  V56  1  0.37426090  0.12466657  0.25252388  1
  V  V57  1  0.12054006  0.25539300  0.37499563  1
  V  V58  1  0.37475710  0.25138304  0.62625043  1
  V  V59  1  0.88083332  0.61575515  0.74786839  1
  V  V60  1  0.24860898  0.75176878  0.50651091  1
  V  V61  1  -0.00119706  0.24797898  0.75470155  1
  V  V62  1  0.12232257  0.74883375  0.37320759  1
  V  V63  1  -0.00049780  -0.01383267  0.00224201  1
  V  V64  1  0.74881913  0.00175572  0.74994535  1
  V  V65  1  0.89317176  0.74750086  0.63283512  1
  V  V66  1  0.24761361  0.62351060  0.37022780  1
  V  V67  1  0.37006900  0.49971391  0.37139153  1
  V  V68  1  0.61990083  0.38175522  0.75619631  1
  V  V69  1  0.62400958  0.87790648  0.75222142  1
  V  V70  1  0.13199538  0.38345807  0.24726729  1
  V  V71  1  0.62805051  0.38172376  0.25221760  1
  V  V72  1  0.87620661  -0.01216675  0.87850537  1
  V  V73  1  0.75196961  0.38760716  0.12845021  1
  V  V74  1  0.10971184  0.12361970  0.50198031  1
  V  V75  1  0.12571687  0.87242513  0.24511160  1
  V  V76  1  0.37623223  -0.00345988  0.37552107  1
  V  V77  1  0.11728073  0.50609870  0.62531580  1
  V  V78  1  0.75008149  0.25226284  0.00181866  1
  V  V79  1  0.50039632  0.12736507  0.62723453  1
  V  V80  1  0.11865656  0.37593223  0.75376926  1
  V  V81  1  0.75077990  0.87468511  0.62511246  1
  V  V82  1  0.48917323  -0.00292968  -0.00248870  1
  V  V83  1  0.50495792  0.87156205  0.37422677  1
  V  V84  1  0.62370040  0.25251765  0.37654578  1
  Zn  Zn85  1  0.50201930  0.49939690  -0.00538466  1
  Zn  Zn86  1  0.87579109  0.49264700  0.36662165  1
  Zn  Zn87  1  0.24879423  0.49977527  0.74842778  1
  Zn  Zn88  1  0.12273506  0.12220634  -0.00053963  1
  Zn  Zn89  1  0.49991144  0.25175924  0.25154305  1
  Zn  Zn90  1  0.49791328  0.25630324  0.75874979  1
  Zn  Zn91  1  0.37013980  0.75220859  0.62806284  1
  Zn  Zn92  1  0.25615443  0.38998143  0.12670424  1
  Zn  Zn93  1  -0.00972711  0.75151701  0.24026702  1
  Zn  Zn94  1  0.12646032  -0.00070139  0.12214106  1
  Zn  Zn95  1  0.24923464  0.24639342  -0.00049170  1
  Zn  Zn96  1  0.12037722  0.62877465  0.50379105  1
  Zn  Zn97  1  0.13101959  0.50827115  0.10221518  1
  Zn  Zn98  1  0.62085029  0.25957340  0.87800247  1
  Zn  Zn99  1  0.04074368  0.44302589  0.93951666  1
  Zn  Zn100  1  0.75115444  0.62437441  0.87258496  1
  Zn  Zn101  1  0.24743905  0.24957386  0.50046234  1
  Zn  Zn102  1  0.50007879  0.37708119  0.37644190  1
  Zn  Zn103  1  0.11489188  0.86806952  0.74359012  1
  Zn  Zn104  1  0.62668629  0.00125255  0.62578515  1
  Zn  Zn105  1  0.87156988  0.12094459  0.24854011  1
  Zn  Zn106  1  0.50343289  0.63014906  0.62224409  1
  Zn  Zn107  1  0.18484475  0.18670549  0.19031852  1
  Zn  Zn108  1  0.18572497  0.18519421  0.68643087  1
  Zn  Zn109  1  0.18899455  0.68502536  0.18517529  1
  Zn  Zn110  1  0.18571663  0.68728473  0.69052112  1
  Zn  Zn111  1  0.68657876  0.19156662  0.18879201  1
  Zn  Zn112  1  0.68813540  0.19330993  0.68994683  1
  Zn  Zn113  1  0.69017708  0.66505060  0.19164197  1
  Zn  Zn114  1  0.69344010  0.68933775  0.69305054  1
  Zn  Zn115  1  0.30977580  0.31108791  0.31338045  1
  Zn  Zn116  1  0.30822663  0.31017627  0.81198168  1
  Zn  Zn117  1  0.31341565  0.80966414  0.31275589  1
  Zn  Zn118  1  0.30702335  0.81347147  0.81060324  1
  Zn  Zn119  1  0.80850027  0.31149635  0.31284683  1
  Zn  Zn120  1  0.80929958  0.31482922  0.81346368  1
  Zn  Zn121  1  0.81531761  0.80335458  0.31549435  1
  Zn  Zn122  1  0.81503861  0.81228310  0.81075777  1
  Zn  Zn123  1  0.18576547  0.43789553  0.43699056  1
  Zn  Zn124  1  0.20823387  0.43137600  0.93686671  1
  Zn  Zn125  1  0.18699002  0.93735038  0.43997682  1
  Zn  Zn126  1  0.18843599  0.93780417  0.93639857  1
  Zn  Zn127  1  0.68831364  0.43577207  0.44601259  1
  Zn  Zn128  1  0.69477651  0.44466655  0.93860710  1
  Zn  Zn129  1  0.68809187  0.93298765  0.43628633  1
  Zn  Zn130  1  0.68272014  0.93921777  0.94038579  1
  Zn  Zn131  1  0.31002599  0.06368246  0.06125154  1
  Zn  Zn132  1  0.31366346  0.06453706  0.56166306  1
  Zn  Zn133  1  0.31054320  0.55859685  0.05818191  1
  Zn  Zn134  1  0.30960259  0.56376540  0.56148909  1
  Zn  Zn135  1  0.81543272  0.06054510  0.06272836  1
  Zn  Zn136  1  0.81474259  0.06092172  0.55970732  1
  Zn  Zn137  1  0.81003913  0.56453955  0.05530295  1
  Zn  Zn138  1  0.81775902  0.56390260  0.56507770  1
  Zn  Zn139  1  0.43855577  0.43344093  0.19039974  1
  Zn  Zn140  1  0.44072278  0.44124774  0.68502430  1
  Zn  Zn141  1  0.43997713  0.93439830  0.18686573  1
  Zn  Zn142  1  0.43688404  0.94035258  0.68804188  1
  Zn  Zn143  1  0.94412335  0.44377609  0.18291989  1
  Zn  Zn144  1  0.93988277  0.43716477  0.68595560  1
  Zn  Zn145  1  0.93471934  0.93427754  0.18706419  1
  Zn  Zn146  1  0.93984498  0.93506906  0.68774947  1
  Zn  Zn147  1  0.06107599  0.06210581  0.31031923  1
  Zn  Zn148  1  0.04927715  0.03071806  0.80036372  1
  Zn  Zn149  1  0.05395992  0.56364697  0.31174438  1
  Zn  Zn150  1  0.05624768  0.56989232  0.80839692  1
  Zn  Zn151  1  0.56123281  0.06378990  0.31463378  1
  Zn  Zn152  1  0.56120826  0.06625048  0.81573708  1
  Zn  Zn153  1  0.55923524  0.56305144  0.31216551  1
  Zn  Zn154  1  0.56565722  0.56569540  0.81080854  1
  Zn  Zn155  1  0.43738243  0.18898158  0.44050246  1
  Zn  Zn156  1  0.43877149  0.18601198  0.93653584  1
  Zn  Zn157  1  0.43354053  0.68594764  0.43580386  1
  Zn  Zn158  1  0.44218254  0.68357927  0.93381963  1
  Zn  Zn159  1  0.93535884  0.18713551  0.43335591  1
  Zn  Zn160  1  0.93743249  0.18323795  0.93838263  1
  Zn  Zn161  1  0.93538164  0.68879349  0.43566591  1
  Zn  Zn162  1  0.93270197  0.68976677  0.93671854  1
  Zn  Zn163  1  0.06618003  0.30871546  0.06787780  1
  Zn  Zn164  1  0.05950673  0.31199185  0.56470957  1
  Zn  Zn165  1  0.06188745  0.80513431  0.06055171  1
  Zn  Zn166  1  0.06476646  0.81813606  0.55754038  1
  Zn  Zn167  1  0.56176968  0.31154528  0.06472350  1
  Zn  Zn168  1  0.56170153  0.31783665  0.56659800  1
  Zn  Zn169  1  0.55981799  0.81377732  0.05838070  1
  Zn  Zn170  1  0.56401979  0.81190106  0.56413640  1
  O  O171  1  0.11606276  0.12143788  0.12421266  1
  O  O172  1  0.12926093  0.12222162  0.60612249  1
  O  O173  1  0.11509966  0.62721470  0.12238327  1
  O  O174  1  0.13264906  0.60986404  0.62279063  1
  O  O175  1  0.61735360  0.11932830  0.12301001  1
  O  O176  1  0.61951740  0.12644519  0.62045670  1
  O  O177  1  0.62523118  0.61295389  0.11764987  1
  O  O178  1  0.62775617  0.61447717  0.63298778  1
  O  O179  1  0.37425433  0.38250609  0.37963216  1
  O  O180  1  0.36919295  0.38176333  0.88031062  1
  O  O181  1  0.38534884  0.87656947  0.38319586  1
  O  O182  1  0.38634552  0.87413153  0.86928568  1
  O  O183  1  0.86377369  0.37564689  0.39061514  1
  O  O184  1  0.86973858  0.38013336  0.88527510  1
  O  O185  1  0.88136510  0.87757853  0.38047761  1
  O  O186  1  0.87190543  0.88611165  0.87948767  1
  O  O187  1  0.25564690  0.00429576  0.36997881  1
  O  O188  1  0.23842066  0.01203159  0.85927857  1
  O  O189  1  0.26080407  0.50834576  0.38036679  1
  O  O190  1  0.26371830  0.50835718  0.86918449  1
  O  O191  1  0.75576614  0.00811527  0.38064797  1
  O  O192  1  0.75688203  0.00783028  0.87215523  1
  O  O193  1  0.75006989  0.51257299  0.38748825  1
  O  O194  1  0.76587659  0.50284705  0.87066403  1
  O  O195  1  0.24345371  0.50310265  0.12604936  1
  O  O196  1  0.24234849  0.48850166  0.62443955  1
  O  O197  1  0.25066972  0.99121745  0.13063076  1
  O  O198  1  0.24680966  1.00142726  0.63066022  1
  O  O199  1  0.74174670  0.48931443  0.12055905  1
  O  O200  1  0.74338187  0.49225940  0.61645918  1
  O  O201  1  0.73440429  1.00890997  0.12649002  1
  O  O202  1  0.75075409  0.99271018  0.63071271  1
  O  O203  1  0.00830877  0.36311696  0.24458918  1
  O  O204  1  0.01107082  0.36414990  0.74506174  1
  O  O205  1  0.00794236  0.87022680  0.25443331  1
  O  O206  1  0.01732459  0.92209195  0.76450247  1
  O  O207  1  0.51330507  0.37103534  0.25495448  1
  O  O208  1  0.51604655  0.37513785  0.74367025  1
  O  O209  1  0.49172286  0.86149936  0.26245353  1
  O  O210  1  0.50403389  0.87315834  0.75606929  1
  O  O211  1  0.49284446  0.12621743  0.24354539  1
  O  O212  1  0.49006717  0.12042062  0.74244401  1
  O  O213  1  0.48919780  0.63909306  0.25681694  1
  O  O214  1  0.49334310  0.63625788  0.74927379  1
  O  O215  1  0.99825936  0.13170540  0.24055016  1
  O  O216  1  0.98518009  0.12768232  0.75295610  1
  O  O217  1  0.98886643  0.62904404  0.24497995  1
  O  O218  1  0.98092253  0.63299019  0.74910209  1
  O  O219  1  0.37533742  0.25146413  0.00839881  1
  O  O220  1  0.37274468  0.25845261  0.50737657  1
  O  O221  1  0.37372869  0.74441584  0.01023307  1
  O  O222  1  0.36714103  0.75687595  0.50055360  1
  O  O223  1  0.86469221  0.25407294  0.00422190  1
  O  O224  1  0.87397188  0.25449711  0.50735265  1
  O  O225  1  0.87188120  0.76715795  -0.00621026  1
  O  O226  1  0.87046238  0.75841497  0.50887500  1
  O  O227  1  0.12297743  0.24013041  0.49339402  1
  O  O228  1  0.12577678  0.24687733  0.99034126  1
  O  O229  1  0.13111826  0.74954790  0.49141544  1
  O  O230  1  0.14011126  0.75259519  0.98975216  1
  O  O231  1  0.62927240  0.24763198  0.49586050  1
  O  O232  1  0.63674558  0.24428705  1.00330857  1
  O  O233  1  0.63449681  0.74945124  0.49459266  1
  O  O234  1  0.61830280  0.74412756  0.99040669  1
  O  O235  1  0.49252304  0.23596618  0.12551967  1
  O  O236  1  0.49368238  0.24252261  0.62782497  1
  O  O237  1  0.49218677  0.75709648  0.13393465  1
  O  O238  1  0.49881635  0.75027299  0.63808691  1
  O  O239  1  0.99342132  0.24244229  0.13312384  1
  O  O240  1  0.98781752  0.25066880  0.63596464  1
  O  O241  1  1.00212009  0.73395767  0.12578973  1
  O  O242  1  0.99105544  0.75389695  0.61925583  1
  O  O243  1  0.00823619  0.24378438  0.36479049  1
  O  O244  1  0.00424978  0.24333462  0.86269362  1
  O  O245  1  0.01148723  0.75769386  0.37369431  1
  O  O246  1  0.01848976  0.74503560  0.88213166  1
  O  O247  1  0.51308794  0.25155188  0.37797797  1
  O  O248  1  0.51068188  0.23655987  0.87008403  1
  O  O249  1  0.50623192  0.75311924  0.37191712  1
  O  O250  1  0.50453092  0.75952282  0.86509360  1
  O  O251  1  0.24621650  0.12618722  0.48803398  1
  O  O252  1  0.24638284  0.12399482  0.98802215  1
  O  O253  1  0.24868069  0.63356298  0.48710793  1
  O  O254  1  0.26021296  0.63554621  0.98614846  1
  O  O255  1  0.74490982  0.13131361  0.49290967  1
  O  O256  1  0.74870635  0.13238855  0.99446551  1
  O  O257  1  0.75946926  0.63706435  0.49531208  1
  O  O258  1  0.73329783  0.62151250  0.99298003  1
  O  O259  1  0.26851033  0.36419763  0.00689036  1
  O  O260  1  0.25463228  0.37294028  0.50755015  1
  O  O261  1  0.25103830  0.86969411  0.00992132  1
  O  O262  1  0.26024172  0.86499276  0.49088147  1
  O  O263  1  0.75644298  0.36791458  0.00868643  1
  O  O264  1  0.75713544  0.36712191  0.51211799  1
  O  O265  1  0.75825906  0.88088994  0.00139824  1
  O  O266  1  0.75740645  0.86427348  0.50501222  1
  O  O267  1  0.11920142  0.48137593  0.26177340  1
  O  O268  1  0.12221285  0.49212882  0.74309700  1
  O  O269  1  0.13053205  0.98697154  0.24918914  1
  O  O270  1  0.13885365  1.01981078  0.72579450  1
  O  O271  1  0.62136412  0.49291808  0.24232717  1
  O  O272  1  0.62320110  0.49083604  0.74033463  1
  O  O273  1  0.61928445  1.00448622  0.23646863  1
  O  O274  1  0.63158710  0.99612018  0.75042682  1
  O  O275  1  0.37165040  0.00443187  0.25673752  1
  O  O276  1  0.36014487  0.00837376  0.74273715  1
  O  O277  1  0.38211051  0.50840287  0.25910876  1
  O  O278  1  0.37347004  0.50663408  0.75264311  1
  O  O279  1  0.87657604  -0.00041036  0.26448828  1
  O  O280  1  0.86720926  0.00704270  0.75792405  1
  O  O281  1  0.88170372  0.51221547  0.25280947  1
  O  O282  1  0.87529636  0.51023801  0.74837350  1
  O  O283  1  0.13072082  0.36064786  0.36829524  1
  O  O284  1  0.12770267  0.36226805  0.86673455  1
  O  O285  1  0.11931284  0.87064767  0.36894908  1
  O  O286  1  0.13079853  0.85983688  0.87460990  1
  O  O287  1  0.62745401  0.36911562  0.37047778  1
  O  O288  1  0.63501399  0.38040437  0.85914821  1
  O  O289  1  0.61243334  0.86176920  0.38223770  1
  O  O290  1  0.61615999  0.87150235  0.86973639  1
  O  O291  1  0.38079521  0.12819977  0.13139892  1
  O  O292  1  0.37956393  0.13222659  0.63157098  1
  O  O293  1  0.37153706  0.63177955  0.13527467  1
  O  O294  1  0.37446417  0.62618888  0.63730302  1
  O  O295  1  0.88009037  0.13164498  0.12914811  1
  O  O296  1  0.86693790  0.13381407  0.63467297  1
  O  O297  1  0.87794167  0.61876668  0.13300988  1
  O  O298  1  0.87423918  0.63957582  0.63321266  1
  O  O299  1  0.26310785  0.24317880  0.12562680  1
  O  O300  1  0.25336472  0.26074988  0.62372743  1
  O  O301  1  0.25743242  0.75421360  0.11541514  1
  O  O302  1  0.24804044  0.74596029  0.61045607  1
  O  O303  1  0.75496326  0.25762946  0.11955177  1
  O  O304  1  0.76140304  0.25645863  0.62140897  1
  O  O305  1  0.73069367  0.76436486  0.14442217  1
  O  O306  1  0.75716920  0.75768176  0.61971080  1
  O  O307  1  0.24080252  0.23932594  0.37637971  1
  O  O308  1  0.23973531  0.23716298  0.87216096  1
  O  O309  1  0.23971090  0.74527957  0.38097072  1
  O  O310  1  0.24787040  0.74257355  0.88062927  1
  O  O311  1  0.73938353  0.24351098  0.38265242  1
  O  O312  1  0.74626569  0.24373057  0.88404896  1
  O  O313  1  0.74267853  0.74111684  0.38561592  1
  O  O314  1  0.73582293  0.75615465  0.87137567  1
  O  O315  1  -0.00255652  0.12053468  0.01565178  1
  O  O316  1  0.01144952  0.12422993  0.49425359  1
  O  O317  1  -0.00644397  0.62465341  0.01035352  1
  O  O318  1  0.00010593  0.61143497  0.49755083  1
  O  O319  1  0.50453157  0.11488895  0.00823402  1
  O  O320  1  0.50529883  0.11980075  0.50670996  1
  O  O321  1  0.51676667  0.61891125  -0.00849082  1
  O  O322  1  0.49279658  0.61358721  0.50283110  1
  O  O323  1  0.49120013  0.38622942  0.50032381  1
  O  O324  1  0.48867440  0.37419112  1.00286585  1
  O  O325  1  0.49340108  0.87813858  0.49472681  1
  O  O326  1  0.50224046  0.88907153  0.99250695  1
  O  O327  1  0.99044663  0.38156532  0.50388751  1
  O  O328  1  0.98566023  0.36414714  1.00438524  1
  O  O329  1  0.99122272  0.87211272  0.48770440  1
  O  O330  1  0.99242591  0.88406841  1.00740288  1
  O  O331  1  0.48945742  0.49995944  0.38282012  1
  O  O332  1  0.48753938  0.50270187  0.86998278  1
  O  O333  1  0.49731230  0.99059856  0.38055309  1
  O  O334  1  0.50361391  0.99589746  0.88948477  1
  O  O335  1  0.99804628  0.49676664  0.39031247  1
  O  O336  1  0.98322821  0.49843000  0.86232466  1
  O  O337  1  0.99337677  0.98839676  0.37089241  1
  O  O338  1  0.98384968  1.01691135  0.89436761  1
  O  O339  1  -0.00033826  0.00651056  0.12009584  1
  O  O340  1  0.01150983  0.00642991  0.61924913  1
  O  O341  1  0.01119900  0.51728697  0.12749963  1
  O  O342  1  0.00870434  0.49471262  0.61285324  1
  O  O343  1  0.50433866  0.00730909  0.11902078  1
  O  O344  1  0.50133254  0.00949126  0.61849043  1
  O  O345  1  0.50986807  0.49450573  0.12225994  1
  O  O346  1  0.50954978  0.50557456  0.61775592  1
  O  O347  1  0.23574485  0.36913421  0.24754748  1
  O  O348  1  0.23627796  0.37513568  0.74239241  1
  O  O349  1  0.24505044  0.87732375  0.24295188  1
  O  O350  1  0.24338909  0.89251678  0.75106308  1
  O  O351  1  0.73852085  0.37071955  0.24196111  1
  O  O352  1  0.74354626  0.37218570  0.73670134  1
  O  O353  1  0.74117127  0.87465273  0.26207256  1
  O  O354  1  0.74527214  0.88212911  0.74478148  1
  O  O355  1  0.25237604  0.11783588  0.26128708  1
  O  O356  1  0.25773272  0.11932261  0.75145686  1
  O  O357  1  0.25895224  0.63262242  0.26258046  1
  O  O358  1  0.25824220  0.62325655  0.75668203  1
  O  O359  1  0.75004900  0.13164955  0.26522549  1
  O  O360  1  0.75596816  0.12283607  0.75771069  1
  O  O361  1  0.76437547  0.61962997  0.26103170  1
  O  O362  1  0.77379386  0.64001285  0.75518035  1
  O  O363  1  0.36842749  0.11945707  0.37267426  1
  O  O364  1  0.36482727  0.12756482  0.86201923  1
  O  O365  1  0.36672785  0.61877914  0.36633650  1
  O  O366  1  0.37072577  0.61970382  0.86282029  1
  O  O367  1  0.86527901  0.11468988  0.37645310  1
  O  O368  1  0.86352410  0.12080414  0.86955994  1
  O  O369  1  0.86816415  0.61958640  0.37133681  1
  O  O370  1  0.87435978  0.61839678  0.86586780  1
  O  O371  1  0.12832268  0.37383036  0.13939970  1
  O  O372  1  0.13063012  0.37997333  0.63049800  1
  O  O373  1  0.13451576  0.87299644  0.13136838  1
  O  O374  1  0.12206236  0.89318830  0.62319409  1
  O  O375  1  0.63129875  0.37954247  0.13294574  1
  O  O376  1  0.63383870  0.38454439  0.63169545  1
  O  O377  1  0.62032412  0.88701135  0.13157197  1
  O  O378  1  0.63169338  0.87732969  0.63368270  1
  O  O379  1  0.11748352  0.25515880  0.25752680  1
  O  O380  1  0.11595220  0.25294782  0.75314519  1
  O  O381  1  0.12807990  0.76084395  0.25673452  1
  O  O382  1  0.12841659  0.75366035  0.76269642  1
  O  O383  1  0.62284766  0.25703826  0.26074762  1
  O  O384  1  0.62483064  0.26802163  0.74933018  1
  O  O385  1  0.61913826  0.75528247  0.25475662  1
  O  O386  1  0.61705845  0.75765723  0.75629730  1
  O  O387  1  0.37775423  0.24298754  0.24510429  1
  O  O388  1  0.37594577  0.24280818  0.74301117  1
  O  O389  1  0.37998228  0.74178852  0.24216505  1
  O  O390  1  0.38032475  0.74478122  0.74848313  1
  O  O391  1  0.88171550  0.24899849  0.24711828  1
  O  O392  1  0.87973601  0.24458883  0.74595383  1
  O  O393  1  0.87547812  0.72892612  0.25588611  1
  O  O394  1  0.88098530  0.75694450  0.73489478  1
  O  O395  1  0.37912017  0.49529600  0.49374379  1
  O  O396  1  0.37937538  0.49038783  0.98918186  1
  O  O397  1  0.38016157  0.99323419  0.49375669  1
  O  O398  1  0.39039952  1.00321000  1.00491606  1
  O  O399  1  0.88719732  0.49234059  0.50301694  1
  O  O400  1  0.87337226  0.48943271  0.99103213  1
  O  O401  1  0.86980448  0.98516571  0.49028400  1
  O  O402  1  0.87875302  0.99064707  0.99603362  1
  O  O403  1  0.11414810  0.00031996  0.00116042  1
  O  O404  1  0.12967106  0.01176432  0.50833953  1
  O  O405  1  0.12741674  0.48671088  -0.01020222  1
  O  O406  1  0.11316214  0.49941592  0.50488978  1
  O  O407  1  0.61667054  0.00702405  0.01191836  1
  O  O408  1  0.61922720  0.00576861  0.50120428  1
  O  O409  1  0.62233275  0.50268368  0.00768195  1
  O  O410  1  0.61418379  0.49601108  0.51051751  1
  O  O411  1  0.37628137  0.36346176  0.12184890  1
  O  O412  1  0.36661942  0.37198260  0.62228269  1
  O  O413  1  0.36607647  0.86322134  0.13167312  1
  O  O414  1  0.37881454  0.87383829  0.61160853  1
  O  O415  1  0.86834577  0.37220317  0.12084123  1
  O  O416  1  0.86913027  0.36776585  0.61924537  1
  O  O417  1  0.86968015  0.87461954  0.11659339  1
  O  O418  1  0.87361174  0.86925900  0.61884080  1
  O  O419  1  0.13014537  0.12835296  0.38314910  1
  O  O420  1  0.12866489  0.13496685  0.87257547  1
  O  O421  1  0.12988418  0.63268311  0.37376334  1
  O  O422  1  0.13774501  0.63135318  0.86634347  1
  O  O423  1  0.62933932  0.13140906  0.38191439  1
  O  O424  1  0.63940011  0.12166219  0.88240906  1
  O  O425  1  0.63283086  0.63618971  0.36715422  1
  O  O426  1  0.62863625  0.63656181  0.87683750  1
