# generated using pymatgen
data_V85Zn86O256
_symmetry_space_group_name_H-M   'P 1'
_cell_length_a   16.96359639
_cell_length_b   16.95977945
_cell_length_c   16.97127466
_cell_angle_alpha   90.00316341
_cell_angle_beta   89.96138099
_cell_angle_gamma   90.06691294
_symmetry_Int_Tables_number   1
_chemical_formula_structural   V85Zn86O256
_chemical_formula_sum   'V85 Zn86 O256'
_cell_volume   4882.61181475
_cell_formula_units_Z   1
loop_
 _symmetry_equiv_pos_site_id
 _symmetry_equiv_pos_as_xyz
  1  'x, y, z'
loop_
 _atom_site_type_symbol
 _atom_site_label
 _atom_site_symmetry_multiplicity
 _atom_site_fract_x
 _atom_site_fract_y
 _atom_site_fract_z
 _atom_site_occupancy
  V  V0  1  0.60808660  0.12653447  0.50719998  1
  V  V1  1  0.86315618  0.74394504  0.62847430  1
  V  V2  1  0.24639189  0.50121413  0.74987469  1
  V  V3  1  0.87588172  0.11944185  0.74925255  1
  V  V4  1  0.12296112  0.37647536  0.74831210  1
  V  V5  1  0.62349843  0.12232505  -0.00751059  1
  V  V6  1  0.87648391  -0.00373672  0.87910567  1
  V  V7  1  0.75641240  0.50835913  0.74852736  1
  V  V8  1  0.11187733  0.11449526  -0.00894175  1
  V  V9  1  0.62524754  -0.00696619  0.12113102  1
  V  V10  1  0.41612247  0.07249051  0.81298305  1
  V  V11  1  0.37688986  0.89905393  0.49591660  1
  V  V12  1  0.74141200  0.49213024  0.25419004  1
  V  V13  1  0.62697478  0.63604695  0.49993602  1
  V  V14  1  0.25271769  0.49634787  0.24988716  1
  V  V15  1  0.37584599  0.24203606  0.62779067  1
  V  V16  1  0.87622205  0.24747035  0.62432882  1
  V  V17  1  0.00579550  0.50088847  0.50918610  1
  V  V18  1  0.25212183  0.23782702  -0.00395720  1
  V  V19  1  0.38389709  0.25275165  0.13001586  1
  V  V20  1  0.75010645  0.12608546  0.37387724  1
  V  V21  1  0.74775520  0.37268904  0.11147980  1
  V  V22  1  0.37119477  0.75650590  0.12936330  1
  V  V23  1  -0.00059603  0.37666769  0.37623765  1
  V  V24  1  0.49627646  0.76025570  0.75394012  1
  V  V25  1  -0.00391278  0.25477585  0.24239452  1
  V  V26  1  0.25021088  0.62372619  0.87876458  1
  V  V27  1  0.87619870  0.62747236  0.25310052  1
  V  V28  1  0.50172514  0.37751613  0.87704481  1
  V  V29  1  0.63807356  0.86889717  0.74604477  1
  V  V30  1  0.12403966  0.12408239  0.50074093  1
  V  V31  1  0.00029110  0.12137385  0.62517458  1
  V  V32  1  0.74832443  0.24753152  0.49906272  1
  V  V33  1  0.24663348  0.01297965  0.76531575  1
  V  V34  1  0.49341443  0.25303764  0.74687474  1
  V  V35  1  0.49703684  0.89710995  0.37123765  1
  V  V36  1  0.62192682  0.25556559  0.36325821  1
  V  V37  1  0.50791957  0.50655027  -0.00211951  1
  V  V38  1  -0.00171202  -0.01057093  0.50339747  1
  V  V39  1  0.00032391  0.62571178  0.13121309  1
  V  V40  1  0.37750221  0.37693995  0.49971343  1
  V  V41  1  0.36864389  0.76015368  0.61860303  1
  V  V42  1  0.12470628  0.50007272  0.12659796  1
  V  V43  1  0.87503414  0.74888060  0.12344705  1
  V  V44  1  -0.00599449  0.37125959  0.88350036  1
  V  V45  1  0.86793006  0.12628295  0.23622689  1
  V  V46  1  0.87478524  0.87168267  0.00013925  1
  V  V47  1  0.87600253  0.37476790  0.50038307  1
  V  V48  1  0.61968248  0.76020563  0.37019365  1
  V  V49  1  0.12343717  0.61966481  0.00064459  1
  V  V50  1  0.12816210  0.62723967  0.50801979  1
  V  V51  1  0.13247910  0.87105690  0.74671639  1
  V  V52  1  0.13346310  -0.00625150  0.62560696  1
  V  V53  1  0.00088825  0.24920699  0.75029543  1
  V  V54  1  0.75090227  0.37490980  0.62577379  1
  V  V55  1  0.12485637  0.75027358  0.36036797  1
  V  V56  1  0.49766469  0.62678923  0.62510259  1
  V  V57  1  0.24874730  0.38176741  0.62536014  1
  V  V58  1  0.21300757  0.90631121  0.12778842  1
  V  V59  1  0.37884043  0.62607291  0.24828392  1
  V  V60  1  0.00271892  0.87655057  0.87553152  1
  V  V61  1  0.12505783  0.37578366  0.24938823  1
  V  V62  1  0.62646051  0.37470471  0.74866564  1
  V  V63  1  0.50961100  0.62855290  0.12089089  1
  V  V64  1  0.87629430  0.50410930  0.87920240  1
  V  V65  1  0.62532779  0.50108719  0.62411257  1
  V  V66  1  0.74783157  -0.00906627  0.24852024  1
  V  V67  1  0.12280410  0.24764257  0.37496957  1
  V  V68  1  0.37416536  0.62742689  0.74890701  1
  V  V69  1  0.38127806  0.87930800  -0.00595303  1
  V  V70  1  0.50374093  0.12736265  0.13103040  1
  V  V71  1  0.61840974  0.74433873  0.88111738  1
  V  V72  1  0.74713227  0.11953547  0.87021052  1
  V  V73  1  0.74455284  0.73683640  0.00134415  1
  V  V74  1  0.04353809  0.07671970  0.17064001  1
  V  V75  1  0.50375752  0.37655410  0.35872742  1
  V  V76  1  0.85336053  0.86963889  0.50582533  1
  V  V77  1  0.87373427  0.50323254  0.37779146  1
  V  V78  1  0.50219318  0.49856383  0.50028849  1
  V  V79  1  0.25244854  0.37538672  0.12103536  1
  V  V80  1  0.12209271  0.74588390  0.87273086  1
  V  V81  1  0.88034540  0.00099841  0.37385909  1
  V  V82  1  0.24881466  0.24992680  0.50005457  1
  V  V83  1  0.74946052  0.64075913  0.37701864  1
  V  V84  1  0.37691442  0.49806904  0.37438587  1
  Zn  Zn85  1  0.37745054  0.50227679  0.87636000  1
  Zn  Zn86  1  0.61993474  -0.00674616  0.61502233  1
  Zn  Zn87  1  -0.00810264  0.49345849  0.00577709  1
  Zn  Zn88  1  0.25055585  0.75528617  0.49710288  1
  Zn  Zn89  1  -0.00685598  0.74341282  0.74811093  1
  Zn  Zn90  1  0.37248312  0.10663537  0.25030123  1
  Zn  Zn91  1  0.62350623  0.49786092  0.12662976  1
  Zn  Zn92  1  0.74969730  0.62330865  0.87447706  1
  Zn  Zn93  1  0.37656413  0.37776320  -0.00262537  1
  Zn  Zn94  1  0.75959510  -0.01562114  0.73679118  1
  Zn  Zn95  1  0.74418938  0.87057985  0.12450820  1
  Zn  Zn96  1  0.75651456  0.25035711  -0.01059023  1
  Zn  Zn97  1  0.26473334  0.09910721  0.37649098  1
  Zn  Zn98  1  0.87946049  0.25900069  0.10977258  1
  Zn  Zn99  1  -0.00252479  0.62364944  0.63302333  1
  Zn  Zn100  1  0.00431237  0.86528864  0.37385015  1
  Zn  Zn101  1  0.24994164  0.75336577  0.00313721  1
  Zn  Zn102  1  0.62513544  0.24582995  0.86980421  1
  Zn  Zn103  1  0.25019078  0.62553165  0.37604234  1
  Zn  Zn104  1  0.13051919  0.24574995  0.87244711  1
  Zn  Zn105  1  0.50297814  0.75900976  0.24884183  1
  Zn  Zn106  1  0.49565200  0.00136726  -0.01611669  1
  Zn  Zn107  1  0.19084465  0.18725242  0.18391796  1
  Zn  Zn108  1  0.18727617  0.18834203  0.68622993  1
  Zn  Zn109  1  0.19316502  0.68647717  0.19109709  1
  Zn  Zn110  1  0.18554905  0.68611809  0.68532922  1
  Zn  Zn111  1  0.68759964  0.18673119  0.18132722  1
  Zn  Zn112  1  0.68916034  0.18585481  0.68824523  1
  Zn  Zn113  1  0.68997551  0.68832808  0.19318482  1
  Zn  Zn114  1  0.68669946  0.69064179  0.68623215  1
  Zn  Zn115  1  0.31278356  0.24716183  0.31226330  1
  Zn  Zn116  1  0.31417710  0.31412579  0.81593057  1
  Zn  Zn117  1  0.29939068  0.93106306  0.30220737  1
  Zn  Zn118  1  0.30699056  0.81231033  0.81087961  1
  Zn  Zn119  1  0.81282364  0.31292256  0.31201042  1
  Zn  Zn120  1  0.81419524  0.31141410  0.81449179  1
  Zn  Zn121  1  0.85799618  0.83838434  0.28716318  1
  Zn  Zn122  1  0.81205376  0.80402175  0.81583344  1
  Zn  Zn123  1  0.18712658  0.43911423  0.43678773  1
  Zn  Zn124  1  0.18434321  0.43534356  0.93572820  1
  Zn  Zn125  1  0.18772696  0.92304108  0.44763791  1
  Zn  Zn126  1  0.19002986  0.93543645  0.94195161  1
  Zn  Zn127  1  0.68692264  0.43868955  0.43680891  1
  Zn  Zn128  1  0.68466404  0.44164680  0.93500509  1
  Zn  Zn129  1  0.68276512  0.94362396  0.43583513  1
  Zn  Zn130  1  0.68734348  0.93128190  0.93107819  1
  Zn  Zn131  1  0.31482864  0.06227794  0.06806882  1
  Zn  Zn132  1  0.30712532  0.06593217  0.56964257  1
  Zn  Zn133  1  0.31992716  0.56218431  0.06163439  1
  Zn  Zn134  1  0.31205956  0.56385780  0.56349474  1
  Zn  Zn135  1  0.81269569  0.05927027  0.05801259  1
  Zn  Zn136  1  0.80598152  0.05714231  0.56395609  1
  Zn  Zn137  1  0.81160380  0.55748734  0.06480397  1
  Zn  Zn138  1  0.81096780  0.56591110  0.56070939  1
  Zn  Zn139  1  0.43752421  0.43895704  0.18213939  1
  Zn  Zn140  1  0.43426279  0.43742133  0.68831835  1
  Zn  Zn141  1  0.44406211  0.93978868  0.18454201  1
  Zn  Zn142  1  0.44458562  0.94108415  0.68345060  1
  Zn  Zn143  1  0.93110358  0.43989974  0.18825484  1
  Zn  Zn144  1  0.93536414  0.43796571  0.69120219  1
  Zn  Zn145  1  1.01804489  0.91562785  0.18405594  1
  Zn  Zn146  1  0.94040318  0.92815126  0.68727048  1
  Zn  Zn147  1  0.10680106  0.02756395  0.34120230  1
  Zn  Zn148  1  0.06318903  0.05991465  0.81562898  1
  Zn  Zn149  1  0.06217065  0.56591754  0.31823056  1
  Zn  Zn150  1  0.05993669  0.55910079  0.81071732  1
  Zn  Zn151  1  0.57038967  0.06910667  0.30829793  1
  Zn  Zn152  1  0.56941596  0.05640637  0.77702975  1
  Zn  Zn153  1  0.56194052  0.56748421  0.31358480  1
  Zn  Zn154  1  0.56392849  0.56603499  0.81018476  1
  Zn  Zn155  1  0.43904721  0.19210114  0.43606696  1
  Zn  Zn156  1  0.44170987  0.19444605  0.94427227  1
  Zn  Zn157  1  0.43960714  0.68919468  0.43513258  1
  Zn  Zn158  1  0.43485689  0.69005274  0.94049327  1
  Zn  Zn159  1  0.93918744  0.18369551  0.43489751  1
  Zn  Zn160  1  0.93554900  0.18667018  0.93717072  1
  Zn  Zn161  1  0.94006365  0.69135303  0.44490196  1
  Zn  Zn162  1  0.93867893  0.68350279  0.93641337  1
  Zn  Zn163  1  0.06881686  0.30770029  0.06008526  1
  Zn  Zn164  1  0.06381709  0.31453893  0.56580097  1
  Zn  Zn165  1  0.05790773  0.80264968  0.05414014  1
  Zn  Zn166  1  0.05890877  0.80690312  0.56680125  1
  Zn  Zn167  1  0.57165662  0.31217128  0.06029740  1
  Zn  Zn168  1  0.56266720  0.31054312  0.56139661  1
  Zn  Zn169  1  0.55707724  0.81419286  0.05714976  1
  Zn  Zn170  1  0.55435593  0.81548974  0.56081797  1
  O  O171  1  0.11441335  0.13193192  0.11666309  1
  O  O172  1  0.11945196  0.11773319  0.61914994  1
  O  O173  1  0.11885546  0.62025175  0.12122935  1
  O  O174  1  0.12460449  0.62195642  0.61180935  1
  O  O175  1  0.62239531  0.11828562  0.11137786  1
  O  O176  1  0.62575035  0.13799733  0.60689342  1
  O  O177  1  0.61220698  0.62532629  0.13332662  1
  O  O178  1  0.61900743  0.62193583  0.61758659  1
  O  O179  1  0.38855909  0.38328971  0.38344957  1
  O  O180  1  0.38966301  0.37993320  0.87565410  1
  O  O181  1  0.38354305  0.88861515  0.38619846  1
  O  O182  1  0.35593845  0.86842024  0.89827542  1
  O  O183  1  0.88071535  0.38031259  0.38192913  1
  O  O184  1  0.88601295  0.38447603  0.86776333  1
  O  O185  1  0.87392673  0.88490153  0.39505053  1
  O  O186  1  0.88079123  0.87703363  0.87869725  1
  O  O187  1  0.22068437  -0.00587502  0.36329523  1
  O  O188  1  0.24471578  0.00006402  0.86369821  1
  O  O189  1  0.25895588  0.49848039  0.36660215  1
  O  O190  1  0.25127870  0.50835614  0.86932671  1
  O  O191  1  0.75310993  0.00739750  0.36684736  1
  O  O192  1  0.76249786  0.00234278  0.87074674  1
  O  O193  1  0.75423618  0.50607726  0.36771908  1
  O  O194  1  0.75968350  0.49929553  0.86706890  1
  O  O195  1  0.24722816  0.49435608  0.12882348  1
  O  O196  1  0.25402488  0.48912963  0.63338931  1
  O  O197  1  0.23408650  1.00357275  0.12681156  1
  O  O198  1  0.23658022  1.00272205  0.63503576  1
  O  O199  1  0.74742379  0.49260546  0.13704776  1
  O  O200  1  0.74729231  0.49448557  0.63049098  1
  O  O201  1  0.74398389  0.99729933  0.12971466  1
  O  O202  1  0.73337682  1.00787076  0.63005032  1
  O  O203  1  0.00124351  0.37241760  0.25750547  1
  O  O204  1  0.00796865  0.37046695  0.75354162  1
  O  O205  1  -0.03589849  0.87448385  0.26753962  1
  O  O206  1  0.01350776  0.86963022  0.75865180  1
  O  O207  1  0.50398517  0.38715981  0.26008194  1
  O  O208  1  0.50583064  0.37159454  0.75553058  1
  O  O209  1  0.49674151  0.87599884  0.26795998  1
  O  O210  1  0.50236561  0.86157503  0.75426866  1
  O  O211  1  0.50326683  0.12575583  0.23359634  1
  O  O212  1  0.48327436  0.14055062  0.76614002  1
  O  O213  1  0.48966622  0.62390882  0.24241881  1
  O  O214  1  0.49214130  0.63177852  0.74325078  1
  O  O215  1  0.98844548  0.13625005  0.24056221  1
  O  O216  1  0.99559480  0.12809778  0.74496433  1
  O  O217  1  0.98896685  0.61658339  0.24309334  1
  O  O218  1  1.00920508  0.63012956  0.74589005  1
  O  O219  1  0.36440411  0.25514847  0.00687169  1
  O  O220  1  0.36665712  0.25870990  0.50691364  1
  O  O221  1  0.37243290  0.75869897  0.01056758  1
  O  O222  1  0.37429432  0.74649025  0.51188156  1
  O  O223  1  0.86974974  0.25004004  -0.00205898  1
  O  O224  1  0.86943429  0.25514133  0.50298066  1
  O  O225  1  0.86679129  0.74901755  0.00498845  1
  O  O226  1  0.87245300  0.76441127  0.50589849  1
  O  O227  1  0.13004689  0.24455450  0.49978235  1
  O  O228  1  0.13750053  0.24036436  0.99804173  1
  O  O229  1  0.12910192  0.73662095  0.50465492  1
  O  O230  1  0.12880165  0.73504785  0.99366181  1
  O  O231  1  0.63299469  0.24535665  0.49266712  1
  O  O232  1  0.63174390  0.23380552  0.99256194  1
  O  O233  1  0.61648670  0.74040763  0.49385209  1
  O  O234  1  0.63107461  0.75308753  0.99246642  1
  O  O235  1  0.49461302  0.24134485  0.10989570  1
  O  O236  1  0.49050856  0.25886951  0.63755156  1
  O  O237  1  0.49373813  0.74417808  0.12641097  1
  O  O238  1  0.48944586  0.74424775  0.63265737  1
  O  O239  1  0.99606027  0.26385601  0.13806324  1
  O  O240  1  0.99505230  0.24356668  0.63012906  1
  O  O241  1  0.99035571  0.73348903  0.12062582  1
  O  O242  1  0.98464199  0.74687041  0.62586108  1
  O  O243  1  0.00424218  0.25626205  0.36695586  1
  O  O244  1  0.00041150  0.25719431  0.86528011  1
  O  O245  1  0.01776422  0.74592331  0.38339357  1
  O  O246  1  0.00469530  0.75730296  0.87300508  1
  O  O247  1  0.51452147  0.26220640  0.37755038  1
  O  O248  1  0.50181617  0.26153021  0.86737059  1
  O  O249  1  0.50704897  0.75585746  0.37144848  1
  O  O250  1  0.50639243  0.74156598  0.86657553  1
  O  O251  1  0.24402868  0.13439211  0.49647883  1
  O  O252  1  0.24431732  0.13662060  1.00759010  1
  O  O253  1  0.23771825  0.62073366  0.49819648  1
  O  O254  1  0.24419497  0.62166665  0.99252518  1
  O  O255  1  0.75160087  0.13844650  0.49272556  1
  O  O256  1  0.74404193  0.12017019  0.98323915  1
  O  O257  1  0.73673970  0.61685680  0.48835532  1
  O  O258  1  0.75158718  0.63361774  1.00174810  1
  O  O259  1  0.24671159  0.37033398  0.01016663  1
  O  O260  1  0.25238899  0.37352406  0.51064968  1
  O  O261  1  0.24837283  0.87463798  0.02527307  1
  O  O262  1  0.27290484  0.87213005  0.50124938  1
  O  O263  1  0.74642317  0.37668609  0.00886081  1
  O  O264  1  0.75401364  0.36533256  0.50425333  1
  O  O265  1  0.76139558  0.86262576  -0.00100378  1
  O  O266  1  0.75552817  0.88089467  0.50218763  1
  O  O267  1  0.13101664  0.49591494  0.24622061  1
  O  O268  1  0.13840913  0.49117120  0.75470976  1
  O  O269  1  0.09431759  1.01081487  0.23010867  1
  O  O270  1  0.13173987  0.99401146  0.74589113  1
  O  O271  1  0.63954311  0.50682433  0.25188511  1
  O  O272  1  0.63131365  0.49332114  0.74229937  1
  O  O273  1  0.63811883  1.00858931  0.23634956  1
  O  O274  1  0.64267565  0.96981258  0.77405611  1
  O  O275  1  0.36831281  -0.00425908  0.24217829  1
  O  O276  1  0.36081408  0.00482487  0.75004567  1
  O  O277  1  0.37153967  0.50480160  0.25374820  1
  O  O278  1  0.36289433  0.50630736  0.75211007  1
  O  O279  1  0.86334792  0.01612526  0.25844839  1
  O  O280  1  0.87611824  -0.00121708  0.75811657  1
  O  O281  1  0.86500399  0.51066683  0.25779321  1
  O  O282  1  0.86563726  0.49585813  0.76049371  1
  O  O283  1  0.11666962  0.37124695  0.36910726  1
  O  O284  1  0.11677114  0.37254637  0.86336454  1
  O  O285  1  0.12233615  0.85624544  0.37895379  1
  O  O286  1  0.11902896  0.86786311  0.87383804  1
  O  O287  1  0.61952184  0.36396868  0.37977161  1
  O  O288  1  0.61705268  0.37463887  0.86601155  1
  O  O289  1  0.60859561  0.87066880  0.38657539  1
  O  O290  1  0.63096981  0.85224775  0.86464317  1
  O  O291  1  0.38525973  0.13543156  0.12620889  1
  O  O292  1  0.36868270  0.14286462  0.62552093  1
  O  O293  1  0.38607417  0.63154968  0.13010795  1
  O  O294  1  0.37914950  0.63276968  0.63064454  1
  O  O295  1  0.86117618  0.13356494  0.13396715  1
  O  O296  1  0.88082917  0.12773545  0.62987775  1
  O  O297  1  0.88069053  0.62681433  0.13192322  1
  O  O298  1  0.87710003  0.63988642  0.61476278  1
  O  O299  1  0.25787792  0.25843357  0.11445893  1
  O  O300  1  0.25286432  0.25969879  0.61674951  1
  O  O301  1  0.26786373  0.73781127  0.12128421  1
  O  O302  1  0.26653330  0.74789240  0.62566870  1
  O  O303  1  0.74884714  0.26498776  0.12284600  1
  O  O304  1  0.75696185  0.25404326  0.61741719  1
  O  O305  1  0.75487129  0.74974002  0.11903954  1
  O  O306  1  0.76266697  0.74393265  0.62046619  1
  O  O307  1  0.23786168  0.26905346  0.39440379  1
  O  O308  1  0.24999679  0.25824902  0.89263050  1
  O  O309  1  0.23113541  0.74200851  0.38046041  1
  O  O310  1  0.24222690  0.73634399  0.87711992  1
  O  O311  1  0.74168701  0.24949068  0.38195336  1
  O  O312  1  0.74602819  0.23725105  0.86952486  1
  O  O313  1  0.74096928  0.74078822  0.37411088  1
  O  O314  1  0.74443848  0.74216433  0.88486692  1
  O  O315  1  0.01270301  0.12605122  -0.00292871  1
  O  O316  1  0.00406456  0.11539620  0.50750339  1
  O  O317  1  0.00835619  0.61902474  0.00767182  1
  O  O318  1  0.01053658  0.61638238  0.50394392  1
  O  O319  1  0.50925183  0.11995042  0.00200021  1
  O  O320  1  0.50943590  0.13440597  0.50239887  1
  O  O321  1  0.49588515  0.61969496  0.00943726  1
  O  O322  1  0.50760196  0.61756256  0.50422413  1
  O  O323  1  0.49720975  0.38405202  0.49821434  1
  O  O324  1  0.50410746  0.38176420  0.99042518  1
  O  O325  1  0.48509160  0.87487438  0.48821313  1
  O  O326  1  0.48643254  0.87988491  0.99173634  1
  O  O327  1  0.99769200  0.38079491  0.49538988  1
  O  O328  1  1.00951436  0.37548377  0.98653305  1
  O  O329  1  0.99865874  0.88461671  0.50159293  1
  O  O330  1  0.98415901  0.86463958  0.98982053  1
  O  O331  1  0.49843623  0.49549400  0.38159040  1
  O  O332  1  0.50171637  0.49630816  0.87921031  1
  O  O333  1  0.50776086  0.99537993  0.37131773  1
  O  O334  1  0.48362506  1.01425837  0.86169020  1
  O  O335  1  0.99228099  0.49548331  0.38476742  1
  O  O336  1  0.98893196  0.49150089  0.87635404  1
  O  O337  1  1.00112764  0.99969460  0.39028051  1
  O  O338  1  0.99335254  0.98413461  0.87114018  1
  O  O339  1  -0.01459067  0.01357098  0.12147502  1
  O  O340  1  0.00888341  0.00293157  0.62186779  1
  O  O341  1  0.00328553  0.50733594  0.12442072  1
  O  O342  1  -0.00692404  0.49809949  0.61186431  1
  O  O343  1  0.51117166  0.00929793  0.11799606  1
  O  O344  1  0.52513035  0.01621578  0.67427454  1
  O  O345  1  0.50278957  0.50899573  0.11651025  1
  O  O346  1  0.50460123  0.50617364  0.62131396  1
  O  O347  1  0.24313457  0.37901720  0.23450092  1
  O  O348  1  0.24452035  0.38112443  0.74604791  1
  O  O349  1  0.24438900  0.87134951  0.21594284  1
  O  O350  1  0.23730932  0.88544991  0.75463236  1
  O  O351  1  0.75101448  0.39058297  0.25357482  1
  O  O352  1  0.74442545  0.38048691  0.74399239  1
  O  O353  1  0.75979166  0.88808348  0.24669139  1
  O  O354  1  0.74031786  0.86026551  0.74369237  1
  O  O355  1  0.25742862  0.15134754  0.26400945  1
  O  O356  1  0.24220444  0.11278319  0.75202053  1
  O  O357  1  0.26426415  0.61471938  0.24964353  1
  O  O358  1  0.25167898  0.61766008  0.75632320  1
  O  O359  1  0.75380509  0.12354826  0.25585911  1
  O  O360  1  0.75778513  0.12256898  0.75802993  1
  O  O361  1  0.75628783  0.61580554  0.25930817  1
  O  O362  1  0.74523200  0.61060985  0.74816884  1
  O  O363  1  0.36863830  0.15006674  0.36264076  1
  O  O364  1  0.36844910  0.12525419  0.88181688  1
  O  O365  1  0.37647220  0.61727512  0.36584276  1
  O  O366  1  0.36515622  0.62611215  0.86826053  1
  O  O367  1  0.86779482  0.12045463  0.36948021  1
  O  O368  1  0.87167618  0.11264221  0.86833068  1
  O  O369  1  0.86831193  0.62508922  0.37196602  1
  O  O370  1  0.87363254  0.60890594  0.87452627  1
  O  O371  1  0.13088464  0.38159136  0.12892941  1
  O  O372  1  0.13362447  0.37174376  0.63871810  1
  O  O373  1  0.10985887  0.87970138  0.12140272  1
  O  O374  1  0.12058247  0.88184055  0.63440907  1
  O  O375  1  0.64056938  0.37876843  0.12629672  1
  O  O376  1  0.63212343  0.38043894  0.62814304  1
  O  O377  1  0.62441324  0.88860186  0.11714363  1
  O  O378  1  0.61606013  0.87057205  0.64216525  1
  O  O379  1  0.11426816  0.25743047  0.25331182  1
  O  O380  1  0.11949254  0.25691735  0.75140567  1
  O  O381  1  0.12262312  0.74019033  0.26076841  1
  O  O382  1  0.12949479  0.75710297  0.75646514  1
  O  O383  1  0.63108990  0.24593223  0.26529712  1
  O  O384  1  0.61468195  0.25748745  0.74708682  1
  O  O385  1  0.62390951  0.74882188  0.26585319  1
  O  O386  1  0.61578318  0.75356410  0.75452790  1
  O  O387  1  0.38531744  0.26772387  0.22947777  1
  O  O388  1  0.38208702  0.26218556  0.74053645  1
  O  O389  1  0.38003199  0.74054380  0.23632233  1
  O  O390  1  0.37830495  0.74913958  0.74230002  1
  O  O391  1  0.88218361  0.24260396  0.25268278  1
  O  O392  1  0.88181559  0.24252018  0.74319353  1
  O  O393  1  0.86479726  0.73358356  0.23805056  1
  O  O394  1  0.87404631  0.75605703  0.73298934  1
  O  O395  1  0.38173172  0.49750057  0.49487695  1
  O  O396  1  0.38968548  0.49772622  0.99603531  1
  O  O397  1  0.37440893  0.99736485  0.50781778  1
  O  O398  1  0.37479409  0.98350090  1.00953134  1
  O  O399  1  0.87968665  0.49389700  0.49481354  1
  O  O400  1  0.87348543  0.49866970  0.98478098  1
  O  O401  1  0.88117216  0.99334890  0.49818241  1
  O  O402  1  0.87152520  0.98736338  0.98791990  1
  O  O403  1  0.12797729  0.01575584  -0.00319861  1
  O  O404  1  0.11943801  0.00120078  0.51003159  1
  O  O405  1  0.12381841  0.50815531  0.00680352  1
  O  O406  1  0.11561984  0.51000630  0.49421250  1
  O  O407  1  0.62429924  0.00637071  -0.00026207  1
  O  O408  1  0.62457096  0.02224526  0.49798645  1
  O  O409  1  0.61303500  0.50127205  0.00176370  1
  O  O410  1  0.62009291  0.50684242  0.50620064  1
  O  O411  1  0.36763085  0.37327118  0.11729692  1
  O  O412  1  0.36568039  0.37136711  0.61863486  1
  O  O413  1  0.38503056  0.85931160  0.11779697  1
  O  O414  1  0.38662944  0.86758128  0.61302223  1
  O  O415  1  0.85379450  0.37582960  0.13386141  1
  O  O416  1  0.86994434  0.36814939  0.61958332  1
  O  O417  1  0.87477447  0.85618208  0.11533884  1
  O  O418  1  0.87573565  0.86845930  0.61153538  1
  O  O419  1  0.12307524  0.13397314  0.38753341  1
  O  O420  1  0.12254349  0.12832546  0.88568973  1
  O  O421  1  0.12570661  0.63048668  0.38766284  1
  O  O422  1  0.13051242  0.62340111  0.88449651  1
  O  O423  1  0.62931226  0.13875134  0.38442973  1
  O  O424  1  0.63273201  0.11930056  0.87241086  1
  O  O425  1  0.62938810  0.63319619  0.38255565  1
  O  O426  1  0.63027581  0.63839722  0.86840426  1
