# generated using pymatgen
data_V85Zn86O256
_symmetry_space_group_name_H-M   'P 1'
_cell_length_a   16.92710960
_cell_length_b   16.93874892
_cell_length_c   16.93322825
_cell_angle_alpha   90.00944511
_cell_angle_beta   90.00383042
_cell_angle_gamma   90.02622056
_symmetry_Int_Tables_number   1
_chemical_formula_structural   V85Zn86O256
_chemical_formula_sum   'V85 Zn86 O256'
_cell_volume   4855.16335864
_cell_formula_units_Z   1
loop_
 _symmetry_equiv_pos_site_id
 _symmetry_equiv_pos_as_xyz
  1  'x, y, z'
loop_
 _atom_site_type_symbol
 _atom_site_label
 _atom_site_symmetry_multiplicity
 _atom_site_fract_x
 _atom_site_fract_y
 _atom_site_fract_z
 _atom_site_occupancy
  V  V0  1  0.75156102  0.62544774  0.37452093  1
  V  V1  1  0.87791166  0.25162538  0.12747955  1
  V  V2  1  0.87609486  0.12313651  0.74577244  1
  V  V3  1  0.89017219  0.37726978  -0.00868467  1
  V  V4  1  0.24095955  0.74702614  0.50171299  1
  V  V5  1  0.38490151  0.50084601  0.38074582  1
  V  V6  1  0.11798828  0.50229004  0.60643667  1
  V  V7  1  0.63477990  0.87986752  0.25329855  1
  V  V8  1  0.37333944  0.37461974  0.00242575  1
  V  V9  1  0.61794007  0.61735765  0.50102837  1
  V  V10  1  0.50260344  0.01109629  0.50956769  1
  V  V11  1  0.37708190  0.87688916  0.00401479  1
  V  V12  1  0.24770834  0.37413926  0.62355216  1
  V  V13  1  0.61627950  0.37004011  0.24685207  1
  V  V14  1  -0.00485933  0.62534610  0.60952977  1
  V  V15  1  0.63859768  0.13085471  0.50736446  1
  V  V16  1  0.74675379  0.13111788  0.86934067  1
  V  V17  1  0.00349974  0.25851823  0.24701463  1
  V  V18  1  0.62406649  0.24744348  0.37230652  1
  V  V19  1  0.63239255  0.74478366  0.87240757  1
  V  V20  1  0.36815825  0.62486537  0.75312289  1
  V  V21  1  0.50543998  0.36386189  0.87309897  1
  V  V22  1  0.38710719  0.37732941  0.50415257  1
  V  V23  1  0.62599588  0.75189218  0.37728896  1
  V  V24  1  0.89070343  0.50351137  0.87458037  1
  V  V25  1  0.75245288  0.74809301  0.00592498  1
  V  V26  1  0.00579847  0.87361919  0.87014358  1
  V  V27  1  -0.00388741  0.75012185  0.24788152  1
  V  V28  1  0.25307518  0.00239755  0.25286105  1
  V  V29  1  0.87764978  0.50089909  0.38062603  1
  V  V30  1  0.24971931  0.24649186  0.00245870  1
  V  V31  1  0.38280300  0.24423347  0.63059145  1
  V  V32  1  0.50126940  0.87144080  0.87650056  1
  V  V33  1  0.11576390  0.25297786  0.87589557  1
  V  V34  1  0.00655037  0.75133003  0.74390723  1
  V  V35  1  0.12097595  0.12569462  0.00515183  1
  V  V36  1  0.49821941  0.62470117  0.12363763  1
  V  V37  1  0.50087770  0.13127935  0.13391384  1
  V  V38  1  0.02015403  0.61594708  0.11516264  1
  V  V39  1  0.25001536  0.87852738  0.12890373  1
  V  V40  1  0.62433259  0.13420058  -0.00629265  1
  V  V41  1  0.24122317  0.62395155  0.37938954  1
  V  V42  1  0.75276535  0.37579870  0.12102214  1
  V  V43  1  0.24763709  0.12648682  0.37932368  1
  V  V44  1  0.74935036  0.37327043  0.61633949  1
  V  V45  1  0.87328687  0.63173031  0.74822479  1
  V  V46  1  0.12590179  0.25468357  0.37285173  1
  V  V47  1  0.23651132  0.37613179  0.12994481  1
  V  V48  1  0.37492185  0.49916483  0.87346295  1
  V  V49  1  0.37711643  0.00272341  0.37767557  1
  V  V50  1  -0.05917653  0.08436422  0.18577433  1
  V  V51  1  0.88157925  0.88035834  0.49657055  1
  V  V52  1  0.23992496  0.75798841  -0.00265403  1
  V  V53  1  0.24695313  0.24682713  0.50262261  1
  V  V54  1  0.23774662  0.49463226  0.25149128  1
  V  V55  1  0.75624385  0.12381025  0.35583951  1
  V  V56  1  0.11400446  0.37713863  0.75054535  1
  V  V57  1  0.74856930  0.50029715  0.75744874  1
  V  V58  1  0.37409707  0.75025598  0.12519541  1
  V  V59  1  0.62773772  0.87311383  0.74494973  1
  V  V60  1  0.00460492  0.38051779  0.38014143  1
  V  V61  1  0.01521692  0.12068673  0.62086159  1
  V  V62  1  0.87545193  0.24755735  0.61354218  1
  V  V63  1  0.01085231  0.00275209  0.49406608  1
  V  V64  1  0.75591230  0.75302568  0.50861528  1
  V  V65  1  0.50141516  0.87738688  0.37742877  1
  V  V66  1  0.24550230  0.50277727  0.74428986  1
  V  V67  1  0.49812255  0.74564272  0.75092833  1
  V  V68  1  0.62497496  0.50127341  0.12426559  1
  V  V69  1  0.22402788  0.59392962  0.91526196  1
  V  V70  1  0.23596421  -0.00262604  0.74768798  1
  V  V71  1  0.62761902  0.62430465  -0.00570329  1
  V  V72  1  0.87464570  0.86968507  0.00097714  1
  V  V73  1  0.37247986  0.75071898  0.62674225  1
  V  V74  1  0.75197939  0.49978928  0.24804891  1
  V  V75  1  0.12276645  0.87386975  0.26032723  1
  V  V76  1  0.37343035  0.62295368  0.25105506  1
  V  V77  1  0.12233744  0.00531649  0.12946918  1
  V  V78  1  0.37598813  0.87593159  0.50320955  1
  V  V79  1  0.37365050  0.00052520  0.87214072  1
  V  V80  1  0.23323280  0.87707076  0.62864739  1
  V  V81  1  0.87380979  0.62789478  0.23496548  1
  V  V82  1  -0.00377526  0.00473679  -0.00070222  1
  V  V83  1  0.50279661  -0.00015726  0.00207209  1
  V  V84  1  0.63273199  0.00010322  0.12716450  1
  Zn  Zn85  1  0.11767968  0.74873496  0.37993128  1
  Zn  Zn86  1  0.75508216  0.87402861  0.12943532  1
  Zn  Zn87  1  -0.00150635  0.25131692  0.74833420  1
  Zn  Zn88  1  0.49844730  0.50039902  -0.00269902  1
  Zn  Zn89  1  0.87390960  -0.00055875  0.87145397  1
  Zn  Zn90  1  0.75014648  -0.00136881  0.74853257  1
  Zn  Zn91  1  0.61853104  0.49417987  0.62480404  1
  Zn  Zn92  1  0.87611931  0.37512398  0.49674049  1
  Zn  Zn93  1  0.62498745  0.00599714  0.62978723  1
  Zn  Zn94  1  0.24807664  0.12544696  0.87279705  1
  Zn  Zn95  1  0.75950894  0.87534907  0.62827712  1
  Zn  Zn96  1  0.49971269  0.75189901  0.25190776  1
  Zn  Zn97  1  0.38173042  0.13587380  0.25796220  1
  Zn  Zn98  1  0.51695150  0.23315583  0.75103863  1
  Zn  Zn99  1  0.62989111  0.36956943  0.75362676  1
  Zn  Zn100  1  0.75012780  0.25436255  -0.00661633  1
  Zn  Zn101  1  0.37864776  0.25565638  0.13343739  1
  Zn  Zn102  1  0.37713456  0.11825863  0.74376951  1
  Zn  Zn103  1  0.12720906  0.74857423  0.87112750  1
  Zn  Zn104  1  0.49989860  0.36997506  0.37277115  1
  Zn  Zn105  1  0.49222951  0.61549948  0.62028389  1
  Zn  Zn106  1  0.87435988  0.00277964  0.36452057  1
  Zn  Zn107  1  0.18893218  0.18810267  0.19100568  1
  Zn  Zn108  1  0.19154009  0.18726236  0.69216971  1
  Zn  Zn109  1  0.18727831  0.68892124  0.18822690  1
  Zn  Zn110  1  0.18032316  0.68383211  0.68232783  1
  Zn  Zn111  1  0.68717510  0.19152044  0.18337974  1
  Zn  Zn112  1  0.69004923  0.19321519  0.68831037  1
  Zn  Zn113  1  0.68587315  0.68925152  0.18815829  1
  Zn  Zn114  1  0.68869870  0.68369915  0.68557786  1
  Zn  Zn115  1  0.31655463  0.31369651  0.31328731  1
  Zn  Zn116  1  0.30711083  0.31419312  0.81291751  1
  Zn  Zn117  1  0.31169184  0.81146691  0.31534619  1
  Zn  Zn118  1  0.30879053  0.81752889  0.81309218  1
  Zn  Zn119  1  0.81110913  0.30970946  0.31174722  1
  Zn  Zn120  1  0.81454028  0.31082674  0.80714202  1
  Zn  Zn121  1  0.81647201  0.81210545  0.31831542  1
  Zn  Zn122  1  0.81456208  0.81189670  0.81765720  1
  Zn  Zn123  1  0.19349695  0.43199976  0.43362710  1
  Zn  Zn124  1  0.18384400  0.42763954  0.93892323  1
  Zn  Zn125  1  0.19008817  0.93590341  0.44114531  1
  Zn  Zn126  1  0.18446165  0.93867773  0.93768496  1
  Zn  Zn127  1  0.68887526  0.43577353  0.43348981  1
  Zn  Zn128  1  0.69019418  0.44019235  0.93761931  1
  Zn  Zn129  1  0.69380367  0.94465693  0.43960993  1
  Zn  Zn130  1  0.68974855  0.94012844  0.93334362  1
  Zn  Zn131  1  0.31422494  0.06394951  0.06462455  1
  Zn  Zn132  1  0.30846669  0.06242306  0.56440265  1
  Zn  Zn133  1  0.29931267  0.55767713  0.06357631  1
  Zn  Zn134  1  0.31102651  0.56249085  0.56181793  1
  Zn  Zn135  1  0.80714709  0.06058684  0.05424390  1
  Zn  Zn136  1  0.81208374  0.05658070  0.56442056  1
  Zn  Zn137  1  0.81369184  0.56127172  0.05470220  1
  Zn  Zn138  1  0.80838926  0.56221286  0.56495178  1
  Zn  Zn139  1  0.43300022  0.44087103  0.18686285  1
  Zn  Zn140  1  0.43963086  0.43525260  0.68792516  1
  Zn  Zn141  1  0.44346102  0.94168572  0.19202165  1
  Zn  Zn142  1  0.43762400  0.93536414  0.68940908  1
  Zn  Zn143  1  0.94220359  0.44045032  0.18825671  1
  Zn  Zn144  1  0.93458249  0.44163133  0.68239653  1
  Zn  Zn145  1  0.93683120  0.91994280  0.18532375  1
  Zn  Zn146  1  0.93961134  0.93783745  0.68138270  1
  Zn  Zn147  1  0.06865510  0.06414473  0.32080649  1
  Zn  Zn148  1  0.05945812  0.06704253  0.81577488  1
  Zn  Zn149  1  0.05743821  0.56639355  0.31030594  1
  Zn  Zn150  1  0.06093624  0.56532141  0.80430827  1
  Zn  Zn151  1  0.56855548  0.06113619  0.31678940  1
  Zn  Zn152  1  0.56041677  0.06077745  0.81176158  1
  Zn  Zn153  1  0.56317266  0.56263917  0.31119815  1
  Zn  Zn154  1  0.55967732  0.55881549  0.80888369  1
  Zn  Zn155  1  0.44084703  0.19030292  0.44016928  1
  Zn  Zn156  1  0.43452261  0.18410588  0.94096980  1
  Zn  Zn157  1  0.43454910  0.68982399  0.43747770  1
  Zn  Zn158  1  0.43196891  0.68567622  0.93734978  1
  Zn  Zn159  1  0.93879143  0.18417839  0.43586918  1
  Zn  Zn160  1  0.93388833  0.18759464  0.93650387  1
  Zn  Zn161  1  0.93237653  0.69137241  0.43003429  1
  Zn  Zn162  1  0.94032769  0.68571626  0.93623924  1
  Zn  Zn163  1  0.06131387  0.31314495  0.06440888  1
  Zn  Zn164  1  0.06188863  0.31033385  0.55979011  1
  Zn  Zn165  1  0.05870411  0.81310135  0.06922221  1
  Zn  Zn166  1  0.05417620  0.81200975  0.56150187  1
  Zn  Zn167  1  0.56182817  0.31361951  0.05939306  1
  Zn  Zn168  1  0.56613483  0.30753500  0.56365733  1
  Zn  Zn169  1  0.56537701  0.81102211  0.06491665  1
  Zn  Zn170  1  0.56036549  0.80832803  0.56248616  1
  O  O171  1  0.12930214  0.11733033  0.11892770  1
  O  O172  1  0.11349395  0.12975344  0.62739446  1
  O  O173  1  0.12048988  0.62246261  0.12514701  1
  O  O174  1  0.10851630  0.61505248  0.62333716  1
  O  O175  1  0.61810018  0.11910798  0.11827904  1
  O  O176  1  0.63041025  0.12723223  0.61127064  1
  O  O177  1  0.61557419  0.62237532  0.11895259  1
  O  O178  1  0.62404429  0.62494492  0.60889524  1
  O  O179  1  0.37764798  0.38356103  0.38492166  1
  O  O180  1  0.37726209  0.37935608  0.88471078  1
  O  O181  1  0.38004304  0.88119285  0.38242485  1
  O  O182  1  0.37966647  0.88333505  0.88329484  1
  O  O183  1  0.88023410  0.38303419  0.37366219  1
  O  O184  1  0.87397725  0.38019729  0.88552432  1
  O  O185  1  0.86991892  0.88477011  0.38807423  1
  O  O186  1  0.88519013  0.87709266  0.88463945  1
  O  O187  1  0.25608010  0.00837125  0.37530329  1
  O  O188  1  0.25554354  -0.00363972  0.86542703  1
  O  O189  1  0.25965135  0.50484427  0.36693319  1
  O  O190  1  0.25797605  0.49620724  0.86137542  1
  O  O191  1  0.75182317  0.01790907  0.37207776  1
  O  O192  1  0.75434911  0.01270316  0.87077670  1
  O  O193  1  0.75526381  0.50533825  0.36576365  1
  O  O194  1  0.75899494  0.49454392  0.86082927  1
  O  O195  1  0.25614936  0.49146707  0.14483475  1
  O  O196  1  0.24179687  0.49472611  0.62820415  1
  O  O197  1  0.24576691  0.99667857  0.13327593  1
  O  O198  1  0.25300724  0.99208367  0.63787450  1
  O  O199  1  0.74504675  0.49402744  0.12661058  1
  O  O200  1  0.74868035  0.48876602  0.63425493  1
  O  O201  1  0.73655882  0.99652737  0.12004684  1
  O  O202  1  0.74297707  0.99301506  0.62942625  1
  O  O203  1  -0.00266930  0.36425376  0.25901205  1
  O  O204  1  0.01107948  0.37362255  0.74165160  1
  O  O205  1  0.00951217  0.86276063  0.24803497  1
  O  O206  1  -0.01106642  0.86377064  0.75658290  1
  O  O207  1  0.51322722  0.38325632  0.24767827  1
  O  O208  1  0.49706467  0.37048287  0.76739514  1
  O  O209  1  0.51013846  0.87321537  0.26061138  1
  O  O210  1  0.50556947  0.86513194  0.75682720  1
  O  O211  1  0.50375974  0.11857441  0.23644035  1
  O  O212  1  0.48843534  0.12489679  0.75835058  1
  O  O213  1  0.49219073  0.62699122  0.24286796  1
  O  O214  1  0.48705888  0.63134449  0.75335590  1
  O  O215  1  1.00404070  0.13646775  0.25186766  1
  O  O216  1  0.99552119  0.12544876  0.73726821  1
  O  O217  1  0.99180741  0.63021383  0.23844418  1
  O  O218  1  0.99152868  0.63308560  0.74178964  1
  O  O219  1  0.36570233  0.25580675  0.00556853  1
  O  O220  1  0.37094261  0.25707815  0.51104380  1
  O  O221  1  0.37311959  0.76285940  0.00634197  1
  O  O222  1  0.36638800  0.75470963  0.50903355  1
  O  O223  1  0.87727222  0.26303054  0.00707649  1
  O  O224  1  0.87834867  0.25064995  0.51012047  1
  O  O225  1  0.86263091  0.75528587  -0.01087370  1
  O  O226  1  0.86651129  0.76401666  0.48987792  1
  O  O227  1  0.13548269  0.25535473  0.48773367  1
  O  O228  1  0.12911511  0.24677368  0.99550461  1
  O  O229  1  0.13689466  0.75675147  0.49802703  1
  O  O230  1  0.13741078  0.75862627  1.00214068  1
  O  O231  1  0.62461554  0.23710247  0.49237475  1
  O  O232  1  0.62756094  0.23776824  1.00250678  1
  O  O233  1  0.63161747  0.74515894  0.49086186  1
  O  O234  1  0.62810870  0.74313259  0.99201066  1
  O  O235  1  0.50146052  0.23422144  0.11951437  1
  O  O236  1  0.48546350  0.25672348  0.63121354  1
  O  O237  1  0.49430947  0.73945631  0.12737141  1
  O  O238  1  0.48875766  0.74504553  0.63190206  1
  O  O239  1  0.99414177  0.25204321  0.13401917  1
  O  O240  1  0.99499772  0.23809843  0.62367467  1
  O  O241  1  1.00639902  0.73817742  0.13921167  1
  O  O242  1  1.00037650  0.73681097  0.62981757  1
  O  O243  1  0.00788721  0.25490786  0.36958146  1
  O  O244  1  0.01188035  0.24589848  0.87191618  1
  O  O245  1  0.00516996  0.73833672  0.35618839  1
  O  O246  1  0.00341590  0.75551885  0.86593587  1
  O  O247  1  0.51654022  0.25039920  0.37578229  1
  O  O248  1  0.49183316  0.26223859  0.87844822  1
  O  O249  1  0.50749259  0.75872381  0.37644386  1
  O  O250  1  0.50541146  0.75360763  0.87123434  1
  O  O251  1  0.25443189  0.13791988  0.49501276  1
  O  O252  1  0.24414291  0.13399821  1.00222110  1
  O  O253  1  0.25489948  0.63495460  0.49168314  1
  O  O254  1  0.26983303  0.64945325  0.99914348  1
  O  O255  1  0.73937830  0.12194383  0.49449845  1
  O  O256  1  0.74087878  0.12844829  0.99062952  1
  O  O257  1  0.74333436  0.63359382  0.49463820  1
  O  O258  1  0.73615449  0.63103607  1.00233644  1
  O  O259  1  0.25594100  0.36480280  0.00833962  1
  O  O260  1  0.26017676  0.36357165  0.50377417  1
  O  O261  1  0.25678212  0.87502044  0.00848447  1
  O  O262  1  0.25800337  0.86960504  0.50881379  1
  O  O263  1  0.75583053  0.37514691  0.00900736  1
  O  O264  1  0.75368898  0.38139255  0.51268449  1
  O  O265  1  0.75691199  0.86711252  -0.00270031  1
  O  O266  1  0.75704824  0.86903023  0.50081479  1
  O  O267  1  0.13989307  0.50209984  0.25742479  1
  O  O268  1  0.13011032  0.49391668  0.74211626  1
  O  O269  1  0.13053992  0.99476429  0.24878290  1
  O  O270  1  0.13747759  1.00355740  0.75617817  1
  O  O271  1  0.63276467  0.49583466  0.24305605  1
  O  O272  1  0.63774110  0.49508161  0.75140991  1
  O  O273  1  0.62115818  0.99026385  0.24190656  1
  O  O274  1  0.62418003  0.98614757  0.75011102  1
  O  O275  1  0.37131937  0.00318995  0.26171265  1
  O  O276  1  0.36789299  -0.00425326  0.75981794  1
  O  O277  1  0.36966567  0.51007424  0.25812456  1
  O  O278  1  0.36524205  0.50247152  0.75520578  1
  O  O279  1  0.89130977  0.00990217  0.24263049  1
  O  O280  1  0.87679461  0.01232314  0.74774505  1
  O  O281  1  0.86819171  0.50717874  0.25463384  1
  O  O282  1  0.86942768  0.50430603  0.75953408  1
  O  O283  1  0.11829543  0.36803581  0.37417626  1
  O  O284  1  0.12731126  0.36696739  0.86472192  1
  O  O285  1  0.13200662  0.87307270  0.36343686  1
  O  O286  1  0.10936813  0.87353743  0.87979065  1
  O  O287  1  0.62603166  0.36765596  0.36493575  1
  O  O288  1  0.60731682  0.38086326  0.88065256  1
  O  O289  1  0.62319246  0.87062045  0.37247391  1
  O  O290  1  0.62027888  0.86528241  0.86674685  1
  O  O291  1  0.39284983  0.12244016  0.12588223  1
  O  O292  1  0.37190973  0.14130152  0.62240367  1
  O  O293  1  0.37935698  0.62673956  0.13225546  1
  O  O294  1  0.37129400  0.63623188  0.63113014  1
  O  O295  1  0.87333328  0.13381747  0.11938102  1
  O  O296  1  0.87910553  0.13123393  0.62854785  1
  O  O297  1  0.87050247  0.62238525  0.13365781  1
  O  O298  1  0.88620802  0.61589321  0.63386785  1
  O  O299  1  0.24946733  0.25768817  0.11833901  1
  O  O300  1  0.25395290  0.25483442  0.61831373  1
  O  O301  1  0.25649520  0.75944326  0.12109500  1
  O  O302  1  0.25289115  0.75477862  0.62072284  1
  O  O303  1  0.75951264  0.25919992  0.12071239  1
  O  O304  1  0.76053951  0.26571977  0.62796925  1
  O  O305  1  0.73924083  0.75420499  0.10971068  1
  O  O306  1  0.74753270  0.75137682  0.61164680  1
  O  O307  1  0.24588468  0.24619146  0.38176712  1
  O  O308  1  0.24181488  0.24947022  0.88689310  1
  O  O309  1  0.25084908  0.74069343  0.38453070  1
  O  O310  1  0.24575972  0.75693004  0.88630729  1
  O  O311  1  0.73902438  0.23883567  0.36910884  1
  O  O312  1  0.75794908  0.23666965  0.87609283  1
  O  O313  1  0.74205600  0.74397273  0.38208023  1
  O  O314  1  0.73616080  0.75013892  0.88298564  1
  O  O315  1  0.00271010  0.11243719  -0.00434972  1
  O  O316  1  -0.00084174  0.11596639  0.51070607  1
  O  O317  1  -0.00096102  0.63203089  0.01703303  1
  O  O318  1  -0.00943290  0.63147589  0.51081346  1
  O  O319  1  0.50756060  0.11859778  0.00626754  1
  O  O320  1  0.51241572  0.11698916  0.49535573  1
  O  O321  1  0.50587572  0.62443335  0.00709218  1
  O  O322  1  0.51447823  0.63188082  0.49858981  1
  O  O323  1  0.49001485  0.37049949  0.49898824  1
  O  O324  1  0.49054099  0.37750098  0.99247208  1
  O  O325  1  0.49549423  0.88036614  0.49472183  1
  O  O326  1  0.49698214  0.87933348  0.99745164  1
  O  O327  1  0.99681381  0.37219124  0.48468068  1
  O  O328  1  0.98851218  0.37836720  1.00190721  1
  O  O329  1  0.99243547  0.88767961  0.49978759  1
  O  O330  1  0.99412184  0.88267812  0.99704601  1
  O  O331  1  0.48812216  0.49891039  0.37192658  1
  O  O332  1  0.48576809  0.49201831  0.87453571  1
  O  O333  1  0.49628745  0.99554594  0.38504687  1
  O  O334  1  0.49226412  0.99057710  0.88322906  1
  O  O335  1  0.99075373  0.49231824  0.36609347  1
  O  O336  1  0.98954695  0.49832954  0.86850691  1
  O  O337  1  0.99460008  1.01216858  0.38986935  1
  O  O338  1  0.99792014  0.99339940  0.88310579  1
  O  O339  1  -0.00032193  0.00890749  0.12398079  1
  O  O340  1  -0.00051483  0.01360361  0.61410265  1
  O  O341  1  -0.00007492  0.51640805  0.12812975  1
  O  O342  1  0.00573371  0.51208770  0.62400560  1
  O  O343  1  0.50993090  0.00794603  0.11960196  1
  O  O344  1  0.50303278  -0.00704585  0.61310498  1
  O  O345  1  0.50342273  0.51161377  0.12243297  1
  O  O346  1  0.50521555  0.50371553  0.63143690  1
  O  O347  1  0.25275828  0.38695688  0.24593110  1
  O  O348  1  0.24148569  0.38510066  0.74295515  1
  O  O349  1  0.24563958  0.88202098  0.24754818  1
  O  O350  1  0.24957233  0.88688828  0.74222957  1
  O  O351  1  0.74501346  0.37998582  0.23672501  1
  O  O352  1  0.75399074  0.38632245  0.74134467  1
  O  O353  1  0.73888108  0.86767973  0.24929281  1
  O  O354  1  0.74271698  0.87204106  0.75028586  1
  O  O355  1  0.25328257  0.11711421  0.25984062  1
  O  O356  1  0.25624698  0.11111833  0.75186570  1
  O  O357  1  0.25661793  0.61695428  0.25605838  1
  O  O358  1  0.25075155  0.61196037  0.74412706  1
  O  O359  1  0.74713788  0.12585985  0.25654655  1
  O  O360  1  0.75831266  0.12335395  0.75373546  1
  O  O361  1  0.75462984  0.62170249  0.25337884  1
  O  O362  1  0.75799029  0.60958013  0.74139609  1
  O  O363  1  0.36666782  0.12134427  0.37846914  1
  O  O364  1  0.36867443  0.10837192  0.88287039  1
  O  O365  1  0.36864026  0.61987971  0.36942458  1
  O  O366  1  0.36188577  0.61313131  0.87290327  1
  O  O367  1  0.86001295  0.12851931  0.37322942  1
  O  O368  1  0.87019891  0.12362581  0.86409648  1
  O  O369  1  0.86885379  0.61810755  0.36316280  1
  O  O370  1  0.87924009  0.61021880  0.86760828  1
  O  O371  1  0.13723927  0.37836048  0.11930371  1
  O  O372  1  0.12859588  0.38068725  0.62962204  1
  O  O373  1  0.12995651  0.88467390  0.13621260  1
  O  O374  1  0.13434806  0.87154379  0.62162413  1
  O  O375  1  0.63125577  0.37964242  0.12784019  1
  O  O376  1  0.63788291  0.37487493  0.62457848  1
  O  O377  1  0.62390192  0.88257386  0.13548114  1
  O  O378  1  0.62314103  0.86805562  0.63925922  1
  O  O379  1  0.11941606  0.24801859  0.26239587  1
  O  O380  1  0.12687718  0.25887808  0.75852945  1
  O  O381  1  0.12131310  0.75892886  0.25293497  1
  O  O382  1  0.11106669  0.74681629  0.74998945  1
  O  O383  1  0.62775175  0.26066304  0.25423202  1
  O  O384  1  0.62675345  0.25681190  0.75298841  1
  O  O385  1  0.62288218  0.75439503  0.26386469  1
  O  O386  1  0.62026983  0.74902637  0.75673583  1
  O  O387  1  0.37483365  0.24838399  0.24607988  1
  O  O388  1  0.36569973  0.25054592  0.73521544  1
  O  O389  1  0.37410565  0.73832037  0.24571529  1
  O  O390  1  0.37488459  0.74591077  0.74549521  1
  O  O391  1  0.88327422  0.25426395  0.23534240  1
  O  O392  1  0.87941918  0.23987496  0.73895115  1
  O  O393  1  0.88310584  0.74216404  0.25228791  1
  O  O394  1  0.87798996  0.73505891  0.75731011  1
  O  O395  1  0.36874928  0.49074504  0.49246332  1
  O  O396  1  0.37191564  0.49200908  0.99114831  1
  O  O397  1  0.38253965  0.99731954  0.49723457  1
  O  O398  1  0.38034006  0.99284537  0.99681535  1
  O  O399  1  0.86857002  0.50275735  0.48340141  1
  O  O400  1  0.87101968  0.49078020  0.98353208  1
  O  O401  1  0.88332705  0.99297435  0.49624631  1
  O  O402  1  0.88242321  0.99207945  0.99826676  1
  O  O403  1  0.11516058  0.00349850  0.00873905  1
  O  O404  1  0.11036759  -0.00363554  0.49581049  1
  O  O405  1  0.19151828  0.52629053  -0.00809444  1
  O  O406  1  0.13129899  0.49414415  0.50821081  1
  O  O407  1  0.61964186  0.00514412  0.00660095  1
  O  O408  1  0.61892197  0.01329520  0.50040087  1
  O  O409  1  0.62263387  0.50852731  0.00501585  1
  O  O410  1  0.63031750  0.51559335  0.49592663  1
  O  O411  1  0.36976131  0.37730487  0.11317198  1
  O  O412  1  0.36734033  0.36806676  0.62020171  1
  O  O413  1  0.37246270  0.87261990  0.12389700  1
  O  O414  1  0.36885609  0.86329842  0.62309784  1
  O  O415  1  0.87053420  0.37278165  0.11541741  1
  O  O416  1  0.86866605  0.36927657  0.62086122  1
  O  O417  1  0.87177266  0.87144139  0.10826894  1
  O  O418  1  0.87579309  0.87708948  0.60510072  1
  O  O419  1  0.14106930  0.13421069  0.37600913  1
  O  O420  1  0.12822957  0.13305209  0.88499208  1
  O  O421  1  0.13831662  0.62495115  0.37169847  1
  O  O422  1  0.13479396  0.62566278  0.87175257  1
  O  O423  1  0.63507942  0.13051831  0.38025264  1
  O  O424  1  0.63256467  0.11788780  0.88447749  1
  O  O425  1  0.62867705  0.63235699  0.38207307  1
  O  O426  1  0.61630875  0.63121589  0.88377795  1
