# generated using pymatgen
data_V85Zn86O256
_symmetry_space_group_name_H-M   'P 1'
_cell_length_a   16.93918063
_cell_length_b   16.94023060
_cell_length_c   16.94263984
_cell_angle_alpha   89.91212601
_cell_angle_beta   89.94917755
_cell_angle_gamma   89.98327316
_symmetry_Int_Tables_number   1
_chemical_formula_structural   V85Zn86O256
_chemical_formula_sum   'V85 Zn86 O256'
_cell_volume   4861.74410178
_cell_formula_units_Z   1
loop_
 _symmetry_equiv_pos_site_id
 _symmetry_equiv_pos_as_xyz
  1  'x, y, z'
loop_
 _atom_site_type_symbol
 _atom_site_label
 _atom_site_symmetry_multiplicity
 _atom_site_fract_x
 _atom_site_fract_y
 _atom_site_fract_z
 _atom_site_occupancy
  V  V0  1  0.86721568  0.25585633  0.12587359  1
  V  V1  1  0.50219693  0.37718016  0.86911418  1
  V  V2  1  0.63534014  0.38043496  0.73857223  1
  V  V3  1  0.87590788  0.11160115  0.24674020  1
  V  V4  1  0.74949300  0.51334394  0.74207788  1
  V  V5  1  0.37670742  0.24932979  0.12431789  1
  V  V6  1  -0.01397970  0.12928884  0.62660938  1
  V  V7  1  0.50727017  0.50034873  0.50236784  1
  V  V8  1  0.37456464  0.62917562  0.75035053  1
  V  V9  1  0.87293363  0.00144502  0.87596108  1
  V  V10  1  0.75603606  0.11100591  0.37283633  1
  V  V11  1  0.48887657  0.87217867  0.88189828  1
  V  V12  1  -0.00225670  0.74907564  0.24996417  1
  V  V13  1  0.62765715  0.88150469  0.25187898  1
  V  V14  1  0.12389291  -0.00122592  0.63034890  1
  V  V15  1  0.87438171  0.62221960  0.25093217  1
  V  V16  1  0.25006041  0.49942466  0.75236688  1
  V  V17  1  0.87228523  0.87221716  -0.00205766  1
  V  V18  1  0.37255698  0.75834389  0.11819683  1
  V  V19  1  0.87326021  0.49395346  0.37547843  1
  V  V20  1  0.86348816  0.50944544  0.87425282  1
  V  V21  1  0.33284027  0.20002434  0.66891196  1
  V  V22  1  0.63930000  0.74764542  0.88079266  1
  V  V23  1  0.37865486  0.37152953  0.50266131  1
  V  V24  1  0.63690818  0.62686476  -0.00069319  1
  V  V25  1  0.75259418  0.87831494  0.12845279  1
  V  V26  1  0.75393302  0.25060381  0.51158596  1
  V  V27  1  -0.00015384  0.49755367  0.50095365  1
  V  V28  1  0.74893207  0.62288505  0.37528441  1
  V  V29  1  0.12649647  0.62542841  0.50326874  1
  V  V30  1  0.49722533  -0.01367916  0.49073136  1
  V  V31  1  0.00280365  0.62399359  0.12375265  1
  V  V32  1  0.25277113  0.87680016  0.61738001  1
  V  V33  1  0.25163096  0.37712002  0.12570519  1
  V  V34  1  -0.00301619  0.74613519  0.75277354  1
  V  V35  1  0.62962358  0.00128384  0.11614968  1
  V  V36  1  0.61854924  0.12442629  0.50138381  1
  V  V37  1  0.74829264  0.00418783  0.75214062  1
  V  V38  1  0.74367723  0.12540099  0.88939498  1
  V  V39  1  -0.00063517  0.49442440  -0.00289093  1
  V  V40  1  0.50200963  0.61966291  0.62571873  1
  V  V41  1  0.25335075  0.62463290  0.37449175  1
  V  V42  1  0.62507206  0.62289836  0.50434845  1
  V  V43  1  0.12262092  0.74995103  0.37432837  1
  V  V44  1  0.25240117  0.11946838  0.37685223  1
  V  V45  1  0.12339720  0.37498732  0.25203525  1
  V  V46  1  0.00141405  0.01409174  0.00138422  1
  V  V47  1  -0.00874763  0.62506618  0.62790614  1
  V  V48  1  0.74638831  0.49571104  0.23863199  1
  V  V49  1  0.62217692  0.75239348  0.37522018  1
  V  V50  1  0.62837532  0.37801567  0.23748873  1
  V  V51  1  0.12583088  0.62593128  -0.01108488  1
  V  V52  1  0.24650445  0.75811597  -0.01091508  1
  V  V53  1  0.87144413  0.37083043  0.51455064  1
  V  V54  1  0.12316430  0.87623648  0.24378881  1
  V  V55  1  0.12172186  0.01667483  0.12243699  1
  V  V56  1  0.23735321  0.23863901  0.00018330  1
  V  V57  1  -0.00907605  0.87983180  0.37414236  1
  V  V58  1  0.61636923  0.00312492  0.62649199  1
  V  V59  1  0.75265733  0.87461680  0.62550235  1
  V  V60  1  0.25500528  0.25025703  0.49825359  1
  V  V61  1  0.25053240  0.49993353  0.24971714  1
  V  V62  1  0.50672852  0.23987810  0.73530509  1
  V  V63  1  0.86892207  0.74769453  0.11996758  1
  V  V64  1  0.12406965  0.12436532  0.50581722  1
  V  V65  1  0.12428383  0.24733371  0.37578322  1
  V  V66  1  0.37782634  0.12105099  0.25251604  1
  V  V67  1  0.50568312  0.12269777  0.12103181  1
  V  V68  1  0.00606894  0.87080104  0.87648843  1
  V  V69  1  -0.00261644  0.24541201  0.24579806  1
  V  V70  1  -0.00972408  0.25933708  0.74642134  1
  V  V71  1  0.62419145  0.24801809  0.88038583  1
  V  V72  1  -0.01025963  0.00056016  0.49893028  1
  V  V73  1  0.50341736  0.37497905  0.37332665  1
  V  V74  1  0.48563646  -0.00430496  -0.00022902  1
  V  V75  1  0.25280117  0.37993032  0.62790789  1
  V  V76  1  0.37580579  0.37807062  0.00116739  1
  V  V77  1  0.62253304  0.87466244  0.75594016  1
  V  V78  1  0.50509754  0.62416391  0.12261130  1
  V  V79  1  0.37718205  0.75379791  0.61693835  1
  V  V80  1  0.37536933  0.62567316  0.24746548  1
  V  V81  1  0.63053253  0.24959731  0.37292464  1
  V  V82  1  0.50581361  0.50262772  0.00107392  1
  V  V83  1  0.12952140  0.87144479  0.75239613  1
  V  V84  1  0.50023770  0.75551442  0.25005303  1
  Zn  Zn85  1  0.75206365  0.74918289  0.50117813  1
  Zn  Zn86  1  0.11779684  0.24280175  0.87945198  1
  Zn  Zn87  1  0.86660591  0.13548333  0.74853438  1
  Zn  Zn88  1  0.50373167  0.24930524  0.24882205  1
  Zn  Zn89  1  -0.00293290  0.37530785  0.87484982  1
  Zn  Zn90  1  0.25679882  0.75413989  0.49447777  1
  Zn  Zn91  1  0.24993188  -0.00220573  0.24862842  1
  Zn  Zn92  1  0.12552532  0.49976744  0.12291298  1
  Zn  Zn93  1  0.12862597  0.37308237  0.75705788  1
  Zn  Zn94  1  0.87056294  0.87410218  0.49579108  1
  Zn  Zn95  1  0.25041991  0.87827438  0.12057419  1
  Zn  Zn96  1  0.87213213  0.74749065  0.62595019  1
  Zn  Zn97  1  0.32277273  0.07543666  0.82632577  1
  Zn  Zn98  1  0.50100855  0.74751724  0.75323633  1
  Zn  Zn99  1  0.37644936  -0.01673319  0.37436785  1
  Zn  Zn100  1  0.37803268  0.50050959  0.37431513  1
  Zn  Zn101  1  0.12369719  0.49874231  0.62703981  1
  Zn  Zn102  1  0.86096128  0.37747438  0.00127137  1
  Zn  Zn103  1  0.24927215  0.62888035  0.87223814  1
  Zn  Zn104  1  0.37496918  0.50254391  0.87480529  1
  Zn  Zn105  1  0.73725668  0.25359143  0.01102081  1
  Zn  Zn106  1  -0.00197157  0.37085821  0.37882215  1
  Zn  Zn107  1  0.19173471  0.18958183  0.19016821  1
  Zn  Zn108  1  0.15849422  0.15992353  0.72986036  1
  Zn  Zn109  1  0.18662635  0.68913704  0.18355278  1
  Zn  Zn110  1  0.18771232  0.69209609  0.68740230  1
  Zn  Zn111  1  0.68916937  0.18276689  0.19284641  1
  Zn  Zn112  1  0.68262668  0.18620414  0.68935459  1
  Zn  Zn113  1  0.68794849  0.68693118  0.18646497  1
  Zn  Zn114  1  0.68524591  0.68977026  0.68901103  1
  Zn  Zn115  1  0.31577053  0.31007965  0.31304279  1
  Zn  Zn116  1  0.33762060  0.27302365  0.83828879  1
  Zn  Zn117  1  0.30756242  0.81090017  0.30566684  1
  Zn  Zn118  1  0.31262934  0.91676284  0.80745904  1
  Zn  Zn119  1  0.81052548  0.31069299  0.31390570  1
  Zn  Zn120  1  0.81305392  0.31745680  0.81927825  1
  Zn  Zn121  1  0.80956398  0.81091197  0.31077477  1
  Zn  Zn122  1  0.81581096  0.81267400  0.80972692  1
  Zn  Zn123  1  0.18808927  0.43827951  0.43790392  1
  Zn  Zn124  1  0.18500515  0.43170168  0.93421581  1
  Zn  Zn125  1  0.18051753  0.93814176  0.43809796  1
  Zn  Zn126  1  0.18766341  0.94719017  0.93889334  1
  Zn  Zn127  1  0.68990725  0.43542924  0.43725472  1
  Zn  Zn128  1  0.68720974  0.43532359  0.93898187  1
  Zn  Zn129  1  0.68426368  0.93543635  0.43953876  1
  Zn  Zn130  1  0.68686316  0.93446750  0.94152256  1
  Zn  Zn131  1  0.31015388  0.06181658  0.06432091  1
  Zn  Zn132  1  0.31335838  0.05395464  0.56211691  1
  Zn  Zn133  1  0.31492343  0.56619861  0.06100822  1
  Zn  Zn134  1  0.31780550  0.56108635  0.56049456  1
  Zn  Zn135  1  0.81584280  0.06310407  0.06663966  1
  Zn  Zn136  1  0.80622859  0.06035085  0.56036359  1
  Zn  Zn137  1  0.81573700  0.56060799  0.06089119  1
  Zn  Zn138  1  0.81074086  0.55884066  0.56215410  1
  Zn  Zn139  1  0.44170369  0.44011846  0.18748171  1
  Zn  Zn140  1  0.43732471  0.43720016  0.68870253  1
  Zn  Zn141  1  0.43919373  0.93717038  0.18911906  1
  Zn  Zn142  1  0.43770456  0.94256031  0.68701743  1
  Zn  Zn143  1  0.93834654  0.43565276  0.18799584  1
  Zn  Zn144  1  0.93086571  0.44372099  0.68983627  1
  Zn  Zn145  1  0.94235213  0.93774390  0.18274493  1
  Zn  Zn146  1  0.93761457  0.93878206  0.69067146  1
  Zn  Zn147  1  0.06122007  0.06194057  0.31258454  1
  Zn  Zn148  1  0.05726009  0.06238641  0.81731106  1
  Zn  Zn149  1  0.06236170  0.56041080  0.31498880  1
  Zn  Zn150  1  0.06105874  0.55878933  0.81125378  1
  Zn  Zn151  1  0.56455079  0.06144327  0.31152279  1
  Zn  Zn152  1  0.55553533  0.06121334  0.81732039  1
  Zn  Zn153  1  0.56356376  0.56324594  0.31283804  1
  Zn  Zn154  1  0.56677274  0.56269627  0.81427123  1
  Zn  Zn155  1  0.44050827  0.18584487  0.43898522  1
  Zn  Zn156  1  0.44592168  0.18629303  0.94257942  1
  Zn  Zn157  1  0.44018337  0.80951802  0.43546323  1
  Zn  Zn158  1  0.43643195  0.69168031  0.93577549  1
  Zn  Zn159  1  0.93560161  0.18719755  0.43564958  1
  Zn  Zn160  1  0.93059642  0.19064626  0.93311482  1
  Zn  Zn161  1  0.93547142  0.68837098  0.44114881  1
  Zn  Zn162  1  0.93720630  0.68662306  0.93630845  1
  Zn  Zn163  1  0.05927801  0.31072066  0.06840222  1
  Zn  Zn164  1  0.06316616  0.31072955  0.56785309  1
  Zn  Zn165  1  0.06185701  0.81233344  0.05931571  1
  Zn  Zn166  1  0.06123226  0.81126028  0.56264983  1
  Zn  Zn167  1  0.56115262  0.31315179  0.06008635  1
  Zn  Zn168  1  0.57095584  0.31486778  0.56079569  1
  Zn  Zn169  1  0.56466992  0.81142540  0.06073298  1
  Zn  Zn170  1  0.56889738  0.80840618  0.56880811  1
  O  O171  1  0.12460762  0.11473802  0.13349477  1
  O  O172  1  0.11382422  0.11533747  0.62579289  1
  O  O173  1  0.11235011  0.62335338  0.12130975  1
  O  O174  1  0.12146551  0.62549600  0.61211799  1
  O  O175  1  0.61700393  0.11441295  0.13429680  1
  O  O176  1  0.62953401  0.11428033  0.61406108  1
  O  O177  1  0.61252306  0.63515039  0.11600991  1
  O  O178  1  0.61799695  0.63180865  0.61239807  1
  O  O179  1  0.38965210  0.37442776  0.37802375  1
  O  O180  1  0.38941354  0.37200582  0.88068892  1
  O  O181  1  0.37318796  0.87058968  0.37156160  1
  O  O182  1  0.39179439  0.85932385  0.87166343  1
  O  O183  1  0.87531492  0.38519325  0.37830415  1
  O  O184  1  0.87936860  0.38787972  0.88163409  1
  O  O185  1  0.88703461  0.87045702  0.37245377  1
  O  O186  1  0.87997966  0.88053785  0.88265141  1
  O  O187  1  0.25016617  0.01001728  0.37557216  1
  O  O188  1  0.25677563  -0.00611353  0.86933754  1
  O  O189  1  0.25150610  0.50576533  0.36630600  1
  O  O190  1  0.25317285  0.50040962  0.86323083  1
  O  O191  1  0.74660061  0.01266076  0.37879367  1
  O  O192  1  0.74927783  0.00572751  0.87079455  1
  O  O193  1  0.75773457  0.50524700  0.36982395  1
  O  O194  1  0.75903952  0.49975172  0.87003442  1
  O  O195  1  0.24984571  0.49624789  0.13364520  1
  O  O196  1  0.25072584  0.49615088  0.63235120  1
  O  O197  1  0.23533365  0.99817067  0.12580639  1
  O  O198  1  0.23749789  0.99153352  0.61935020  1
  O  O199  1  0.75699797  0.50248529  0.13993150  1
  O  O200  1  0.75362789  0.50195323  0.64243054  1
  O  O201  1  0.74282941  0.99164432  0.12244566  1
  O  O202  1  0.73877587  0.99531545  0.63296846  1
  O  O203  1  0.00864835  0.36780899  0.25398943  1
  O  O204  1  -0.00248953  0.36781133  0.74515876  1
  O  O205  1  0.00346909  0.87022145  0.25580683  1
  O  O206  1  0.00569765  0.86902644  0.75776561  1
  O  O207  1  0.50753017  0.37427323  0.25866947  1
  O  O208  1  0.50993099  0.37277820  0.75438177  1
  O  O209  1  0.51036184  0.86171094  0.24253287  1
  O  O210  1  0.51258406  0.87486297  0.76055132  1
  O  O211  1  0.49350201  0.12530384  0.24243910  1
  O  O212  1  0.50785260  0.14092353  0.74855287  1
  O  O213  1  0.49911916  0.63448061  0.24269236  1
  O  O214  1  0.49578968  0.62220803  0.74188674  1
  O  O215  1  0.98433461  0.13188262  0.26060267  1
  O  O216  1  0.99013725  0.13431734  0.74091187  1
  O  O217  1  0.99467714  0.62682311  0.24295489  1
  O  O218  1  1.00849388  0.63275121  0.73938321  1
  O  O219  1  0.37142658  0.25799753  0.01393122  1
  O  O220  1  0.37244277  0.26355410  0.49139598  1
  O  O221  1  0.35896322  0.74237812  0.00756844  1
  O  O222  1  0.37759598  0.74783022  0.51222126  1
  O  O223  1  0.87803872  0.24825038  0.01911140  1
  O  O224  1  0.86616449  0.25901966  0.49305201  1
  O  O225  1  0.88185692  0.75889702  0.00876365  1
  O  O226  1  0.87056142  0.75532040  0.50533823  1
  O  O227  1  0.13258751  0.24301888  0.49648950  1
  O  O228  1  0.13357076  0.24784387  1.00803155  1
  O  O229  1  0.12470496  0.74046199  0.49165734  1
  O  O230  1  0.13634214  0.73913476  1.00871115  1
  O  O231  1  0.63102451  0.24205750  0.49250721  1
  O  O232  1  0.61901607  0.24880992  0.98565989  1
  O  O233  1  0.62710726  0.74191089  0.49126982  1
  O  O234  1  0.62628925  0.74444241  0.98894314  1
  O  O235  1  0.49379926  0.24068357  0.12532815  1
  O  O236  1  0.51196003  0.25128776  0.63609941  1
  O  O237  1  0.49319599  0.74500446  0.12846839  1
  O  O238  1  0.49593827  0.74025742  0.62811308  1
  O  O239  1  0.99027069  0.24925560  0.13983059  1
  O  O240  1  0.99575003  0.24103916  0.63190697  1
  O  O241  1  0.99101853  0.74363607  0.12992971  1
  O  O242  1  0.99817933  0.74172478  0.63124355  1
  O  O243  1  0.00662254  0.25052844  0.36616020  1
  O  O244  1  -0.00390581  0.25149284  0.86041185  1
  O  O245  1  0.00421378  0.75492072  0.36885995  1
  O  O246  1  -0.00379533  0.76019529  0.86888051  1
  O  O247  1  0.51319731  0.25509581  0.37403197  1
  O  O248  1  0.50883598  0.25832252  0.86374680  1
  O  O249  1  0.51365178  0.74831295  0.36527715  1
  O  O250  1  0.51062970  0.76085921  0.87550874  1
  O  O251  1  0.24637917  0.12846755  0.49409093  1
  O  O252  1  0.25295665  0.14075781  1.00469292  1
  O  O253  1  0.24409058  0.62394428  0.49115958  1
  O  O254  1  0.23978964  0.62964507  0.99954332  1
  O  O255  1  0.74313825  0.12859174  0.48851138  1
  O  O256  1  0.75103315  0.12824272  0.99222358  1
  O  O257  1  0.74152938  0.62311925  0.49442419  1
  O  O258  1  0.73598525  0.62158647  1.00838488  1
  O  O259  1  0.25736064  0.37607596  0.01155111  1
  O  O260  1  0.26107099  0.37202176  0.50175327  1
  O  O261  1  0.23934452  0.86116727  0.00354388  1
  O  O262  1  0.24045578  0.87191178  0.51206996  1
  O  O263  1  0.74755117  0.36610286  -0.00002179  1
  O  O264  1  0.75763041  0.36360852  0.49589308  1
  O  O265  1  0.76438048  0.87883093  0.01041026  1
  O  O266  1  0.74924070  0.87453577  0.51122072  1
  O  O267  1  0.13037622  0.49083988  0.24976851  1
  O  O268  1  0.13501530  0.49592008  0.74682893  1
  O  O269  1  0.12232334  0.99395206  0.23940603  1
  O  O270  1  0.11178051  0.98787699  0.73589016  1
  O  O271  1  0.63419600  0.49127406  0.25543355  1
  O  O272  1  0.63686525  0.48942143  0.75759018  1
  O  O273  1  0.61726842  0.98556845  0.23985714  1
  O  O274  1  0.62683003  0.99471334  0.74496565  1
  O  O275  1  0.37353176  0.00936737  0.25229848  1
  O  O276  1  0.37757544  -0.00208768  0.75889368  1
  O  O277  1  0.36969066  0.50701998  0.25158557  1
  O  O278  1  0.36777964  0.51072542  0.74881560  1
  O  O279  1  0.88014413  0.01258395  0.24523387  1
  O  O280  1  0.86306957  -0.00036330  0.75845879  1
  O  O281  1  0.87063015  0.50301876  0.25765570  1
  O  O282  1  0.86058741  0.49867813  0.76233812  1
  O  O283  1  0.12682208  0.36741545  0.36553681  1
  O  O284  1  0.11430353  0.36668598  0.87446881  1
  O  O285  1  0.11532541  0.87154126  0.36335367  1
  O  O286  1  0.11376068  0.88117301  0.86646327  1
  O  O287  1  0.61716739  0.36748325  0.37185385  1
  O  O288  1  0.61534579  0.36889222  0.86737006  1
  O  O289  1  0.63405026  0.86551035  0.36358335  1
  O  O290  1  0.62240441  0.86560268  0.87248934  1
  O  O291  1  0.38126321  0.13025268  0.13315464  1
  O  O292  1  0.38050626  0.13784007  0.60796196  1
  O  O293  1  0.38533771  0.63390403  0.12920549  1
  O  O294  1  0.38451177  0.62956000  0.62691683  1
  O  O295  1  0.87181715  0.13285493  0.14174220  1
  O  O296  1  0.88314210  0.11717439  0.62512235  1
  O  O297  1  0.88458014  0.63123417  0.12706986  1
  O  O298  1  0.88830242  0.62402696  0.61932093  1
  O  O299  1  0.25724163  0.25654283  0.11943974  1
  O  O300  1  0.26168930  0.25892061  0.61625649  1
  O  O301  1  0.25911176  0.75009933  0.11951281  1
  O  O302  1  0.25928820  0.75624860  0.61982399  1
  O  O303  1  0.76294435  0.24350039  0.12857661  1
  O  O304  1  0.74611888  0.24078093  0.61069050  1
  O  O305  1  0.76356053  0.75571800  0.12889056  1
  O  O306  1  0.75041749  0.75995888  0.62624492  1
  O  O307  1  0.24625963  0.23932984  0.37898150  1
  O  O308  1  0.24154174  0.26534445  0.89985339  1
  O  O309  1  0.24080651  0.74051527  0.37419186  1
  O  O310  1  0.24919429  0.74874237  0.89089357  1
  O  O311  1  0.74058909  0.24219253  0.38082899  1
  O  O312  1  0.74084038  0.24049962  0.87361107  1
  O  O313  1  0.73958759  0.74078082  0.37368927  1
  O  O314  1  0.73830413  0.75519576  0.87276538  1
  O  O315  1  -0.00435701  0.11282822  -0.01030538  1
  O  O316  1  0.00344632  0.12008755  0.50586868  1
  O  O317  1  0.00632989  0.61797873  0.00657831  1
  O  O318  1  0.00813769  0.61867464  0.50525644  1
  O  O319  1  0.49897202  0.11482564  0.01321477  1
  O  O320  1  0.51479598  0.11481142  0.49236933  1
  O  O321  1  0.50460879  0.62065085  0.00553139  1
  O  O322  1  0.50910937  0.61387848  0.50719411  1
  O  O323  1  0.49865209  0.37908591  0.49450835  1
  O  O324  1  0.49684140  0.38427705  0.99335067  1
  O  O325  1  0.50974097  0.88221107  0.49914350  1
  O  O326  1  0.50093352  0.87846399  0.98991774  1
  O  O327  1  0.99354208  0.37968109  0.49977581  1
  O  O328  1  0.99866736  0.38853577  1.00687825  1
  O  O329  1  0.99988078  0.88277508  0.49127156  1
  O  O330  1  0.99256069  0.88042414  0.99289141  1
  O  O331  1  0.50061697  0.49162090  0.38186280  1
  O  O332  1  0.49772341  0.49314550  0.88019771  1
  O  O333  1  0.50344806  0.99738033  0.38743876  1
  O  O334  1  0.50666502  0.98429534  0.88644809  1
  O  O335  1  0.99037945  0.49765326  0.38179058  1
  O  O336  1  0.99086149  0.49986419  0.88263954  1
  O  O337  1  1.00578759  0.99083854  0.38507772  1
  O  O338  1  0.99255166  0.99112809  0.88051486  1
  O  O339  1  0.01163433  0.00045532  0.11609332  1
  O  O340  1  0.00355741  0.00461688  0.61760146  1
  O  O341  1  -0.00169174  0.50891468  0.11847364  1
  O  O342  1  0.00238235  0.50753614  0.62028066  1
  O  O343  1  0.50614134  0.00409762  0.11919339  1
  O  O344  1  0.51193072  -0.00790306  0.61254986  1
  O  O345  1  0.49734631  0.51195863  0.11542689  1
  O  O346  1  0.49691643  0.51038250  0.61731488  1
  O  O347  1  0.24522968  0.37877607  0.24672067  1
  O  O348  1  0.25291657  0.38400996  0.73927480  1
  O  O349  1  0.23670335  0.87777397  0.24398692  1
  O  O350  1  0.23448981  0.86805660  0.73638064  1
  O  O351  1  0.73961700  0.38329109  0.25753719  1
  O  O352  1  0.73754000  0.38012833  0.75498371  1
  O  O353  1  0.74368958  0.87151867  0.23726465  1
  O  O354  1  0.74018166  0.88582333  0.74892447  1
  O  O355  1  0.25922909  0.12332459  0.25908863  1
  O  O356  1  0.27274055  0.14080914  0.72557101  1
  O  O357  1  0.25084997  0.61891667  0.25429834  1
  O  O358  1  0.25605681  0.61919745  0.74935336  1
  O  O359  1  0.76145175  0.12506531  0.26371657  1
  O  O360  1  0.74740673  0.11389482  0.75474372  1
  O  O361  1  0.75486397  0.61791034  0.25557687  1
  O  O362  1  0.74090027  0.61235845  0.75146497  1
  O  O363  1  0.36962519  0.12341362  0.36786698  1
  O  O364  1  0.37005359  0.16558708  0.86685188  1
  O  O365  1  0.35884776  0.62388946  0.36588869  1
  O  O366  1  0.37368978  0.62496402  0.86400750  1
  O  O367  1  0.86267195  0.12648323  0.36680486  1
  O  O368  1  0.86105088  0.11870516  0.87150502  1
  O  O369  1  0.87074505  0.61443873  0.37183497  1
  O  O370  1  0.87614340  0.60891107  0.87985908  1
  O  O371  1  0.13066680  0.37580845  0.13849260  1
  O  O372  1  0.14344544  0.37757986  0.61865072  1
  O  O373  1  0.11936229  0.87875883  0.13622411  1
  O  O374  1  0.12786756  0.88032499  0.62991673  1
  O  O375  1  0.61808614  0.37139959  0.13870623  1
  O  O376  1  0.62579931  0.37787299  0.63987154  1
  O  O377  1  0.63515199  0.87789369  0.12896202  1
  O  O378  1  0.63363496  0.87964824  0.63649599  1
  O  O379  1  0.11791416  0.25447874  0.25401529  1
  O  O380  1  0.10267529  0.25969715  0.74078076  1
  O  O381  1  0.11713283  0.75623194  0.25301858  1
  O  O382  1  0.11180164  0.76075490  0.74445752  1
  O  O383  1  0.62583847  0.25714712  0.25789906  1
  O  O384  1  0.61985761  0.26088414  0.75489588  1
  O  O385  1  0.61954961  0.75638359  0.25430880  1
  O  O386  1  0.62314790  0.75788185  0.76181410  1
  O  O387  1  0.37720714  0.24063456  0.24047529  1
  O  O388  1  0.39183329  0.26042641  0.73316219  1
  O  O389  1  0.38344191  0.74318843  0.24192280  1
  O  O390  1  0.37989530  0.73408496  0.73544353  1
  O  O391  1  0.87978361  0.24454121  0.24474834  1
  O  O392  1  0.88324254  0.25299654  0.75004576  1
  O  O393  1  0.87953968  0.74113396  0.24358802  1
  O  O394  1  0.89014144  0.75471297  0.74537955  1
  O  O395  1  0.38722640  0.48976458  0.49468362  1
  O  O396  1  0.38548671  0.49595718  0.99787471  1
  O  O397  1  0.39444776  1.00097657  0.49737478  1
  O  O398  1  0.38580567  0.99841789  1.00760579  1
  O  O399  1  0.87815337  0.49227479  0.49239356  1
  O  O400  1  0.88136670  0.49869701  0.99238480  1
  O  O401  1  0.88592375  0.99708819  0.50190007  1
  O  O402  1  0.88223129  0.99316317  0.99741373  1
  O  O403  1  0.11667221  -0.00126689  0.01433631  1
  O  O404  1  0.11365253  0.00625216  0.50947708  1
  O  O405  1  0.11788065  0.50753177  0.00224824  1
  O  O406  1  0.11846380  0.50800652  0.49948873  1
  O  O407  1  0.61610884  -0.00654760  0.01347072  1
  O  O408  1  0.61781731  0.00466965  0.50616217  1
  O  O409  1  0.61271398  0.51070474  -0.00883983  1
  O  O410  1  0.61588275  0.50526263  0.49529658  1
  O  O411  1  0.37344030  0.36695907  0.12448544  1
  O  O412  1  0.36662849  0.38166173  0.61362859  1
  O  O413  1  0.37329874  0.86198374  0.13009579  1
  O  O414  1  0.36551753  0.86651501  0.62989850  1
  O  O415  1  0.87602737  0.35905692  0.12830237  1
  O  O416  1  0.87429841  0.37986200  0.61298375  1
  O  O417  1  0.87138462  0.86839653  0.12026935  1
  O  O418  1  0.86014223  0.87913240  0.62763926  1
  O  O419  1  0.13295672  0.12862283  0.38122036  1
  O  O420  1  0.13618031  0.13541153  0.84062312  1
  O  O421  1  0.13238179  0.62727335  0.38249974  1
  O  O422  1  0.12469363  0.62329363  0.88624327  1
  O  O423  1  0.63505942  0.13049789  0.37648478  1
  O  O424  1  0.63194937  0.13459958  0.86819215  1
  O  O425  1  0.62850414  0.63098657  0.38406888  1
  O  O426  1  0.62021269  0.64057312  0.88309905  1
