# generated using pymatgen
data_V85Zn86O256
_symmetry_space_group_name_H-M   'P 1'
_cell_length_a   16.95034511
_cell_length_b   16.95067277
_cell_length_c   16.94481929
_cell_angle_alpha   90.11739578
_cell_angle_beta   89.90531689
_cell_angle_gamma   89.88999635
_symmetry_Int_Tables_number   1
_chemical_formula_structural   V85Zn86O256
_chemical_formula_sum   'V85 Zn86 O256'
_cell_volume   4868.55542479
_cell_formula_units_Z   1
loop_
 _symmetry_equiv_pos_site_id
 _symmetry_equiv_pos_as_xyz
  1  'x, y, z'
loop_
 _atom_site_type_symbol
 _atom_site_label
 _atom_site_symmetry_multiplicity
 _atom_site_fract_x
 _atom_site_fract_y
 _atom_site_fract_z
 _atom_site_occupancy
  V  V0  1  0.74933728  0.87815402  0.62435172  1
  V  V1  1  0.74876526  0.00463118  0.74878296  1
  V  V2  1  0.12872435  0.12171430  -0.01131656  1
  V  V3  1  -0.00136563  0.87541891  0.37481000  1
  V  V4  1  0.37061806  0.74998524  0.12501382  1
  V  V5  1  -0.00127346  0.74609945  0.25052220  1
  V  V6  1  0.63912573  0.37532015  0.73863818  1
  V  V7  1  0.62508589  0.37657254  0.25547909  1
  V  V8  1  0.12421588  0.61982993  0.49672225  1
  V  V9  1  0.61256887  0.00373104  0.12200971  1
  V  V10  1  0.49885871  0.37501946  0.87293404  1
  V  V11  1  0.62358277  0.87635464  0.75915825  1
  V  V12  1  0.12875733  0.38279814  0.25367110  1
  V  V13  1  0.36555970  0.87347485  0.50270922  1
  V  V14  1  0.37335498  0.00767227  0.88058641  1
  V  V15  1  -0.00027130  0.25994189  0.75207098  1
  V  V16  1  0.61143461  0.12135182  0.00250808  1
  V  V17  1  0.50079184  0.24179047  0.24678514  1
  V  V18  1  0.36745278  0.25563110  0.62922047  1
  V  V19  1  0.37852971  0.24086651  0.12374607  1
  V  V20  1  0.63179258  0.51052604  0.62168923  1
  V  V21  1  0.62428845  0.74626441  0.37191911  1
  V  V22  1  0.25145528  0.37954524  0.12889375  1
  V  V23  1  0.75050224  0.12752151  0.88630971  1
  V  V24  1  0.24865065  0.87639468  0.12386224  1
  V  V25  1  0.87695753  0.37411801  -0.00611293  1
  V  V26  1  0.76533904  0.50507234  0.25135576  1
  V  V27  1  0.87499022  0.87073708  0.50370991  1
  V  V28  1  0.24986197  0.24142144  0.49745915  1
  V  V29  1  0.75281082  0.25457687  0.49833356  1
  V  V30  1  0.12969985  0.87232360  0.74998213  1
  V  V31  1  0.87525556  0.24531819  0.12178470  1
  V  V32  1  0.36947745  0.00956430  0.37797181  1
  V  V33  1  0.87996342  0.74508533  0.12702838  1
  V  V34  1  -0.01053682  0.62888820  0.61955502  1
  V  V35  1  0.00248280  0.24602877  0.24599918  1
  V  V36  1  0.76017475  0.62267406  0.36760252  1
  V  V37  1  0.24791462  0.01109778  0.25343324  1
  V  V38  1  0.49991870  0.24859098  0.74858266  1
  V  V39  1  0.87484097  0.12714037  0.74935827  1
  V  V40  1  0.75086737  0.87461541  0.12536456  1
  V  V41  1  0.75176170  0.37063676  0.12290322  1
  V  V42  1  0.74722794  0.00759231  0.25344222  1
  V  V43  1  0.13034141  0.75232097  0.37913067  1
  V  V44  1  0.37600575  0.37357805  0.00159965  1
  V  V45  1  -0.00080459  0.00704756  0.00384021  1
  V  V46  1  0.12547527  0.87714797  0.24849012  1
  V  V47  1  0.36238593  0.12652219  0.75171342  1
  V  V48  1  0.87696942  0.12506153  0.25040980  1
  V  V49  1  0.86937664  0.00403382  0.37568130  1
  V  V50  1  0.87724641  0.00317513  0.87633290  1
  V  V51  1  0.24843940  0.74428128  -0.00727093  1
  V  V52  1  0.12656056  0.73625244  0.86704344  1
  V  V53  1  0.00512036  0.49088010  -0.00521623  1
  V  V54  1  0.37417827  0.74048578  0.62066461  1
  V  V55  1  0.36809426  0.49711912  0.37283346  1
  V  V56  1  -0.00041196  0.00145518  0.50108845  1
  V  V57  1  0.62896882  0.25017122  0.88113006  1
  V  V58  1  0.25011477  0.62567476  0.37755139  1
  V  V59  1  -0.01241505  0.37648522  0.37389296  1
  V  V60  1  0.87619139  0.87478834  0.00223414  1
  V  V61  1  0.50007728  0.00263198  0.50343204  1
  V  V62  1  0.49896938  0.62333911  0.12649225  1
  V  V63  1  0.38093786  0.87629856  -0.00262729  1
  V  V64  1  0.62941011  0.23852235  0.37676958  1
  V  V65  1  0.12218594  0.25985038  0.87484770  1
  V  V66  1  0.62299812  0.49739063  0.12873214  1
  V  V67  1  -0.00728190  0.75063694  0.74099070  1
  V  V68  1  0.50315343  0.50144349  -0.00160419  1
  V  V69  1  0.49897349  0.37418797  0.37843917  1
  V  V70  1  0.50741993  0.74323963  0.74950082  1
  V  V71  1  0.62416750  0.87570205  0.25037365  1
  V  V72  1  0.36650391  0.37645570  0.50514863  1
  V  V73  1  0.49679752  0.74997874  0.25132826  1
  V  V74  1  0.36722730  0.61939607  0.24878186  1
  V  V75  1  0.12934665  0.24272701  0.37309263  1
  V  V76  1  0.37134137  0.62580107  0.75983354  1
  V  V77  1  0.00008249  0.12653797  0.62445180  1
  V  V78  1  0.49705619  0.87551918  0.37712546  1
  V  V79  1  0.12260016  0.01003403  0.12457299  1
  V  V80  1  0.00293479  0.62021889  0.12670027  1
  V  V81  1  0.74965830  0.74904037  0.50087045  1
  V  V82  1  0.87097526  0.26301389  0.61849274  1
  V  V83  1  0.25094139  0.24630365  -0.00652091  1
  V  V84  1  -0.01881070  0.49676324  0.49345890  1
  Zn  Zn85  1  0.62103093  0.62829813  0.50490586  1
  Zn  Zn86  1  0.78433299  0.70886062  -0.04420053  1
  Zn  Zn87  1  0.23503836  0.50256564  0.76026340  1
  Zn  Zn88  1  0.24899144  0.87236946  0.62479398  1
  Zn  Zn89  1  0.13068911  0.61639846  -0.00428605  1
  Zn  Zn90  1  0.81839175  0.69377439  0.67946830  1
  Zn  Zn91  1  0.62820591  0.64335092  -0.02442548  1
  Zn  Zn92  1  0.00326918  0.87475818  0.87485754  1
  Zn  Zn93  1  0.12772681  -0.00079141  0.62688175  1
  Zn  Zn94  1  0.24723086  0.00142522  0.75114512  1
  Zn  Zn95  1  0.36934317  0.50481369  0.87622086  1
  Zn  Zn96  1  0.12856809  0.48920895  0.62277616  1
  Zn  Zn97  1  0.49680684  0.50838325  0.50882925  1
  Zn  Zn98  1  0.12855926  0.12171389  0.49706024  1
  Zn  Zn99  1  0.50060093  0.87791321  0.87575127  1
  Zn  Zn100  1  0.82031534  0.55430044  0.80714665  1
  Zn  Zn101  1  0.50071125  0.12615742  0.62534287  1
  Zn  Zn102  1  0.37523837  0.12467580  0.24910381  1
  Zn  Zn103  1  0.63486672  0.12218657  0.50296656  1
  Zn  Zn104  1  0.62278411  0.00475881  0.62640811  1
  Zn  Zn105  1  0.13376422  0.37481172  0.73519543  1
  Zn  Zn106  1  0.13101491  0.50214395  0.12972316  1
  Zn  Zn107  1  0.18784516  0.19109496  0.18177419  1
  Zn  Zn108  1  0.18448081  0.19324977  0.68364800  1
  Zn  Zn109  1  0.18591054  0.68772607  0.18859724  1
  Zn  Zn110  1  0.19982957  0.66161974  0.67055229  1
  Zn  Zn111  1  0.68752733  0.18691076  0.18593782  1
  Zn  Zn112  1  0.68737336  0.18855994  0.68616689  1
  Zn  Zn113  1  0.69624673  0.68015070  0.12215605  1
  Zn  Zn114  1  0.68685495  0.68753187  0.80543844  1
  Zn  Zn115  1  0.31165802  0.30954284  0.31277223  1
  Zn  Zn116  1  0.30786250  0.32059325  0.81299353  1
  Zn  Zn117  1  0.31063888  0.81573816  0.31314604  1
  Zn  Zn118  1  0.31434569  0.80958755  0.81181237  1
  Zn  Zn119  1  0.80830943  0.30929103  0.31176476  1
  Zn  Zn120  1  0.81360726  0.31181074  0.81398858  1
  Zn  Zn121  1  0.81211595  0.81406616  0.31134792  1
  Zn  Zn122  1  0.81387733  0.82028520  0.81533495  1
  Zn  Zn123  1  0.18552831  0.43357511  0.43769327  1
  Zn  Zn124  1  0.19067535  0.43966130  0.93438417  1
  Zn  Zn125  1  0.18700451  0.93906698  0.43746877  1
  Zn  Zn126  1  0.19239633  0.93222448  0.93161611  1
  Zn  Zn127  1  0.69202235  0.43792879  0.44088506  1
  Zn  Zn128  1  0.68589046  0.43652902  0.93423598  1
  Zn  Zn129  1  0.68551418  0.93790122  0.43665015  1
  Zn  Zn130  1  0.69074772  0.93695884  0.93987251  1
  Zn  Zn131  1  0.31121575  0.06215545  0.06097259  1
  Zn  Zn132  1  0.31239195  0.06251675  0.56983234  1
  Zn  Zn133  1  0.31349548  0.56044384  0.05879284  1
  Zn  Zn134  1  0.30975430  0.56174567  0.56459537  1
  Zn  Zn135  1  0.80850209  0.06224022  0.06667335  1
  Zn  Zn136  1  0.81146037  0.06881754  0.56069721  1
  Zn  Zn137  1  0.80981218  0.55179235  -0.02482610  1
  Zn  Zn138  1  0.80248362  0.55841927  0.56226446  1
  Zn  Zn139  1  0.43628504  0.43302317  0.19025700  1
  Zn  Zn140  1  0.44068165  0.44111774  0.68585774  1
  Zn  Zn141  1  0.43362685  0.93764370  0.18914948  1
  Zn  Zn142  1  0.43504671  0.93713518  0.68828960  1
  Zn  Zn143  1  0.94039315  0.43367619  0.18413662  1
  Zn  Zn144  1  0.93553704  0.44088741  0.67906614  1
  Zn  Zn145  1  0.93949964  0.93932591  0.18751251  1
  Zn  Zn146  1  0.93831907  0.93659374  0.68705698  1
  Zn  Zn147  1  0.05821152  0.06433701  0.31226989  1
  Zn  Zn148  1  0.06229214  0.06326421  0.81153195  1
  Zn  Zn149  1  0.05839903  0.56209243  0.31352270  1
  Zn  Zn150  1  0.02177740  0.53787462  0.78933353  1
  Zn  Zn151  1  0.55866143  0.06072529  0.31322616  1
  Zn  Zn152  1  0.55806084  0.06143825  0.81492426  1
  Zn  Zn153  1  0.55677987  0.56428384  0.32178403  1
  Zn  Zn154  1  0.56010947  0.55606073  0.80328274  1
  Zn  Zn155  1  0.43853451  0.18853028  0.43859858  1
  Zn  Zn156  1  0.43791879  0.18676145  0.93477446  1
  Zn  Zn157  1  0.43656613  0.68691562  0.44004255  1
  Zn  Zn158  1  0.44761123  0.69233089  0.93551900  1
  Zn  Zn159  1  0.93649179  0.18855921  0.43440496  1
  Zn  Zn160  1  0.94132113  0.18877799  0.93884083  1
  Zn  Zn161  1  0.93685217  0.68766181  0.43461545  1
  Zn  Zn162  1  0.95277936  0.67946350  0.93201722  1
  Zn  Zn163  1  0.06477143  0.31034088  0.06617566  1
  Zn  Zn164  1  0.05928088  0.31363110  0.55860970  1
  Zn  Zn165  1  0.06480076  0.81451286  0.05891088  1
  Zn  Zn166  1  0.06554997  0.81051134  0.56440854  1
  Zn  Zn167  1  0.56353529  0.31059334  0.06207899  1
  Zn  Zn168  1  0.55920116  0.31240774  0.56097695  1
  Zn  Zn169  1  0.56062041  0.81405892  0.06579436  1
  Zn  Zn170  1  0.56157608  0.81345663  0.56707037  1
  O  O171  1  0.12851090  0.11399768  0.11578971  1
  O  O172  1  0.11102828  0.12583676  0.62140083  1
  O  O173  1  0.11603091  0.62373445  0.12419523  1
  O  O174  1  0.10687539  0.64103311  0.60275692  1
  O  O175  1  0.63185945  0.11637625  0.11485740  1
  O  O176  1  0.61867467  0.12434672  0.62260054  1
  O  O177  1  0.61237188  0.60291650  0.14414962  1
  O  O178  1  0.62635184  0.60948374  0.62406596  1
  O  O179  1  0.37893403  0.38080959  0.37850569  1
  O  O180  1  0.38799264  0.37142568  0.88340771  1
  O  O181  1  0.37934243  0.88122153  0.38238747  1
  O  O182  1  0.37491772  0.88275440  0.88308777  1
  O  O183  1  0.88885812  0.36883789  0.36609891  1
  O  O184  1  0.87768615  0.35717578  0.89582706  1
  O  O185  1  0.88031759  0.88332825  0.38171928  1
  O  O186  1  0.88041693  0.88533314  0.88601147  1
  O  O187  1  0.25663606  -0.00389182  0.36554071  1
  O  O188  1  0.26635485  -0.00370629  0.86987630  1
  O  O189  1  0.26087042  0.50570136  0.37732210  1
  O  O190  1  0.25680623  0.50480218  0.87576920  1
  O  O191  1  0.75763256  -0.00498003  0.36637014  1
  O  O192  1  0.75738134  0.00773238  0.86906705  1
  O  O193  1  0.74291985  0.50737253  0.36032544  1
  O  O194  1  0.76660369  0.49190501  0.88731864  1
  O  O195  1  0.25210888  0.48419448  0.12117896  1
  O  O196  1  0.23035114  0.54533060  0.64141996  1
  O  O197  1  0.24345118  0.99486783  0.13180187  1
  O  O198  1  0.24587264  0.99495375  0.63092864  1
  O  O199  1  0.73717622  0.48607972  0.14161463  1
  O  O200  1  0.73338779  0.49147365  0.62011946  1
  O  O201  1  0.74505960  0.99032623  0.13486892  1
  O  O202  1  0.74973735  0.99630267  0.63129628  1
  O  O203  1  0.00930479  0.36774407  0.25520163  1
  O  O204  1  0.00145802  0.36036229  0.74318009  1
  O  O205  1  0.00838413  0.87204968  0.25565551  1
  O  O206  1  0.00885306  0.86572357  0.74755014  1
  O  O207  1  0.50449059  0.36443036  0.26014229  1
  O  O208  1  0.50197996  0.36397738  0.75818012  1
  O  O209  1  0.50183537  0.87100746  0.25765931  1
  O  O210  1  0.51018946  0.87136120  0.74831739  1
  O  O211  1  0.49869934  0.13789191  0.25165146  1
  O  O212  1  0.49234446  0.13918424  0.75387419  1
  O  O213  1  0.48601438  0.62978598  0.24916018  1
  O  O214  1  0.49497489  0.64002242  0.74601413  1
  O  O215  1  0.99096541  0.13340910  0.24948967  1
  O  O216  1  0.99409985  0.13124696  0.74175654  1
  O  O217  1  1.00488137  0.63592604  0.24384176  1
  O  O218  1  1.00510631  0.64385610  0.73253205  1
  O  O219  1  0.36980106  0.25223832  0.00510391  1
  O  O220  1  0.36899487  0.25483245  0.50667141  1
  O  O221  1  0.36872703  0.75536760  0.00431594  1
  O  O222  1  0.38283708  0.75812758  0.51233477  1
  O  O223  1  0.88479449  0.25436701  0.01645690  1
  O  O224  1  0.87189425  0.24549723  0.51161078  1
  O  O225  1  0.88182370  0.76228057  0.01011075  1
  O  O226  1  0.86730669  0.76489995  0.48915928  1
  O  O227  1  0.13285763  0.24757091  0.49012028  1
  O  O228  1  0.13015513  0.24140950  0.99627707  1
  O  O229  1  0.11631972  0.74387909  0.48323641  1
  O  O230  1  0.13268401  0.75131805  0.98913434  1
  O  O231  1  0.63006889  0.24863197  0.49150167  1
  O  O232  1  0.62201836  0.24322313  0.98804962  1
  O  O233  1  0.63282084  0.75414714  0.49119190  1
  O  O234  1  0.63336251  0.73713833  1.03866943  1
  O  O235  1  0.49102352  0.25715396  0.13443200  1
  O  O236  1  0.48799423  0.25070102  0.63331192  1
  O  O237  1  0.48782880  0.74491153  0.13417243  1
  O  O238  1  0.48808898  0.75894818  0.63778581  1
  O  O239  1  0.99286301  0.25352316  0.13918871  1
  O  O240  1  0.98950906  0.24280486  0.62685087  1
  O  O241  1  1.00021985  0.74731166  0.13168586  1
  O  O242  1  0.99533652  0.74873118  0.63234649  1
  O  O243  1  0.00588638  0.25630733  0.36576680  1
  O  O244  1  0.00927796  0.24252129  0.86380766  1
  O  O245  1  0.00583667  0.75596496  0.36694735  1
  O  O246  1  0.00792943  0.75212374  0.86108764  1
  O  O247  1  0.50472114  0.25600857  0.36831343  1
  O  O248  1  0.50695513  0.25587946  0.86895910  1
  O  O249  1  0.50486326  0.75682060  0.37036265  1
  O  O250  1  0.49608466  0.76022655  0.85565392  1
  O  O251  1  0.25026563  0.13700918  0.50321331  1
  O  O252  1  0.24038443  0.13368613  1.00499510  1
  O  O253  1  0.24137110  0.62523210  0.48497932  1
  O  O254  1  0.24831925  0.63978291  1.00850534  1
  O  O255  1  0.74994796  0.14036463  0.49934261  1
  O  O256  1  0.74405749  0.12048838  0.98907471  1
  O  O257  1  0.74486565  0.63459317  0.48854433  1
  O  O258  1  0.73926138  0.62631318  1.02511456  1
  O  O259  1  0.25735099  0.36595265  0.00744339  1
  O  O260  1  0.26238402  0.36422195  0.49249785  1
  O  O261  1  0.25864139  0.86609687  0.00593232  1
  O  O262  1  0.26248453  0.87591247  0.49796072  1
  O  O263  1  0.76277427  0.37745742  0.01446264  1
  O  O264  1  0.75156154  0.35631201  0.49120565  1
  O  O265  1  0.76570957  0.88433329  0.01152384  1
  O  O266  1  0.75574200  0.87236132  0.50441340  1
  O  O267  1  0.12388615  0.48613744  0.25209329  1
  O  O268  1  0.11553961  0.49526418  0.74411083  1
  O  O269  1  0.12889017  0.99866897  0.24336786  1
  O  O270  1  0.12420958  0.98865756  0.75047571  1
  O  O271  1  0.61686391  0.48477762  0.24867824  1
  O  O272  1  0.61921881  0.48116058  0.73728155  1
  O  O273  1  0.63108287  0.99698913  0.24679839  1
  O  O274  1  0.63105353  0.99571790  0.74859500  1
  O  O275  1  0.36512777  0.00143950  0.25832123  1
  O  O276  1  0.37284995  0.01119316  0.75727476  1
  O  O277  1  0.37797110  0.50772111  0.25897822  1
  O  O278  1  0.38289352  0.51978230  0.74783448  1
  O  O279  1  0.86891676  0.00645304  0.25327748  1
  O  O280  1  0.87116524  0.00693440  0.75609521  1
  O  O281  1  0.86332319  0.49545347  0.24606730  1
  O  O282  1  0.91352380  0.51286691  0.75822258  1
  O  O283  1  0.11919161  0.36373138  0.36836205  1
  O  O284  1  0.12425955  0.36033350  0.88039751  1
  O  O285  1  0.11998885  0.86894812  0.37013518  1
  O  O286  1  0.12172526  0.86736977  0.86620905  1
  O  O287  1  0.61574463  0.36868937  0.37065378  1
  O  O288  1  0.61569981  0.36721555  0.86944354  1
  O  O289  1  0.61824233  0.86697619  0.37041695  1
  O  O290  1  0.62237861  0.88655535  0.86256659  1
  O  O291  1  0.37166574  0.13714181  0.12573097  1
  O  O292  1  0.37938638  0.13475035  0.63549746  1
  O  O293  1  0.37809293  0.62726636  0.13285162  1
  O  O294  1  0.37905669  0.63734787  0.62967013  1
  O  O295  1  0.86768552  0.13209610  0.13723186  1
  O  O296  1  0.88552386  0.12868587  0.63126778  1
  O  O297  1  0.89071427  0.64341985  0.12406768  1
  O  O298  1  0.88480976  0.62975351  0.60730246  1
  O  O299  1  0.25757426  0.25769255  0.11539789  1
  O  O300  1  0.26157400  0.24852806  0.61667653  1
  O  O301  1  0.25282672  0.75815194  0.12103504  1
  O  O302  1  0.26980496  0.75009104  0.62763875  1
  O  O303  1  0.75971143  0.26095466  0.13509586  1
  O  O304  1  0.76555003  0.24616683  0.61965384  1
  O  O305  1  0.76718578  0.76799698  0.14196731  1
  O  O306  1  0.75441638  0.76099859  0.60752723  1
  O  O307  1  0.24158823  0.25026618  0.38236637  1
  O  O308  1  0.24479819  0.25176551  0.88839240  1
  O  O309  1  0.24018708  0.74183754  0.36818222  1
  O  O310  1  0.24131807  0.75503958  0.88351327  1
  O  O311  1  0.73864230  0.24908922  0.37859226  1
  O  O312  1  0.73999174  0.23965990  0.87063932  1
  O  O313  1  0.74180034  0.74826069  0.37882856  1
  O  O314  1  0.73683431  0.76671073  0.87386972  1
  O  O315  1  0.00915400  0.11369031  -0.00002213  1
  O  O316  1  -0.00203660  0.11672760  0.50593799  1
  O  O317  1  0.00670803  0.61017519  0.01013740  1
  O  O318  1  0.00386109  0.61541796  0.49429738  1
  O  O319  1  0.51186813  0.12572198  -0.00277178  1
  O  O320  1  0.49751243  0.11119938  0.49958988  1
  O  O321  1  0.50131220  0.61676543  0.00848050  1
  O  O322  1  0.51147553  0.61696797  0.47846709  1
  O  O323  1  0.48737810  0.36952565  0.48732987  1
  O  O324  1  0.49636295  0.37935017  0.99323889  1
  O  O325  1  0.49216846  0.88502963  0.49566477  1
  O  O326  1  0.48508761  0.86982643  1.00097793  1
  O  O327  1  0.99963451  0.38896217  0.48919908  1
  O  O328  1  0.99361877  0.38233856  1.01150840  1
  O  O329  1  0.99225164  0.88071201  0.49733673  1
  O  O330  1  0.99141434  0.88702767  1.00100873  1
  O  O331  1  0.48687239  0.48817736  0.37561970  1
  O  O332  1  0.49740900  0.49005585  0.88187164  1
  O  O333  1  0.48994996  0.99339954  0.37987647  1
  O  O334  1  0.48047355  0.99582382  0.87064685  1
  O  O335  1  1.00154884  0.49216788  0.38417323  1
  O  O336  1  1.00485216  0.49711801  0.89748466  1
  O  O337  1  0.99260969  0.99463412  0.38137281  1
  O  O338  1  0.99385937  1.00043710  0.88457244  1
  O  O339  1  0.01108188  -0.00318782  0.11725406  1
  O  O340  1  0.00057157  0.00735108  0.61659789  1
  O  O341  1  0.00499321  0.50836359  0.12543197  1
  O  O342  1  0.00173123  0.51070898  0.60480307  1
  O  O343  1  0.51349773  -0.00307037  0.13318014  1
  O  O344  1  0.49921567  0.00151131  0.61588083  1
  O  O345  1  0.50390742  0.49906055  0.11946420  1
  O  O346  1  0.52153357  0.48124412  0.61823296  1
  O  O347  1  0.24123709  0.36618463  0.24164404  1
  O  O348  1  0.24781315  0.38557728  0.74996499  1
  O  O349  1  0.24344887  0.88475058  0.24380421  1
  O  O350  1  0.23846301  0.87226944  0.74991993  1
  O  O351  1  0.74083110  0.38213099  0.24886747  1
  O  O352  1  0.73691411  0.37033153  0.75394267  1
  O  O353  1  0.74537080  0.88662024  0.24576914  1
  O  O354  1  0.74527235  0.88419693  0.74070832  1
  O  O355  1  0.24963633  0.11398275  0.24494012  1
  O  O356  1  0.25991588  0.12956420  0.74749927  1
  O  O357  1  0.26011016  0.62764626  0.25764086  1
  O  O358  1  0.27074476  0.63789195  0.76066483  1
  O  O359  1  0.75484960  0.11328977  0.24818429  1
  O  O360  1  0.75572245  0.12110857  0.75795024  1
  O  O361  1  0.74718077  0.60740556  0.25028635  1
  O  O362  1  0.75944525  0.62717294  0.74427280  1
  O  O363  1  0.37696854  0.11233033  0.37334579  1
  O  O364  1  0.37500424  0.11564374  0.86998218  1
  O  O365  1  0.36632082  0.61916259  0.36957290  1
  O  O366  1  0.38710582  0.62619160  0.86248527  1
  O  O367  1  0.87909428  0.11869428  0.36083340  1
  O  O368  1  0.86796207  0.12411033  0.87159586  1
  O  O369  1  0.85922909  0.63477032  0.36974664  1
  O  O370  1  0.85846306  0.63081255  0.90066090  1
  O  O371  1  0.13500259  0.37200260  0.13635426  1
  O  O372  1  0.12674693  0.37527439  0.61884570  1
  O  O373  1  0.13093136  0.88549917  0.12799448  1
  O  O374  1  0.12847545  0.87480400  0.63340896  1
  O  O375  1  0.63019409  0.37699099  0.13369833  1
  O  O376  1  0.62848892  0.36041221  0.63897608  1
  O  O377  1  0.63385420  0.88438973  0.13135403  1
  O  O378  1  0.63782447  0.87927734  0.63030914  1
  O  O379  1  0.11887091  0.25347890  0.25385243  1
  O  O380  1  0.11770639  0.24983246  0.75877916  1
  O  O381  1  0.11726223  0.75697274  0.25735597  1
  O  O382  1  0.11814656  0.75596393  0.75308566  1
  O  O383  1  0.62004562  0.25737468  0.25590244  1
  O  O384  1  0.61762789  0.25568505  0.75927324  1
  O  O385  1  0.61531894  0.76055364  0.25728647  1
  O  O386  1  0.61279963  0.76093363  0.74237443  1
  O  O387  1  0.38259584  0.24779094  0.24276233  1
  O  O388  1  0.37928072  0.24685483  0.74616888  1
  O  O389  1  0.37649143  0.74389159  0.24506870  1
  O  O390  1  0.38432723  0.74430680  0.74164887  1
  O  O391  1  0.88133777  0.24258899  0.24476009  1
  O  O392  1  0.88019076  0.24574437  0.74019988  1
  O  O393  1  0.89205509  0.76275474  0.24338398  1
  O  O394  1  0.88869176  0.76133976  0.74830206  1
  O  O395  1  0.37391022  0.49250939  0.49594576  1
  O  O396  1  0.38857006  0.49309730  1.00107492  1
  O  O397  1  0.37817454  0.99367818  0.49458621  1
  O  O398  1  0.36981089  0.99319120  0.98994920  1
  O  O399  1  0.88309048  0.50292753  0.49510477  1
  O  O400  1  0.89189517  0.48190372  1.01442586  1
  O  O401  1  0.88302284  0.99418756  0.49558069  1
  O  O402  1  0.88335908  0.99909331  0.99965546  1
  O  O403  1  0.12208032  0.00437008  0.00385456  1
  O  O404  1  0.11129654  0.00107347  0.49881084  1
  O  O405  1  0.11656100  0.49491850  0.00890882  1
  O  O406  1  0.12203091  0.51134888  0.49606164  1
  O  O407  1  0.62822354  0.00723479  0.01045775  1
  O  O408  1  0.61437654  0.00153571  0.49979798  1
  O  O409  1  0.61276853  0.49188148  0.01219880  1
  O  O410  1  0.62420765  0.49946329  0.50871213  1
  O  O411  1  0.36988972  0.36440729  0.12134231  1
  O  O412  1  0.37907779  0.36863138  0.61588095  1
  O  O413  1  0.36711296  0.87180909  0.11913025  1
  O  O414  1  0.37226596  0.86774653  0.61724131  1
  O  O415  1  0.86813117  0.36411739  0.12407341  1
  O  O416  1  0.87774539  0.36140822  0.62245307  1
  O  O417  1  0.87168579  0.87277068  0.11997504  1
  O  O418  1  0.86283802  0.88286784  0.61477871  1
  O  O419  1  0.11852656  0.13830492  0.37608693  1
  O  O420  1  0.12434059  0.13056398  0.88557149  1
  O  O421  1  0.13123618  0.63164229  0.37648127  1
  O  O422  1  0.11917112  0.63700229  0.87658127  1
  O  O423  1  0.61838407  0.13623436  0.37646329  1
  O  O424  1  0.63070953  0.13000382  0.88104005  1
  O  O425  1  0.63404367  0.63946205  0.36654125  1
  O  O426  1  0.61661823  0.62466499  0.86872578  1
