# generated using pymatgen
data_V85Zn86O256
_symmetry_space_group_name_H-M   'P 1'
_cell_length_a   16.94830852
_cell_length_b   16.95276023
_cell_length_c   16.94818460
_cell_angle_alpha   90.02301407
_cell_angle_beta   89.92911815
_cell_angle_gamma   89.99777640
_symmetry_Int_Tables_number   1
_chemical_formula_structural   V85Zn86O256
_chemical_formula_sum   'V85 Zn86 O256'
_cell_volume   4869.55862663
_cell_formula_units_Z   1
loop_
 _symmetry_equiv_pos_site_id
 _symmetry_equiv_pos_as_xyz
  1  'x, y, z'
loop_
 _atom_site_type_symbol
 _atom_site_label
 _atom_site_symmetry_multiplicity
 _atom_site_fract_x
 _atom_site_fract_y
 _atom_site_fract_z
 _atom_site_occupancy
  V  V0  1  0.87697055  0.74617260  0.13018945  1
  V  V1  1  0.74414610  0.50120475  0.26897400  1
  V  V2  1  0.05745656  0.55851744  0.56496733  1
  V  V3  1  0.12324185  0.87413268  0.74938489  1
  V  V4  1  0.50147554  0.62151642  0.12242920  1
  V  V5  1  -0.00082888  0.13266559  0.62277205  1
  V  V6  1  0.37447537  0.50578340  0.88651960  1
  V  V7  1  0.37490765  0.74753798  0.12455163  1
  V  V8  1  0.87565460  0.00049755  0.37161639  1
  V  V9  1  0.24293142  0.36909095  0.13056106  1
  V  V10  1  0.62543837  0.25289887  0.87714999  1
  V  V11  1  0.36981492  0.74936043  0.62083305  1
  V  V12  1  0.50593893  0.87532169  0.36966979  1
  V  V13  1  0.85882996  0.26360250  0.62244454  1
  V  V14  1  0.87457558  -0.00102813  0.87485079  1
  V  V15  1  0.12568337  0.37624911  0.75698056  1
  V  V16  1  0.24314583  0.50153452  0.25157982  1
  V  V17  1  0.12324479  0.62270711  0.00132181  1
  V  V18  1  0.37517232  0.00009720  0.37039059  1
  V  V19  1  0.63259539  0.38446413  0.74506053  1
  V  V20  1  0.49810636  0.75039211  0.74843183  1
  V  V21  1  0.09587577  0.28999800  0.39962812  1
  V  V22  1  0.37478478  -0.00143391  0.87495231  1
  V  V23  1  0.87419519  0.62684573  0.26618153  1
  V  V24  1  0.49412376  0.36587140  0.38008373  1
  V  V25  1  -0.00612107  0.74074046  0.74254256  1
  V  V26  1  0.12475315  0.12523233  0.00320376  1
  V  V27  1  0.62148038  0.49829942  0.12360063  1
  V  V28  1  0.88491160  0.87474034  0.49879154  1
  V  V29  1  0.87230429  0.25149367  0.12475356  1
  V  V30  1  0.62688110  0.74835453  0.87447550  1
  V  V31  1  0.50571973  0.12440741  0.62081962  1
  V  V32  1  0.50023254  0.38317859  0.88196888  1
  V  V33  1  0.67344313  0.29634629  0.43049369  1
  V  V34  1  0.88155919  0.49251201  0.86760202  1
  V  V35  1  0.25592734  0.37572989  0.62581425  1
  V  V36  1  0.62669597  -0.00563786  0.13578342  1
  V  V37  1  0.00786333  0.26211463  0.24937000  1
  V  V38  1  -0.00150600  -0.00036816  0.00089580  1
  V  V39  1  0.74977242  0.37939516  0.12414492  1
  V  V40  1  0.24790195  0.12905618  0.87534297  1
  V  V41  1  0.85672662  0.12099637  0.25013215  1
  V  V42  1  0.62359740  0.61859963  -0.00233349  1
  V  V43  1  0.49854024  0.25256138  0.75284453  1
  V  V44  1  0.24659121  0.87307484  0.13080091  1
  V  V45  1  0.62402106  0.87577936  0.74608994  1
  V  V46  1  -0.00138060  0.12312383  0.13093215  1
  V  V47  1  0.12456727  0.00367667  0.62444361  1
  V  V48  1  0.26258620  0.25407596  0.49799404  1
  V  V49  1  0.10523485  0.87174066  0.25766037  1
  V  V50  1  -0.00330643  0.62325166  0.12926307  1
  V  V51  1  0.74708052  0.87561174  0.13970162  1
  V  V52  1  0.74983083  -0.00152367  0.74783830  1
  V  V53  1  0.50790563  -0.00014397  0.49726199  1
  V  V54  1  0.37755641  0.37072354  0.00966086  1
  V  V55  1  0.25014270  0.12903685  0.37205484  1
  V  V56  1  0.75164032  0.74873970  0.49511155  1
  V  V57  1  0.37324691  0.49994976  0.37956874  1
  V  V58  1  0.36835199  0.62491159  0.75630426  1
  V  V59  1  0.62486930  0.12284804  0.00031053  1
  V  V60  1  0.49714652  0.25156789  0.24634557  1
  V  V61  1  0.50065834  0.62280974  0.62284818  1
  V  V62  1  0.89938371  0.46845980  0.37360574  1
  V  V63  1  0.24982417  0.87663622  0.61694379  1
  V  V64  1  0.75628300  0.61701410  0.86409382  1
  V  V65  1  0.50135038  -0.00257302  -0.00049376  1
  V  V66  1  0.12721659  0.12694985  0.49440216  1
  V  V67  1  0.62978163  0.74461680  0.37083033  1
  V  V68  1  0.50690448  0.75281958  0.24681508  1
  V  V69  1  0.24962794  0.49920948  0.75371653  1
  V  V70  1  0.73905422  0.11787809  0.39478824  1
  V  V71  1  0.87545548  0.12522386  0.74845647  1
  V  V72  1  0.74919687  0.12540526  0.87642704  1
  V  V73  1  0.50448254  0.49592634  0.49948881  1
  V  V74  1  0.37324779  0.87230680  -0.00124978  1
  V  V75  1  0.11867230  0.74244504  0.37744637  1
  V  V76  1  0.24845237  0.74396949  -0.00396948  1
  V  V77  1  -0.00004817  0.87407116  0.87425502  1
  V  V78  1  -0.00002333  0.25421273  0.75643634  1
  V  V79  1  0.12571847  0.74358380  0.86984960  1
  V  V80  1  0.49120741  0.12903980  0.12266799  1
  V  V81  1  0.37144413  0.62522888  0.25542648  1
  V  V82  1  0.37589014  0.12524384  0.74959572  1
  V  V83  1  0.87112089  0.87143850  0.00169463  1
  V  V84  1  0.24952947  0.00141423  0.74965893  1
  Zn  Zn85  1  0.75259707  0.87382909  0.62135758  1
  Zn  Zn86  1  0.12061933  0.49704155  0.12970544  1
  Zn  Zn87  1  0.75051026  0.25226411  0.00005968  1
  Zn  Zn88  1  0.62983138  0.00220199  0.61630180  1
  Zn  Zn89  1  0.62464688  0.37023794  0.25400863  1
  Zn  Zn90  1  0.25494752  0.24606853  0.00863800  1
  Zn  Zn91  1  0.37922359  0.25274106  0.62111180  1
  Zn  Zn92  1  0.62932356  0.62493810  0.49648411  1
  Zn  Zn93  1  0.00033689  0.00347623  0.49550268  1
  Zn  Zn94  1  0.00107418  0.49319100  -0.00360299  1
  Zn  Zn95  1  0.87495882  0.73912926  0.62656559  1
  Zn  Zn96  1  0.25089819  0.71590263  0.47457002  1
  Zn  Zn97  1  0.24609081  0.00063314  0.24940209  1
  Zn  Zn98  1  0.37406182  0.87148672  0.49466283  1
  Zn  Zn99  1  0.49967437  0.87409854  0.87454028  1
  Zn  Zn100  1  0.12368147  -0.00296374  0.12803085  1
  Zn  Zn101  1  0.88331354  0.37502611  -0.00369110  1
  Zn  Zn102  1  0.63748780  0.50256370  0.62747635  1
  Zn  Zn103  1  0.80742554  0.55734076  0.68698990  1
  Zn  Zn104  1  0.75038185  0.74662587  0.00059308  1
  Zn  Zn105  1  0.11827471  0.25497239  0.88234759  1
  Zn  Zn106  1  0.36983896  0.13104322  0.24351205  1
  Zn  Zn107  1  0.18335739  0.19094670  0.19239687  1
  Zn  Zn108  1  0.18593974  0.19399387  0.68519338  1
  Zn  Zn109  1  0.18430870  0.68931834  0.19238273  1
  Zn  Zn110  1  0.20021854  0.66154411  0.64751705  1
  Zn  Zn111  1  0.67870173  0.18992896  0.18482120  1
  Zn  Zn112  1  0.68297647  0.18726768  0.69071129  1
  Zn  Zn113  1  0.69373203  0.68389508  0.18861268  1
  Zn  Zn114  1  0.68698441  0.69240622  0.68189581  1
  Zn  Zn115  1  0.31590454  0.31320717  0.30982670  1
  Zn  Zn116  1  0.31455227  0.31485735  0.81811593  1
  Zn  Zn117  1  0.31316054  0.81102227  0.31274860  1
  Zn  Zn118  1  0.30819725  0.81197867  0.81003324  1
  Zn  Zn119  1  0.81084121  0.30544893  0.30718714  1
  Zn  Zn120  1  0.81174069  0.31285979  0.80844258  1
  Zn  Zn121  1  0.81967576  0.81346105  0.31493151  1
  Zn  Zn122  1  0.81088088  0.81142651  0.81285000  1
  Zn  Zn123  1  0.19639054  0.44639301  0.44189695  1
  Zn  Zn124  1  0.19170960  0.43736221  0.93845669  1
  Zn  Zn125  1  0.18525647  0.93914455  0.43397960  1
  Zn  Zn126  1  0.18700044  0.93661790  0.93934557  1
  Zn  Zn127  1  0.73526831  0.46852536  0.48663489  1
  Zn  Zn128  1  0.69094090  0.43849384  0.93860411  1
  Zn  Zn129  1  0.69121434  0.93123713  0.43097868  1
  Zn  Zn130  1  0.68776980  0.93538135  0.93781611  1
  Zn  Zn131  1  0.31030978  0.05737670  0.06180294  1
  Zn  Zn132  1  0.31919075  0.06255046  0.55876509  1
  Zn  Zn133  1  0.30908332  0.56118477  0.06724689  1
  Zn  Zn134  1  0.31751068  0.55591812  0.56463929  1
  Zn  Zn135  1  0.80948277  0.06032968  0.06488047  1
  Zn  Zn136  1  0.81531166  0.06344648  0.56160733  1
  Zn  Zn137  1  0.81074297  0.56038096  0.05768391  1
  Zn  Zn138  1  0.83926442  0.58036241  0.53519461  1
  Zn  Zn139  1  0.43708186  0.43785845  0.19179329  1
  Zn  Zn140  1  0.43695054  0.43854031  0.69066808  1
  Zn  Zn141  1  0.43694841  0.93724712  0.18659815  1
  Zn  Zn142  1  0.43814171  0.93760475  0.68489160  1
  Zn  Zn143  1  0.93437692  0.44167308  0.18620764  1
  Zn  Zn144  1  0.93826619  0.43498558  0.69023913  1
  Zn  Zn145  1  0.93166433  0.93960494  0.18761245  1
  Zn  Zn146  1  0.93890428  0.93678810  0.68199945  1
  Zn  Zn147  1  0.06061013  0.06134604  0.31117347  1
  Zn  Zn148  1  0.06222846  0.06447044  0.81268326  1
  Zn  Zn149  1  0.05915404  0.56507472  0.31593995  1
  Zn  Zn150  1  0.06481776  0.56449147  0.80565486  1
  Zn  Zn151  1  0.56136375  0.06509221  0.30878323  1
  Zn  Zn152  1  0.56247214  0.06229247  0.81227270  1
  Zn  Zn153  1  0.55996295  0.56075686  0.31173317  1
  Zn  Zn154  1  0.55866592  0.56296436  0.81211659  1
  Zn  Zn155  1  0.44120690  0.18283418  0.43539936  1
  Zn  Zn156  1  0.43684923  0.18952912  0.93819223  1
  Zn  Zn157  1  0.44004663  0.68761180  0.43734668  1
  Zn  Zn158  1  0.44134722  0.68658244  0.93770137  1
  Zn  Zn159  1  0.95204235  0.23565507  0.46001726  1
  Zn  Zn160  1  0.93645437  0.18768796  0.93990290  1
  Zn  Zn161  1  0.95113243  0.69545381  0.43837630  1
  Zn  Zn162  1  0.93895231  0.68545168  0.93687490  1
  Zn  Zn163  1  0.06177241  0.31324106  0.06156247  1
  Zn  Zn164  1  0.06567640  0.39211842  0.56066059  1
  Zn  Zn165  1  0.06046429  0.80932484  0.06565433  1
  Zn  Zn166  1  0.06487760  0.80870080  0.55890487  1
  Zn  Zn167  1  0.56235972  0.31193878  0.06305232  1
  Zn  Zn168  1  0.55890090  0.31570783  0.56627667  1
  Zn  Zn169  1  0.56442427  0.81147534  0.06080561  1
  Zn  Zn170  1  0.56224463  0.81352220  0.55848592  1
  O  O171  1  0.11662591  0.12275510  0.12058929  1
  O  O172  1  0.11987191  0.12408303  0.61734786  1
  O  O173  1  0.11444002  0.62734369  0.11921027  1
  O  O174  1  0.10073978  0.60690677  0.64279527  1
  O  O175  1  0.61595056  0.11484954  0.11618671  1
  O  O176  1  0.60969592  0.11939944  0.63500381  1
  O  O177  1  0.62391739  0.61831371  0.11663960  1
  O  O178  1  0.60963888  0.62671310  0.62558609  1
  O  O179  1  0.38351383  0.38674260  0.37183163  1
  O  O180  1  0.38195199  0.38427719  0.88544527  1
  O  O181  1  0.38510392  0.88144121  0.37339542  1
  O  O182  1  0.37352667  0.88022886  0.88039028  1
  O  O183  1  0.88309759  0.36965964  0.36914394  1
  O  O184  1  0.86770965  0.38921451  0.87538376  1
  O  O185  1  0.87199153  0.88622424  0.38644830  1
  O  O186  1  0.87836212  0.87975029  0.88300360  1
  O  O187  1  0.25920736  0.00866802  0.37400802  1
  O  O188  1  0.25332811  0.00941379  0.87146057  1
  O  O189  1  0.26355548  0.50004705  0.36730695  1
  O  O190  1  0.26233120  0.49718491  0.86499096  1
  O  O191  1  0.75867773  0.00969490  0.38023371  1
  O  O192  1  0.75429369  0.00281983  0.86556559  1
  O  O193  1  0.73054910  0.49630107  0.36706454  1
  O  O194  1  0.75568476  0.51255766  0.87528006  1
  O  O195  1  0.24620749  0.49100448  0.13360642  1
  O  O196  1  0.26262142  0.48859525  0.64368288  1
  O  O197  1  0.24537757  0.98785564  0.12493400  1
  O  O198  1  0.24703365  0.99606108  0.63011560  1
  O  O199  1  0.74249421  0.49430097  0.13131335  1
  O  O200  1  0.74822438  0.51144251  0.59704188  1
  O  O201  1  0.73891174  0.98818659  0.11916191  1
  O  O202  1  0.74818802  0.99964687  0.63703682  1
  O  O203  1  -0.00294221  0.36041831  0.24171383  1
  O  O204  1  0.01202462  0.36566998  0.74735668  1
  O  O205  1  0.00720681  0.87501883  0.24562611  1
  O  O206  1  0.00811058  0.87598640  0.75637835  1
  O  O207  1  0.50077550  0.36934437  0.25904621  1
  O  O208  1  0.50274155  0.36867038  0.76259591  1
  O  O209  1  0.49505754  0.86272361  0.25420022  1
  O  O210  1  0.50678552  0.86975852  0.75210518  1
  O  O211  1  0.49720146  0.13134014  0.23897092  1
  O  O212  1  0.49496416  0.13269610  0.74770291  1
  O  O213  1  0.49120646  0.63118056  0.24172521  1
  O  O214  1  0.49070965  0.63117118  0.74417700  1
  O  O215  1  0.99374271  0.12777125  0.23814657  1
  O  O216  1  0.99520146  0.12920022  0.74399684  1
  O  O217  1  0.98854220  0.61707070  0.23687019  1
  O  O218  1  0.99586883  0.64357116  0.75936870  1
  O  O219  1  0.37148920  0.26389372  -0.00481360  1
  O  O220  1  0.36640928  0.24284604  0.50135324  1
  O  O221  1  0.36709194  0.75247245  0.00215645  1
  O  O222  1  0.36819513  0.75011365  0.50741052  1
  O  O223  1  0.87320725  0.24909982  0.01407535  1
  O  O224  1  0.86339225  0.24054360  0.52298839  1
  O  O225  1  0.87286240  0.75640717  0.00547498  1
  O  O226  1  0.87201283  0.76191533  0.49596178  1
  O  O227  1  0.14644474  0.23585115  0.48649099  1
  O  O228  1  0.12876195  0.23623109  1.00108639  1
  O  O229  1  0.13175435  0.75928675  0.48279907  1
  O  O230  1  0.12941537  0.74239738  0.99451590  1
  O  O231  1  0.61399692  0.24595574  0.49344869  1
  O  O232  1  0.62664742  0.24190258  0.99406478  1
  O  O233  1  0.63230106  0.75105820  0.48998344  1
  O  O234  1  0.62787981  0.74368981  0.98884806  1
  O  O235  1  0.50151586  0.23856952  0.12813849  1
  O  O236  1  0.49785503  0.24276920  0.63518419  1
  O  O237  1  0.49599464  0.74499136  0.13014986  1
  O  O238  1  0.48811928  0.74686151  0.62745446  1
  O  O239  1  0.99488958  0.24229989  0.13402624  1
  O  O240  1  0.98896069  0.23761302  0.63879820  1
  O  O241  1  0.98443747  0.74202184  0.12114212  1
  O  O242  1  1.00141204  0.75601057  0.63971301  1
  O  O243  1  0.00107612  0.24083251  0.35713137  1
  O  O244  1  -0.00046017  0.24122651  0.86151806  1
  O  O245  1  0.01750196  0.75733800  0.37130826  1
  O  O246  1  0.00583224  0.75778209  0.87042813  1
  O  O247  1  0.49209482  0.25953468  0.36768965  1
  O  O248  1  0.50617301  0.25723110  0.87028573  1
  O  O249  1  0.50364867  0.75773810  0.36586524  1
  O  O250  1  0.51255113  0.74977281  0.86819843  1
  O  O251  1  0.24738906  0.12832066  0.49345710  1
  O  O252  1  0.24237685  0.12396636  0.99462146  1
  O  O253  1  0.24027325  0.63152880  0.54308060  1
  O  O254  1  0.24228044  0.63794463  1.00735126  1
  O  O255  1  0.74146464  0.12022141  0.49425650  1
  O  O256  1  0.74277870  0.12495277  0.99383699  1
  O  O257  1  0.74993838  0.64473776  0.48865780  1
  O  O258  1  0.73845064  0.62662099  0.98884877  1
  O  O259  1  0.25745975  0.37327120  0.01365108  1
  O  O260  1  0.24939490  0.36612183  0.51183962  1
  O  O261  1  0.25085890  0.86464345  0.00946642  1
  O  O262  1  0.25202267  0.88340897  0.51318779  1
  O  O263  1  0.75351760  0.37384209  0.01308181  1
  O  O264  1  0.73004234  0.35460079  0.48709426  1
  O  O265  1  0.76238467  0.87225520  0.00144787  1
  O  O266  1  0.75938692  0.86711737  0.50039721  1
  O  O267  1  0.14042648  0.50889131  0.25172246  1
  O  O268  1  0.13765406  0.49117143  0.75998165  1
  O  O269  1  0.12482419  0.98636714  0.24743316  1
  O  O270  1  0.13009254  0.99599842  0.74437399  1
  O  O271  1  0.63056685  0.49907349  0.24184084  1
  O  O272  1  0.61910703  0.48891609  0.74810972  1
  O  O273  1  0.61705099  0.99700068  0.23429085  1
  O  O274  1  0.63234383  0.99079980  0.75190469  1
  O  O275  1  0.37497437  0.00218398  0.26051841  1
  O  O276  1  0.37016270  0.00447169  0.75576084  1
  O  O277  1  0.37041725  0.50882725  0.25780481  1
  O  O278  1  0.37290959  0.50825562  0.76247093  1
  O  O279  1  0.87500522  0.00958106  0.25699091  1
  O  O280  1  0.86790817  0.00277376  0.75449651  1
  O  O281  1  0.86748928  0.50127108  0.26889459  1
  O  O282  1  0.87187032  0.49707700  0.76091701  1
  O  O283  1  0.14474743  0.37065179  0.36870742  1
  O  O284  1  0.13554730  0.36917622  0.86421169  1
  O  O285  1  0.12499922  0.87663897  0.36007107  1
  O  O286  1  0.12007935  0.86782729  0.87131403  1
  O  O287  1  0.61318745  0.36371730  0.37433691  1
  O  O288  1  0.61716842  0.37379910  0.87171435  1
  O  O289  1  0.61156521  0.86614709  0.37313918  1
  O  O290  1  0.62618982  0.86526018  0.86484218  1
  O  O291  1  0.38748262  0.11651149  0.12261099  1
  O  O292  1  0.38588271  0.12503524  0.63443844  1
  O  O293  1  0.38299243  0.62960387  0.12832895  1
  O  O294  1  0.38513402  0.63299162  0.63476290  1
  O  O295  1  0.88018622  0.13029101  0.12796921  1
  O  O296  1  0.88295466  0.12352818  0.63403838  1
  O  O297  1  0.87822842  0.62968121  0.12804673  1
  O  O298  1  0.87735924  0.62528617  0.62700034  1
  O  O299  1  0.24906582  0.26418848  0.12910253  1
  O  O300  1  0.25575328  0.25387873  0.61575781  1
  O  O301  1  0.25520571  0.75523289  0.11848847  1
  O  O302  1  0.26272326  0.76313075  0.63813713  1
  O  O303  1  0.75657747  0.25867510  0.12588431  1
  O  O304  1  0.76054890  0.24871485  0.63997148  1
  O  O305  1  0.75893639  0.75605929  0.12188190  1
  O  O306  1  0.75329541  0.75395337  0.61300158  1
  O  O307  1  0.25819073  0.23828603  0.37881252  1
  O  O308  1  0.25016757  0.23548218  0.87676567  1
  O  O309  1  0.23651232  0.75529382  0.37141927  1
  O  O310  1  0.23837782  0.75587243  0.88415231  1
  O  O311  1  0.74182089  0.23694640  0.37180978  1
  O  O312  1  0.74355458  0.24407074  0.87638568  1
  O  O313  1  0.73711011  0.76122031  0.37737955  1
  O  O314  1  0.74047533  0.73926626  0.87306846  1
  O  O315  1  0.00556659  0.12190071  0.01025211  1
  O  O316  1  0.01174230  0.13476836  0.50781950  1
  O  O317  1  0.00691127  0.62333925  0.00959080  1
  O  O318  1  0.00524662  0.62068253  0.50542229  1
  O  O319  1  0.50428807  0.11872770  0.00424731  1
  O  O320  1  0.49620181  0.11421734  0.50940382  1
  O  O321  1  0.51473440  0.62990176  0.00652177  1
  O  O322  1  0.50060976  0.61983712  0.50894454  1
  O  O323  1  0.49900595  0.38299268  0.49257984  1
  O  O324  1  0.49343006  0.37152386  0.99044373  1
  O  O325  1  0.49529364  0.88017471  0.48920999  1
  O  O326  1  0.49280819  0.87919013  0.99700066  1
  O  O327  1  1.02718644  0.32786583  0.47637881  1
  O  O328  1  0.99768363  0.37863012  1.00126610  1
  O  O329  1  0.98820049  0.87907846  0.50345241  1
  O  O330  1  0.98949184  0.87795043  0.99680114  1
  O  O331  1  0.49516926  0.49056344  0.38064907  1
  O  O332  1  0.49067738  0.49205219  0.87394477  1
  O  O333  1  0.49626143  0.99420449  0.37718537  1
  O  O334  1  0.49412052  0.99819128  0.88268304  1
  O  O335  1  0.99741765  0.48758009  0.37442778  1
  O  O336  1  0.98344213  0.50982391  0.87300625  1
  O  O337  1  0.98078683  1.01448727  0.37916723  1
  O  O338  1  0.99454287  0.99456303  0.88099761  1
  O  O339  1  -0.00160600  0.00745650  0.11813652  1
  O  O340  1  0.00732145  0.01420223  0.62280715  1
  O  O341  1  0.00184157  0.50823301  0.12146576  1
  O  O342  1  -0.00257524  0.48026266  0.60338339  1
  O  O343  1  0.50575082  0.00255764  0.11540679  1
  O  O344  1  0.50047494  0.00560379  0.61470869  1
  O  O345  1  0.51357187  0.50503902  0.13148457  1
  O  O346  1  0.49584429  0.50833495  0.61743533  1
  O  O347  1  0.26149296  0.38527047  0.23590770  1
  O  O348  1  0.24787959  0.37967806  0.74917373  1
  O  O349  1  0.25172684  0.87646032  0.23663252  1
  O  O350  1  0.24270484  0.88380453  0.74290427  1
  O  O351  1  0.74700759  0.38186859  0.24113012  1
  O  O352  1  0.73037362  0.37478115  0.75589260  1
  O  O353  1  0.75456727  0.87334321  0.23827979  1
  O  O354  1  0.74264077  0.88185825  0.74832811  1
  O  O355  1  0.25032590  0.12237526  0.25659994  1
  O  O356  1  0.25372918  0.12118872  0.75647595  1
  O  O357  1  0.26467186  0.61790793  0.23861773  1
  O  O358  1  0.26244451  0.61761380  0.74264406  1
  O  O359  1  0.75672417  0.12584674  0.23869283  1
  O  O360  1  0.75309309  0.11599596  0.75726012  1
  O  O361  1  0.76223757  0.61154434  0.24721847  1
  O  O362  1  0.74196783  0.62472780  0.76054604  1
  O  O363  1  0.36864558  0.11605604  0.37103651  1
  O  O364  1  0.36813206  0.11830460  0.87086508  1
  O  O365  1  0.38293183  0.61756090  0.36422020  1
  O  O366  1  0.38014101  0.61881271  0.86835469  1
  O  O367  1  0.85381511  0.12004689  0.36304163  1
  O  O368  1  0.86944411  0.11787016  0.87020545  1
  O  O369  1  0.88717783  0.62827811  0.36583426  1
  O  O370  1  0.85933809  0.62235461  0.87685817  1
  O  O371  1  0.13979101  0.37744741  0.12377567  1
  O  O372  1  0.14412070  0.36984164  0.64355730  1
  O  O373  1  0.12995011  0.87198195  0.13455634  1
  O  O374  1  0.13226713  0.88136323  0.62929170  1
  O  O375  1  0.63100646  0.38295866  0.12535900  1
  O  O376  1  0.61695611  0.37898783  0.64200630  1
  O  O377  1  0.63580187  0.88175400  0.11678209  1
  O  O378  1  0.62503858  0.87682532  0.63659172  1
  O  O379  1  0.11013769  0.25028993  0.25934720  1
  O  O380  1  0.11646693  0.25487945  0.75441944  1
  O  O381  1  0.12770887  0.76579849  0.25630633  1
  O  O382  1  0.11478309  0.75788435  0.75888623  1
  O  O383  1  0.60650411  0.25280576  0.24438179  1
  O  O384  1  0.61350906  0.25865652  0.75729473  1
  O  O385  1  0.61392170  0.74261482  0.25186898  1
  O  O386  1  0.61948326  0.75739332  0.75429941  1
  O  O387  1  0.38920403  0.24788850  0.24846300  1
  O  O388  1  0.38734727  0.24491707  0.75600082  1
  O  O389  1  0.38349269  0.74251659  0.24414220  1
  O  O390  1  0.37931924  0.74378270  0.74677762  1
  O  O391  1  0.88192819  0.23992958  0.23878004  1
  O  O392  1  0.88100889  0.24362066  0.74657481  1
  O  O393  1  0.86902520  0.73872735  0.24222809  1
  O  O394  1  0.89042555  0.76197248  0.74850600  1
  O  O395  1  0.38735793  0.50715299  0.48825464  1
  O  O396  1  0.36899703  0.49631814  0.99070543  1
  O  O397  1  0.38574775  0.99721720  0.48634347  1
  O  O398  1  0.38038739  0.99198847  0.99390758  1
  O  O399  1  0.85606938  0.49412202  0.46433408  1
  O  O400  1  0.87499931  0.49992080  0.98369024  1
  O  O401  1  0.87689969  0.99093633  0.49454199  1
  O  O402  1  0.87935752  0.99254203  0.99576705  1
  O  O403  1  0.11778542  0.00916229  0.00226498  1
  O  O404  1  0.12333374  0.01109700  0.50529049  1
  O  O405  1  0.12861298  0.51512885  -0.00156119  1
  O  O406  1  0.12219494  0.49341034  0.51343553  1
  O  O407  1  0.61744228  0.00438402  0.00069679  1
  O  O408  1  0.61199196  -0.01042840  0.49836434  1
  O  O409  1  0.62874777  0.50755454  0.00899767  1
  O  O410  1  0.61214123  0.50560383  0.50207021  1
  O  O411  1  0.36966263  0.38543733  0.11320737  1
  O  O412  1  0.36344586  0.36871695  0.63606466  1
  O  O413  1  0.36786062  0.86760519  0.11780136  1
  O  O414  1  0.36812110  0.86749505  0.62331271  1
  O  O415  1  0.86609215  0.36757493  0.12672297  1
  O  O416  1  0.87291497  0.36232026  0.62927779  1
  O  O417  1  0.86874409  0.86772566  0.11916332  1
  O  O418  1  0.87318693  0.87485132  0.61007493  1
  O  O419  1  0.13535017  0.11749802  0.38253864  1
  O  O420  1  0.13217861  0.12478398  0.88456216  1
  O  O421  1  0.12357078  0.64166613  0.36830350  1
  O  O422  1  0.11959357  0.63768526  0.88305492  1
  O  O423  1  0.64184309  0.11661740  0.36891970  1
  O  O424  1  0.62899373  0.13086909  0.88049130  1
  O  O425  1  0.61344351  0.64094336  0.37563575  1
  O  O426  1  0.63041736  0.62834246  0.87903011  1
