# generated using pymatgen
data_V85Zn86O256
_symmetry_space_group_name_H-M   'P 1'
_cell_length_a   16.93643926
_cell_length_b   16.94169385
_cell_length_c   16.94694769
_cell_angle_alpha   89.98223841
_cell_angle_beta   89.97102888
_cell_angle_gamma   89.94057575
_symmetry_Int_Tables_number   1
_chemical_formula_structural   V85Zn86O256
_chemical_formula_sum   'V85 Zn86 O256'
_cell_volume   4862.61759727
_cell_formula_units_Z   1
loop_
 _symmetry_equiv_pos_site_id
 _symmetry_equiv_pos_as_xyz
  1  'x, y, z'
loop_
 _atom_site_type_symbol
 _atom_site_label
 _atom_site_symmetry_multiplicity
 _atom_site_fract_x
 _atom_site_fract_y
 _atom_site_fract_z
 _atom_site_occupancy
  V  V0  1  0.62755362  0.50765311  0.61915677  1
  V  V1  1  0.73211099  0.74718028  0.00551763  1
  V  V2  1  0.00155805  0.37140070  0.87288171  1
  V  V3  1  0.00159316  0.23411319  0.74540407  1
  V  V4  1  0.12074258  0.50542955  0.62515702  1
  V  V5  1  0.50451534  0.50576882  0.49705103  1
  V  V6  1  0.12724039  0.62625235  -0.00096231  1
  V  V7  1  0.87128347  0.25052122  0.12414807  1
  V  V8  1  0.62582797  0.12245999  -0.00151258  1
  V  V9  1  0.49601463  0.24749574  0.73596284  1
  V  V10  1  0.37235546  0.62488368  0.24907002  1
  V  V11  1  0.74645872  0.38776309  0.12571032  1
  V  V12  1  0.26123539  0.11391604  0.87620666  1
  V  V13  1  0.24832474  0.62832270  0.86451220  1
  V  V14  1  0.12609669  0.37158612  0.74739341  1
  V  V15  1  0.37348453  0.74800234  0.12750985  1
  V  V16  1  0.50385711  0.36854692  0.37482970  1
  V  V17  1  0.62300526  0.86190260  0.75649867  1
  V  V18  1  0.73713442  0.12591179  0.37733962  1
  V  V19  1  0.12154257  0.63041757  0.50199324  1
  V  V20  1  -0.00033504  0.25228658  0.25215773  1
  V  V21  1  0.24625478  0.76349502  0.49935347  1
  V  V22  1  0.62449229  -0.00563738  0.12491964  1
  V  V23  1  0.11139905  0.75850716  0.87315812  1
  V  V24  1  0.13054539  0.12921631  -0.00019800  1
  V  V25  1  0.37277087  0.49818380  0.37671343  1
  V  V26  1  0.36910393  -0.00711482  0.38736976  1
  V  V27  1  0.25471595  0.25103766  0.49939417  1
  V  V28  1  0.25081859  0.87746063  0.12908937  1
  V  V29  1  0.12477958  0.87036011  0.25456506  1
  V  V30  1  0.37493292  0.37103825  0.00024396  1
  V  V31  1  0.00037042  0.49843828  -0.00002880  1
  V  V32  1  0.11000222  0.87346198  0.74468440  1
  V  V33  1  0.87887048  -0.00375441  0.87557111  1
  V  V34  1  0.25892160  0.37591808  0.62216338  1
  V  V35  1  0.50748051  0.24679361  0.25172577  1
  V  V36  1  0.62713526  0.24968162  0.87352733  1
  V  V37  1  0.87243741  0.12392755  0.25049834  1
  V  V38  1  0.74131815  0.63519371  0.87348415  1
  V  V39  1  -0.00659966  0.74975509  0.25804742  1
  V  V40  1  0.37040433  0.24808619  0.12437972  1
  V  V41  1  0.00025726  -0.00418430  -0.00311953  1
  V  V42  1  -0.00246592  0.50075999  0.50137754  1
  V  V43  1  0.49895340  0.12265378  0.12305040  1
  V  V44  1  0.87605171  0.50044648  0.87219529  1
  V  V45  1  -0.00115982  0.12486824  0.12375302  1
  V  V46  1  0.75314096  0.50331042  0.74877945  1
  V  V47  1  0.50202149  0.75451801  0.25469349  1
  V  V48  1  -0.00042002  0.00717513  0.50557097  1
  V  V49  1  0.87940477  0.86274710  0.00386526  1
  V  V50  1  0.12424022  0.00997894  0.62947953  1
  V  V51  1  0.75347138  0.87045925  0.62410058  1
  V  V52  1  0.24816508  0.74946147  -0.00018855  1
  V  V53  1  0.49887168  -0.00177587  -0.01418979  1
  V  V54  1  0.62871812  0.37546306  0.74733288  1
  V  V55  1  0.74799649  -0.00377281  0.25126807  1
  V  V56  1  0.12792494  0.00018968  0.13013606  1
  V  V57  1  0.87057501  0.50234221  0.36436741  1
  V  V58  1  0.75131017  0.24942692  0.00043728  1
  V  V59  1  0.50226843  0.37466872  0.87617387  1
  V  V60  1  0.73981499  0.62638526  0.37473580  1
  V  V61  1  0.24330158  0.62741380  0.37682237  1
  V  V62  1  0.13469034  0.24810736  0.87293954  1
  V  V63  1  0.61984204  0.00827206  0.62848870  1
  V  V64  1  0.36716784  0.75726709  0.61486132  1
  V  V65  1  -0.00732223  0.63373088  0.12355668  1
  V  V66  1  0.75794590  0.12474811  0.87152007  1
  V  V67  1  0.88036412  0.23958984  0.62537551  1
  V  V68  1  0.37598008  0.50063157  0.87451579  1
  V  V69  1  0.88869749  0.63527869  0.74573099  1
  V  V70  1  0.37051277  0.11467548  0.24955437  1
  V  V71  1  0.25942276  -0.00892666  0.74682053  1
  V  V72  1  0.87498920  -0.00326360  0.37780680  1
  V  V73  1  0.49654988  0.63378527  0.62038444  1
  V  V74  1  0.75606834  0.00044649  0.75057042  1
  V  V75  1  0.62838544  0.38822448  0.24806083  1
  V  V76  1  0.12471345  0.50111562  0.12635947  1
  V  V77  1  0.24403114  0.12545010  0.37103584  1
  V  V78  1  0.24941469  0.37384333  0.12243334  1
  V  V79  1  0.37339356  0.87868417  -0.01023015  1
  V  V80  1  0.74662499  0.25171115  0.49779730  1
  V  V81  1  0.51476067  0.62089688  0.12644323  1
  V  V82  1  0.51340978  0.50015786  0.00614102  1
  V  V83  1  0.42836051  0.68174187  0.78952692  1
  V  V84  1  0.25526248  0.50142258  0.74840659  1
  Zn  Zn85  1  0.00408346  0.87453499  0.37773162  1
  Zn  Zn86  1  0.62395438  0.87303360  0.25727809  1
  Zn  Zn87  1  0.24832454  0.49881299  0.25139511  1
  Zn  Zn88  1  0.89265930  0.75090827  0.62247526  1
  Zn  Zn89  1  0.87943508  0.87061781  0.50131547  1
  Zn  Zn90  1  0.75314868  0.86560320  0.12951367  1
  Zn  Zn91  1  0.00056779  0.37737751  0.37375651  1
  Zn  Zn92  1  0.49136554  0.00323678  0.51325103  1
  Zn  Zn93  1  0.87390049  0.37417539  -0.00172483  1
  Zn  Zn94  1  0.12297198  0.25515654  0.37685456  1
  Zn  Zn95  1  0.86663806  0.62753050  0.24311559  1
  Zn  Zn96  1  0.38959745  0.11366642  0.74066650  1
  Zn  Zn97  1  0.61339618  0.13200104  0.50555858  1
  Zn  Zn98  1  0.50271316  0.85660346  0.87240549  1
  Zn  Zn99  1  0.87649320  0.37559726  0.49993534  1
  Zn  Zn100  1  0.12523654  0.37435217  0.24986282  1
  Zn  Zn101  1  0.12059209  0.13269342  0.50797815  1
  Zn  Zn102  1  0.75534355  0.37761670  0.62082117  1
  Zn  Zn103  1  0.74958523  0.74112945  0.50431168  1
  Zn  Zn104  1  0.49737765  0.87430154  0.39392358  1
  Zn  Zn105  1  0.62107404  0.75348473  0.39031708  1
  Zn  Zn106  1  0.37981587  0.37119391  0.50271457  1
  Zn  Zn107  1  0.18799617  0.18864156  0.18735163  1
  Zn  Zn108  1  0.22795009  0.17319650  0.67566766  1
  Zn  Zn109  1  0.18307583  0.68874287  0.18996399  1
  Zn  Zn110  1  0.06757850  0.68983836  0.68755434  1
  Zn  Zn111  1  0.68677135  0.18585740  0.18718034  1
  Zn  Zn112  1  0.69544838  0.18971084  0.68843595  1
  Zn  Zn113  1  0.68788489  0.68559624  0.19489913  1
  Zn  Zn114  1  0.68946898  0.68607550  0.68529003  1
  Zn  Zn115  1  0.31433165  0.30987689  0.30996318  1
  Zn  Zn116  1  0.31328856  0.31229695  0.81159673  1
  Zn  Zn117  1  0.30860137  0.81075929  0.31375012  1
  Zn  Zn118  1  0.30237454  0.81548287  0.81231868  1
  Zn  Zn119  1  0.81118275  0.31495596  0.31512592  1
  Zn  Zn120  1  0.81657327  0.31139506  0.80668515  1
  Zn  Zn121  1  0.81261144  0.80978126  0.31473967  1
  Zn  Zn122  1  0.81541862  0.81439922  0.81516022  1
  Zn  Zn123  1  0.18427213  0.43668683  0.43691695  1
  Zn  Zn124  1  0.19002218  0.43647718  0.93904694  1
  Zn  Zn125  1  0.18587606  0.94688809  0.43679807  1
  Zn  Zn126  1  0.18595924  0.93732069  0.93668159  1
  Zn  Zn127  1  0.68893958  0.43712370  0.43405630  1
  Zn  Zn128  1  0.69260595  0.43799214  0.93638972  1
  Zn  Zn129  1  0.68156884  0.93417136  0.44259866  1
  Zn  Zn130  1  0.68991461  0.93233029  0.93677487  1
  Zn  Zn131  1  0.31207030  0.05934554  0.06146562  1
  Zn  Zn132  1  0.31061857  0.06724472  0.56565598  1
  Zn  Zn133  1  0.31514932  0.55994588  0.06090553  1
  Zn  Zn134  1  0.31342575  0.56782313  0.56328786  1
  Zn  Zn135  1  0.81215553  0.05911156  0.06179587  1
  Zn  Zn136  1  0.80939750  0.06275520  0.56156192  1
  Zn  Zn137  1  0.81099204  0.56608819  0.05692254  1
  Zn  Zn138  1  0.81524217  0.56521840  0.56054581  1
  Zn  Zn139  1  0.43900299  0.43773343  0.18944708  1
  Zn  Zn140  1  0.44092990  0.44072761  0.68759046  1
  Zn  Zn141  1  0.43686159  0.93670499  0.18393029  1
  Zn  Zn142  1  0.44226277  0.92877948  0.68780776  1
  Zn  Zn143  1  0.93606716  0.43629352  0.18415111  1
  Zn  Zn144  1  0.93862089  0.43254126  0.68470746  1
  Zn  Zn145  1  0.93656180  0.93481969  0.18488577  1
  Zn  Zn146  1  0.93854961  0.94192609  0.68592111  1
  Zn  Zn147  1  0.05960094  0.06222265  0.31246965  1
  Zn  Zn148  1  0.06742972  0.05970647  0.81510523  1
  Zn  Zn149  1  0.05945179  0.56377923  0.31307832  1
  Zn  Zn150  1  0.06634739  0.55928953  0.81473658  1
  Zn  Zn151  1  0.55678919  0.05768298  0.31493341  1
  Zn  Zn152  1  0.56882273  0.06358439  0.80798600  1
  Zn  Zn153  1  0.56019984  0.56402523  0.31083649  1
  Zn  Zn154  1  0.56617108  0.55758148  0.81380330  1
  Zn  Zn155  1  0.43598085  0.18264482  0.44028096  1
  Zn  Zn156  1  0.43914433  0.18932938  0.93379573  1
  Zn  Zn157  1  0.43422286  0.68709370  0.43750405  1
  Zn  Zn158  1  0.43818828  0.68549518  0.95498969  1
  Zn  Zn159  1  0.93247219  0.18518264  0.43689293  1
  Zn  Zn160  1  0.94079491  0.18564343  0.93575120  1
  Zn  Zn161  1  0.93276499  0.68599152  0.43963501  1
  Zn  Zn162  1  0.93552002  0.68351569  0.93578351  1
  Zn  Zn163  1  0.06177864  0.31108340  0.06122855  1
  Zn  Zn164  1  0.06539736  0.31487080  0.56194513  1
  Zn  Zn165  1  0.06202695  0.81262235  0.06358539  1
  Zn  Zn166  1  0.06616683  0.82235853  0.55977637  1
  Zn  Zn167  1  0.56331003  0.31179318  0.06489849  1
  Zn  Zn168  1  0.56769450  0.31851085  0.56081025  1
  Zn  Zn169  1  0.55879973  0.81325204  0.06618154  1
  Zn  Zn170  1  0.56636126  0.81931754  0.55988485  1
  O  O171  1  0.12280439  0.11899435  0.11806156  1
  O  O172  1  0.13378539  0.11370723  0.62898655  1
  O  O173  1  0.11919271  0.61768043  0.11813487  1
  O  O174  1  0.12645990  0.61355885  0.61828842  1
  O  O175  1  0.62045377  0.11487260  0.11794383  1
  O  O176  1  0.63491782  0.11078946  0.63072889  1
  O  O177  1  0.61356521  0.62434189  0.13130649  1
  O  O178  1  0.61590091  0.61383617  0.63262509  1
  O  O179  1  0.38474425  0.38326977  0.37199912  1
  O  O180  1  0.37994299  0.37739181  0.88416927  1
  O  O181  1  0.36916566  0.89167435  0.36826128  1
  O  O182  1  0.37526767  0.86820476  0.88720928  1
  O  O183  1  0.87662174  0.38880163  0.37657839  1
  O  O184  1  0.88041487  0.38354416  0.87345991  1
  O  O185  1  0.87378319  0.88777868  0.37598505  1
  O  O186  1  0.87061866  0.88707883  0.88897896  1
  O  O187  1  0.25953835  0.01022981  0.37322459  1
  O  O188  1  0.25077541  0.00459679  0.86883686  1
  O  O189  1  0.25787390  0.50577391  0.37355527  1
  O  O190  1  0.25646632  0.50712172  0.87241649  1
  O  O191  1  0.75362533  0.00479303  0.36899724  1
  O  O192  1  0.75742378  0.00594089  0.87208743  1
  O  O193  1  0.76344747  0.50680643  0.37704361  1
  O  O194  1  0.75949381  0.50926035  0.87067864  1
  O  O195  1  0.24231261  0.49333332  0.12543942  1
  O  O196  1  0.24460652  0.49663797  0.62989080  1
  O  O197  1  0.24018570  0.98999547  0.12089099  1
  O  O198  1  0.24198567  0.99767722  0.64100973  1
  O  O199  1  0.75386361  0.48696196  0.11630997  1
  O  O200  1  0.74381673  0.50230037  0.63012522  1
  O  O201  1  0.74108748  0.99994787  0.13350740  1
  O  O202  1  0.74911640  0.99300983  0.63604716  1
  O  O203  1  0.00015416  0.36359795  0.24706833  1
  O  O204  1  0.00945903  0.37032355  0.75669328  1
  O  O205  1  0.00500740  0.86405846  0.24736951  1
  O  O206  1  0.01157879  0.88285494  0.75506027  1
  O  O207  1  0.50890153  0.36782016  0.25371827  1
  O  O208  1  0.51277354  0.37212715  0.75488517  1
  O  O209  1  0.49701955  0.86072161  0.24537252  1
  O  O210  1  0.51746173  0.87506269  0.75566041  1
  O  O211  1  0.49327940  0.13006773  0.24394091  1
  O  O212  1  0.50216453  0.14159550  0.75469326  1
  O  O213  1  0.49214664  0.63337794  0.24531325  1
  O  O214  1  0.49666697  0.61822621  0.74164863  1
  O  O215  1  0.99219491  0.13085065  0.24259027  1
  O  O216  1  1.00375125  0.13548098  0.75625728  1
  O  O217  1  1.00138131  0.63782384  0.24252469  1
  O  O218  1  0.99328050  0.62342026  0.75280836  1
  O  O219  1  0.38312849  0.26249735  0.00793918  1
  O  O220  1  0.36000882  0.25420864  0.49292528  1
  O  O221  1  0.36766718  0.75816033  0.00890559  1
  O  O222  1  0.36341348  0.74757880  0.50657124  1
  O  O223  1  0.86954358  0.24973841  0.00542543  1
  O  O224  1  0.86915778  0.25092092  0.50924531  1
  O  O225  1  0.87369545  0.76107353  -0.00438434  1
  O  O226  1  0.86942081  0.75305707  0.50530333  1
  O  O227  1  0.13410720  0.24977382  0.49570175  1
  O  O228  1  0.12032534  0.23748957  0.99129192  1
  O  O229  1  0.13753002  0.74323452  0.50381268  1
  O  O230  1  0.13036810  0.74712684  0.99350771  1
  O  O231  1  0.64115852  0.24806533  0.50857160  1
  O  O232  1  0.63100189  0.24364927  0.99445228  1
  O  O233  1  0.63496063  0.75161655  0.50455524  1
  O  O234  1  0.63372727  0.75428995  0.99746878  1
  O  O235  1  0.49079608  0.24256318  0.12959302  1
  O  O236  1  0.50601132  0.25768789  0.63766894  1
  O  O237  1  0.49319523  0.74095966  0.13043740  1
  O  O238  1  0.49052393  0.73780439  0.61922398  1
  O  O239  1  0.99075650  0.24406106  0.12851031  1
  O  O240  1  0.99113708  0.25297786  0.63081671  1
  O  O241  1  1.00435331  0.73959890  0.13124094  1
  O  O242  1  1.00518619  0.75516182  0.62402697  1
  O  O243  1  -0.00237087  0.25047134  0.36450906  1
  O  O244  1  0.00847748  0.25331928  0.86793142  1
  O  O245  1  -0.00270559  0.75243703  0.36178904  1
  O  O246  1  0.01301492  0.74607250  0.88004347  1
  O  O247  1  0.49240803  0.26092566  0.36660240  1
  O  O248  1  0.51076858  0.25855721  0.87137781  1
  O  O249  1  0.49706237  0.75272890  0.36827521  1
  O  O250  1  0.48319831  0.73675597  0.86130493  1
  O  O251  1  0.24479415  0.13455120  0.48896352  1
  O  O252  1  0.24075969  0.11734835  0.99133680  1
  O  O253  1  0.23955754  0.62829498  0.49386438  1
  O  O254  1  0.24653029  0.62813175  0.99094919  1
  O  O255  1  0.74676118  0.13120858  0.49125399  1
  O  O256  1  0.74556255  0.12842808  0.99162402  1
  O  O257  1  0.75670785  0.62253142  0.48119582  1
  O  O258  1  0.75436725  0.63844805  0.98756491  1
  O  O259  1  0.26012215  0.37812199  0.01197751  1
  O  O260  1  0.25251782  0.37194493  0.50618388  1
  O  O261  1  0.25544318  0.87166388  0.00837733  1
  O  O262  1  0.24149608  0.86185666  0.49301172  1
  O  O263  1  0.75033337  0.36619480  0.00705146  1
  O  O264  1  0.75301824  0.36626587  0.49867949  1
  O  O265  1  0.75758686  0.85964755  0.00052189  1
  O  O266  1  0.75358494  0.88039152  0.51836172  1
  O  O267  1  0.12427355  0.50031680  0.23578819  1
  O  O268  1  0.13307731  0.49368651  0.74426459  1
  O  O269  1  0.11466922  0.99344463  0.23404305  1
  O  O270  1  0.12884421  0.99082131  0.74765212  1
  O  O271  1  0.61896135  0.48637998  0.24654134  1
  O  O272  1  0.63264436  0.49312148  0.74361607  1
  O  O273  1  0.63047478  0.99914448  0.24208149  1
  O  O274  1  0.63912720  0.99499865  0.74547270  1
  O  O275  1  0.37539744  0.01258054  0.24583505  1
  O  O276  1  0.36425156  -0.00439246  0.74663202  1
  O  O277  1  0.37479267  0.50607887  0.26082723  1
  O  O278  1  0.36684450  0.49269889  0.76036800  1
  O  O279  1  0.86709390  0.00340979  0.25415379  1
  O  O280  1  0.86560910  -0.00495287  0.76095554  1
  O  O281  1  0.88202630  0.50250447  0.26186537  1
  O  O282  1  0.87379082  0.50682802  0.75733166  1
  O  O283  1  0.12035466  0.37458125  0.36683354  1
  O  O284  1  0.12447654  0.36601082  0.87135883  1
  O  O285  1  0.12532912  0.88688175  0.35680480  1
  O  O286  1  0.12677098  0.86690211  0.86735008  1
  O  O287  1  0.61679049  0.37737293  0.36074824  1
  O  O288  1  0.62337814  0.37111192  0.86666063  1
  O  O289  1  0.61625214  0.87502894  0.37343701  1
  O  O290  1  0.62580176  0.87521693  0.86163161  1
  O  O291  1  0.37714884  0.13130260  0.12838385  1
  O  O292  1  0.33675500  0.13969223  0.64477211  1
  O  O293  1  0.37596691  0.63007065  0.13198167  1
  O  O294  1  0.38408135  0.63407002  0.62638243  1
  O  O295  1  0.87753766  0.12960740  0.13023900  1
  O  O296  1  0.87197216  0.14008368  0.62284538  1
  O  O297  1  0.88869030  0.61621599  0.12551297  1
  O  O298  1  0.87151632  0.62659390  0.64365926  1
  O  O299  1  0.26264119  0.25613734  0.12582692  1
  O  O300  1  0.23901722  0.26820145  0.61329666  1
  O  O301  1  0.25170868  0.75558894  0.11829283  1
  O  O302  1  0.26181375  0.74664734  0.60791153  1
  O  O303  1  0.75592426  0.25292469  0.12040637  1
  O  O304  1  0.76272934  0.25310268  0.61997509  1
  O  O305  1  0.74452603  0.74618980  0.11033302  1
  O  O306  1  0.75528911  0.76377116  0.63050221  1
  O  O307  1  0.24769700  0.24388653  0.37836927  1
  O  O308  1  0.23922427  0.24113760  0.86808926  1
  O  O309  1  0.25596285  0.73964719  0.38848094  1
  O  O310  1  0.24272247  0.74266866  0.88120373  1
  O  O311  1  0.75829538  0.23810914  0.38460311  1
  O  O312  1  0.74899292  0.24294285  0.87765938  1
  O  O313  1  0.74799952  0.73719333  0.37561525  1
  O  O314  1  0.75389662  0.74007956  0.88306524  1
  O  O315  1  0.00910444  0.11761642  0.00569124  1
  O  O316  1  0.00439713  0.11272965  0.49072216  1
  O  O317  1  0.00648085  0.61942550  0.00607140  1
  O  O318  1  0.01457120  0.61744344  0.49133363  1
  O  O319  1  0.50402876  0.11741491  0.00306144  1
  O  O320  1  0.50183248  0.11625977  0.49836573  1
  O  O321  1  0.49785065  0.61290947  0.01387070  1
  O  O322  1  0.49610989  0.61355905  0.50514746  1
  O  O323  1  0.50016807  0.38241305  0.49026612  1
  O  O324  1  0.49488066  0.37974237  0.99685915  1
  O  O325  1  0.49795023  0.88983577  0.50729893  1
  O  O326  1  0.49295290  0.87890699  0.99347513  1
  O  O327  1  1.00112612  0.38897850  0.49658522  1
  O  O328  1  0.99799010  0.38055067  0.99231082  1
  O  O329  1  0.99979807  0.89086488  0.49418035  1
  O  O330  1  0.98912714  0.88125514  1.00420270  1
  O  O331  1  0.49459433  0.49404683  0.38028122  1
  O  O332  1  0.49488722  0.49430563  0.88197976  1
  O  O333  1  0.47714330  0.99865560  0.37122755  1
  O  O334  1  0.50586506  1.00096256  0.88471532  1
  O  O335  1  0.98915642  0.50147950  0.38121361  1
  O  O336  1  0.99548740  0.49358881  0.87965866  1
  O  O337  1  0.98952982  0.99848455  0.37827658  1
  O  O338  1  0.99404176  1.00564072  0.88890202  1
  O  O339  1  0.00432303  0.00542225  0.11491932  1
  O  O340  1  0.00852855  0.00214216  0.61773855  1
  O  O341  1  0.00754218  0.50422742  0.11830492  1
  O  O342  1  0.00890305  0.49755091  0.61631495  1
  O  O343  1  0.50808634  0.00439224  0.11716278  1
  O  O344  1  0.51673209  0.00249292  0.63753569  1
  O  O345  1  0.49438450  0.50819660  0.11803162  1
  O  O346  1  0.50595582  0.50715017  0.61575359  1
  O  O347  1  0.25008615  0.37641903  0.23545137  1
  O  O348  1  0.24498112  0.37951271  0.74255318  1
  O  O349  1  0.24126315  0.86618975  0.23628942  1
  O  O350  1  0.23786235  0.88927246  0.75650504  1
  O  O351  1  0.73545793  0.36968286  0.24354941  1
  O  O352  1  0.74101879  0.38173656  0.75007416  1
  O  O353  1  0.74936766  0.88524130  0.24822995  1
  O  O354  1  0.74601657  0.88144389  0.74670438  1
  O  O355  1  0.26012488  0.13327759  0.25640092  1
  O  O356  1  0.23944542  0.10361194  0.76685535  1
  O  O357  1  0.25330245  0.62466996  0.25827233  1
  O  O358  1  0.24543006  0.61569209  0.76369550  1
  O  O359  1  0.75228788  0.11496897  0.25561185  1
  O  O360  1  0.74941409  0.11795837  0.76436811  1
  O  O361  1  0.75355041  0.62478492  0.26470514  1
  O  O362  1  0.75947002  0.62316491  0.76020945  1
  O  O363  1  0.36477269  0.11726674  0.36600605  1
  O  O364  1  0.36291371  0.13169890  0.86916861  1
  O  O365  1  0.36547136  0.61690586  0.37008552  1
  O  O366  1  0.37165332  0.62514719  0.86839116  1
  O  O367  1  0.86546904  0.11308223  0.36789013  1
  O  O368  1  0.86785445  0.11126144  0.88400259  1
  O  O369  1  0.87035287  0.61443435  0.36949763  1
  O  O370  1  0.87073275  0.61816616  0.86445855  1
  O  O371  1  0.13315113  0.38121388  0.12242639  1
  O  O372  1  0.13293614  0.38812483  0.62907023  1
  O  O373  1  0.13149670  0.88215877  0.12907489  1
  O  O374  1  0.12371442  0.88693956  0.64052398  1
  O  O375  1  0.63198497  0.36884830  0.13794161  1
  O  O376  1  0.62877734  0.38858553  0.63261783  1
  O  O377  1  0.62737811  0.88571932  0.12677022  1
  O  O378  1  0.63788030  0.88539082  0.63922296  1
  O  O379  1  0.10993648  0.24947728  0.24634165  1
  O  O380  1  0.11889828  0.25564884  0.75724891  1
  O  O381  1  0.11154377  0.76029687  0.24487739  1
  O  O382  1  0.12632144  0.76497768  0.75808434  1
  O  O383  1  0.61053177  0.25131453  0.24495843  1
  O  O384  1  0.62189016  0.25815058  0.75340969  1
  O  O385  1  0.61410852  0.75197999  0.25544106  1
  O  O386  1  0.63068537  0.76345881  0.74790096  1
  O  O387  1  0.38560317  0.24330448  0.24064808  1
  O  O388  1  0.39610087  0.25867649  0.75373486  1
  O  O389  1  0.37860349  0.74368480  0.24585201  1
  O  O390  1  0.36347949  0.74647029  0.73984371  1
  O  O391  1  0.88036921  0.24488219  0.24416011  1
  O  O392  1  0.88637275  0.25255805  0.73674157  1
  O  O393  1  0.88881201  0.75040597  0.24670557  1
  O  O394  1  0.87751568  0.73707396  0.75334663  1
  O  O395  1  0.38217846  0.49889516  0.48877956  1
  O  O396  1  0.38228107  0.48826880  0.99462630  1
  O  O397  1  0.36707063  1.00201823  0.49024687  1
  O  O398  1  0.38670768  0.98954797  1.00688683  1
  O  O399  1  0.88520890  0.50188693  0.49284074  1
  O  O400  1  0.88021394  0.50027256  0.98554356  1
  O  O401  1  0.88076572  1.00015814  0.49326696  1
  O  O402  1  0.88198035  0.99180987  0.99565168  1
  O  O403  1  0.11726732  0.00486870  0.00747623  1
  O  O404  1  0.11950789  0.00413827  0.51193060  1
  O  O405  1  0.12180815  0.50451803  0.00834051  1
  O  O406  1  0.11956720  0.50760937  0.50754893  1
  O  O407  1  0.62040239  0.00148085  0.00584655  1
  O  O408  1  0.63072015  0.00318976  0.52250427  1
  O  O409  1  0.61248933  0.49306367  -0.00365660  1
  O  O410  1  0.61702735  0.49497581  0.50764830  1
  O  O411  1  0.37074160  0.36875114  0.12025043  1
  O  O412  1  0.36339502  0.38417102  0.62256943  1
  O  O413  1  0.36641085  0.86901216  0.11862256  1
  O  O414  1  0.37769444  0.85524889  0.62962018  1
  O  O415  1  0.86518142  0.36744998  0.12301959  1
  O  O416  1  0.87312824  0.36546116  0.62060568  1
  O  O417  1  0.86942473  0.88040990  0.10785797  1
  O  O418  1  0.86322775  0.87572134  0.62898559  1
  O  O419  1  0.13687064  0.12530870  0.36908280  1
  O  O420  1  0.13259391  0.12966302  0.88392711  1
  O  O421  1  0.13688730  0.61879872  0.38178663  1
  O  O422  1  0.13189285  0.63160676  0.88054034  1
  O  O423  1  0.63476875  0.11889097  0.37521071  1
  O  O424  1  0.63513282  0.12977895  0.88082719  1
  O  O425  1  0.63684562  0.62157447  0.37272092  1
  O  O426  1  0.64310148  0.62146964  0.86960339  1
