# generated using pymatgen
data_V85Zn86O256
_symmetry_space_group_name_H-M   'P 1'
_cell_length_a   16.93045399
_cell_length_b   16.91892764
_cell_length_c   16.93317809
_cell_angle_alpha   89.95319973
_cell_angle_beta   90.00596221
_cell_angle_gamma   90.02762571
_symmetry_Int_Tables_number   1
_chemical_formula_structural   V85Zn86O256
_chemical_formula_sum   'V85 Zn86 O256'
_cell_volume   4850.42412257
_cell_formula_units_Z   1
loop_
 _symmetry_equiv_pos_site_id
 _symmetry_equiv_pos_as_xyz
  1  'x, y, z'
loop_
 _atom_site_type_symbol
 _atom_site_label
 _atom_site_symmetry_multiplicity
 _atom_site_fract_x
 _atom_site_fract_y
 _atom_site_fract_z
 _atom_site_occupancy
  V  V0  1  0.62451947  0.61623073  0.49830218  1
  V  V1  1  0.37576659  0.38021504  0.50379171  1
  V  V2  1  0.87515056  -0.00311328  0.87282078  1
  V  V3  1  0.87527611  0.87390348  0.00049655  1
  V  V4  1  0.36943949  0.11304783  0.24750923  1
  V  V5  1  -0.00080755  0.00093325  0.49979788  1
  V  V6  1  0.87555657  0.25125237  0.12601104  1
  V  V7  1  0.36509058  0.87954099  -0.00434193  1
  V  V8  1  0.74633811  0.00455522  0.24210882  1
  V  V9  1  0.37692961  0.50218347  0.37961122  1
  V  V10  1  0.24457622  0.87319005  0.14198962  1
  V  V11  1  0.73300733  0.87941238  0.62638864  1
  V  V12  1  -0.00467974  0.63286448  0.62478263  1
  V  V13  1  0.00182323  0.86782706  0.87512736  1
  V  V14  1  0.62122609  0.75768364  0.86633233  1
  V  V15  1  0.62554005  0.25583706  0.37317439  1
  V  V16  1  0.00816804  0.24944455  0.75530713  1
  V  V17  1  0.87170351  0.63169814  0.74770806  1
  V  V18  1  0.87119893  0.37532439  0.50172613  1
  V  V19  1  0.14178298  0.62926881  -0.00021076  1
  V  V20  1  0.12778571  0.75512230  0.37263281  1
  V  V21  1  0.23840122  0.24783168  -0.01153272  1
  V  V22  1  0.12714456  0.25297802  0.37095960  1
  V  V23  1  0.87556011  0.75156525  0.12454292  1
  V  V24  1  0.74370999  0.74182338  -0.00112495  1
  V  V25  1  0.00285029  0.75300183  0.25023271  1
  V  V26  1  0.00519845  0.25287822  0.24811789  1
  V  V27  1  0.25027893  0.24948670  0.50014694  1
  V  V28  1  0.62249181  0.87925928  0.24464042  1
  V  V29  1  0.00002338  0.50040766  0.50113826  1
  V  V30  1  0.87048674  0.50449816  0.37642355  1
  V  V31  1  0.86832578  0.62768788  0.25245318  1
  V  V32  1  0.12517527  0.62764623  0.50011293  1
  V  V33  1  0.49996753  0.37639682  0.37932959  1
  V  V34  1  0.49721901  0.25140099  0.75144078  1
  V  V35  1  0.75228111  0.12174461  0.87369246  1
  V  V36  1  0.37069830  0.11290687  0.76037769  1
  V  V37  1  0.38144594  0.37500324  -0.00355106  1
  V  V38  1  0.12886509  0.00249848  0.13789188  1
  V  V39  1  0.25187803  0.50393712  0.76051832  1
  V  V40  1  0.49848828  0.87839411  0.38658973  1
  V  V41  1  0.37378147  0.24957403  0.62820466  1
  V  V42  1  0.00648572  0.37745164  0.37173897  1
  V  V43  1  0.12683471  0.49573784  0.12767689  1
  V  V44  1  0.12965977  0.87922069  0.74645111  1
  V  V45  1  0.26465806  0.87916669  0.62367312  1
  V  V46  1  0.49915608  -0.00638291  -0.00042416  1
  V  V47  1  0.61765776  0.11256943  0.49877905  1
  V  V48  1  0.37059949  0.74934657  0.11689567  1
  V  V49  1  0.00293472  0.87754000  0.37059276  1
  V  V50  1  0.63141811  0.74635877  0.37404758  1
  V  V51  1  0.87521185  0.87137418  0.50980253  1
  V  V52  1  0.49356443  0.62646669  0.61923765  1
  V  V53  1  0.87667942  0.50113424  0.87397154  1
  V  V54  1  0.75261124  0.74425970  0.50311677  1
  V  V55  1  0.37411592  0.63519358  0.75253855  1
  V  V56  1  0.12707651  0.50022976  0.62900293  1
  V  V57  1  0.87318111  0.00001463  0.37404440  1
  V  V58  1  0.24858005  0.11555879  0.37146202  1
  V  V59  1  0.62506434  0.49493869  0.63251575  1
  V  V60  1  0.37220142  0.24515166  0.12121854  1
  V  V61  1  0.49730310  0.11315717  0.62048892  1
  V  V62  1  0.49734478  0.24729897  0.25065880  1
  V  V63  1  0.74699975  0.49532325  0.24664867  1
  V  V64  1  0.74847742  0.12629077  0.37425999  1
  V  V65  1  0.38656725  0.50561014  0.87751446  1
  V  V66  1  0.24580855  0.49042615  0.25224269  1
  V  V67  1  0.62687136  0.11738950  0.00546173  1
  V  V68  1  0.74771538  0.87659280  0.12518891  1
  V  V69  1  0.87336708  0.25422729  0.62802045  1
  V  V70  1  0.01051279  0.00517615  0.00018475  1
  V  V71  1  0.37913036  -0.00253705  0.38811731  1
  V  V72  1  0.37190914  0.62695390  0.24987676  1
  V  V73  1  0.74974555  0.25200119  0.00098381  1
  V  V74  1  0.62415664  0.24788006  0.87651977  1
  V  V75  1  0.26273359  0.75372103  0.50529726  1
  V  V76  1  0.49982084  0.75031804  0.24717426  1
  V  V77  1  0.14150589  0.74617438  0.87673339  1
  V  V78  1  0.00757085  0.37369137  0.87728473  1
  V  V79  1  0.00222882  0.62567180  0.12229007  1
  V  V80  1  0.74560979  0.25225703  0.51147650  1
  V  V81  1  0.00085955  0.12490996  0.62526986  1
  V  V82  1  0.23773919  0.11230537  0.87554122  1
  V  V83  1  0.12551255  0.12555435  0.50019257  1
  V  V84  1  0.50256031  0.11865891  0.12560979  1
  Zn  Zn85  1  0.13052233  0.00042733  0.62845349  1
  Zn  Zn86  1  0.49839075  0.87984090  0.86861344  1
  Zn  Zn87  1  0.25079966  0.37704714  0.62912483  1
  Zn  Zn88  1  0.24949962  0.62652181  0.37735076  1
  Zn  Zn89  1  0.50783936  0.59850265  0.12445018  1
  Zn  Zn90  1  0.73006767  -0.01640869  0.75531136  1
  Zn  Zn91  1  0.74303336  0.62133463  0.87084548  1
  Zn  Zn92  1  0.24555783  0.36880832  0.12522352  1
  Zn  Zn93  1  0.00192038  0.50080651  -0.00015529  1
  Zn  Zn94  1  0.60362786  0.60526007  -0.00265755  1
  Zn  Zn95  1  0.74200702  0.37744268  0.12268459  1
  Zn  Zn96  1  0.87707256  0.12143936  0.74844049  1
  Zn  Zn97  1  0.58816159  0.41478428  0.21566400  1
  Zn  Zn98  1  0.64399000  0.35172107  0.73245950  1
  Zn  Zn99  1  0.87597800  0.12633070  0.24904799  1
  Zn  Zn100  1  0.00637966  0.12865407  0.12013153  1
  Zn  Zn101  1  0.75758948  0.48884898  0.74232857  1
  Zn  Zn102  1  0.50162821  0.75899944  0.74042299  1
  Zn  Zn103  1  0.12982488  0.37307844  0.75585527  1
  Zn  Zn104  1  0.87733738  0.37685474  0.00046483  1
  Zn  Zn105  1  -0.00016747  0.75153658  0.74589059  1
  Zn  Zn106  1  0.50753683  0.37935081  0.87459702  1
  Zn  Zn107  1  0.18714104  0.18552810  0.18693667  1
  Zn  Zn108  1  0.18989519  0.18495653  0.69102170  1
  Zn  Zn109  1  0.18932806  0.68626935  0.18938859  1
  Zn  Zn110  1  0.18898750  0.68973037  0.68885067  1
  Zn  Zn111  1  0.68283795  0.19681872  0.18579696  1
  Zn  Zn112  1  0.66600596  0.14385438  0.70392334  1
  Zn  Zn113  1  0.68537117  0.68217393  0.18248636  1
  Zn  Zn114  1  0.68950133  0.68648307  0.68341756  1
  Zn  Zn115  1  0.31391810  0.30853889  0.31295882  1
  Zn  Zn116  1  0.31139696  0.31502908  0.81461915  1
  Zn  Zn117  1  0.31495753  0.81443471  0.31673270  1
  Zn  Zn118  1  0.31595793  0.81919321  0.80853553  1
  Zn  Zn119  1  0.81586791  0.31413417  0.31496549  1
  Zn  Zn120  1  0.81764005  0.31268588  0.81206192  1
  Zn  Zn121  1  0.81256351  0.81538471  0.31451684  1
  Zn  Zn122  1  0.80999351  0.80892793  0.81016531  1
  Zn  Zn123  1  0.18992916  0.43901186  0.44065129  1
  Zn  Zn124  1  0.19079638  0.43922894  0.94109495  1
  Zn  Zn125  1  0.18765429  0.93711845  0.44044055  1
  Zn  Zn126  1  0.18767089  0.93369522  0.94053852  1
  Zn  Zn127  1  0.68914548  0.43806150  0.43651147  1
  Zn  Zn128  1  0.69355792  0.43345977  0.92647777  1
  Zn  Zn129  1  0.68869490  0.93320134  0.43376251  1
  Zn  Zn130  1  0.68573106  0.93455950  0.94058181  1
  Zn  Zn131  1  0.30528493  0.05941943  0.05827864  1
  Zn  Zn132  1  0.31308370  0.06250412  0.56488602  1
  Zn  Zn133  1  0.31905039  0.56151785  0.06268397  1
  Zn  Zn134  1  0.31003252  0.56473388  0.56525694  1
  Zn  Zn135  1  0.81949588  0.06506003  0.06195971  1
  Zn  Zn136  1  0.80971692  0.06286385  0.56262042  1
  Zn  Zn137  1  0.81280309  0.56096063  0.06245091  1
  Zn  Zn138  1  0.80948304  0.56323896  0.56459086  1
  Zn  Zn139  1  0.42179707  0.43211592  0.18982834  1
  Zn  Zn140  1  0.44224014  0.44161237  0.68945732  1
  Zn  Zn141  1  0.43571634  0.93614120  0.18696548  1
  Zn  Zn142  1  0.44045928  0.93610362  0.68774112  1
  Zn  Zn143  1  0.93589136  0.43651953  0.18724821  1
  Zn  Zn144  1  0.93967464  0.43775826  0.69022168  1
  Zn  Zn145  1  0.93861986  0.94041595  0.18757803  1
  Zn  Zn146  1  0.93842150  0.93696697  0.68987300  1
  Zn  Zn147  1  0.06184495  0.06560652  0.31008070  1
  Zn  Zn148  1  0.06206854  0.05880200  0.81238273  1
  Zn  Zn149  1  0.06150020  0.56668019  0.31151620  1
  Zn  Zn150  1  0.06178260  0.56544808  0.81271661  1
  Zn  Zn151  1  0.56173405  0.06108109  0.31357055  1
  Zn  Zn152  1  0.55663188  0.05855815  0.81491649  1
  Zn  Zn153  1  0.55763071  0.56675601  0.31523905  1
  Zn  Zn154  1  0.56365518  0.57120679  0.80999122  1
  Zn  Zn155  1  0.43534703  0.18654783  0.43770430  1
  Zn  Zn156  1  0.43690774  0.18562329  0.93911471  1
  Zn  Zn157  1  0.44270774  0.68835479  0.43657911  1
  Zn  Zn158  1  0.44132868  0.68625063  0.93927942  1
  Zn  Zn159  1  0.93587322  0.18922691  0.43678472  1
  Zn  Zn160  1  0.93945851  0.18721332  0.93764718  1
  Zn  Zn161  1  0.93753108  0.68904636  0.43746066  1
  Zn  Zn162  1  0.93729506  0.68588809  0.93751208  1
  Zn  Zn163  1  0.06310348  0.31504698  0.06105165  1
  Zn  Zn164  1  0.06165670  0.31395171  0.56310446  1
  Zn  Zn165  1  0.06754531  0.81429351  0.06001255  1
  Zn  Zn166  1  0.06679879  0.81460264  0.55911322  1
  Zn  Zn167  1  0.56885643  0.42523790  0.05813003  1
  Zn  Zn168  1  0.55803432  0.30901348  0.56079313  1
  Zn  Zn169  1  0.56174059  0.80163116  0.06308532  1
  Zn  Zn170  1  0.56435354  0.80726090  0.56208820  1
  O  O171  1  0.12500414  0.10806905  0.12724532  1
  O  O172  1  0.11874008  0.12290933  0.62016867  1
  O  O173  1  0.11976570  0.62109134  0.11953595  1
  O  O174  1  0.11917447  0.61687869  0.62068179  1
  O  O175  1  0.61392744  0.13106703  0.11770270  1
  O  O176  1  0.61142645  0.13551799  0.60442604  1
  O  O177  1  0.61340882  0.64431665  0.10914192  1
  O  O178  1  0.61715532  0.61699416  0.61790891  1
  O  O179  1  0.37841769  0.38057130  0.38336911  1
  O  O180  1  0.37832586  0.38306140  0.88048579  1
  O  O181  1  0.38614383  0.88450781  0.37149476  1
  O  O182  1  0.37444674  0.87013257  0.89299836  1
  O  O183  1  0.88667537  0.38265656  0.38146867  1
  O  O184  1  0.88788025  0.38361834  0.87558169  1
  O  O185  1  0.88114504  0.88224097  0.38339091  1
  O  O186  1  0.88198161  0.87796607  0.87828651  1
  O  O187  1  0.25542045  0.00999715  0.37967931  1
  O  O188  1  0.24830573  0.01274586  0.88252377  1
  O  O189  1  0.25898151  0.50190169  0.37040496  1
  O  O190  1  0.25593101  0.49967412  0.86394781  1
  O  O191  1  0.75450107  0.00374471  0.36490069  1
  O  O192  1  0.75747645  0.00245557  0.87429148  1
  O  O193  1  0.76504392  0.49828495  0.36829499  1
  O  O194  1  0.76615557  0.50138199  0.86792224  1
  O  O195  1  0.24432335  0.49914265  0.13480623  1
  O  O196  1  0.24184013  0.49905760  0.63321055  1
  O  O197  1  0.23697579  0.99011424  0.12399976  1
  O  O198  1  0.24759156  0.98388597  0.61657293  1
  O  O199  1  0.75609589  0.49831513  0.14180601  1
  O  O200  1  0.73034623  0.50328048  0.62309058  1
  O  O201  1  0.75706999  0.99743764  0.13632900  1
  O  O202  1  0.75719252  0.98237439  0.62470711  1
  O  O203  1  -0.00447517  0.36511883  0.25924169  1
  O  O204  1  0.00400034  0.36687214  0.75745121  1
  O  O205  1  -0.00740559  0.86945274  0.26334441  1
  O  O206  1  0.00767110  0.87140460  0.75782829  1
  O  O207  1  0.49106037  0.36451277  0.26492482  1
  O  O208  1  0.50207580  0.35852885  0.74990656  1
  O  O209  1  0.50691000  0.87014745  0.25517655  1
  O  O210  1  0.49393599  0.87041983  0.75557394  1
  O  O211  1  0.49282613  0.12735289  0.24423866  1
  O  O212  1  0.48572012  0.13316726  0.74377694  1
  O  O213  1  0.48866644  0.63232558  0.24709647  1
  O  O214  1  0.49115306  0.63002104  0.73838419  1
  O  O215  1  0.99767154  0.14058966  0.25003928  1
  O  O216  1  0.99897366  0.12942584  0.74276984  1
  O  O217  1  0.99191783  0.63194051  0.23994843  1
  O  O218  1  0.99488801  0.62756511  0.73998777  1
  O  O219  1  0.36776565  0.25355729  0.00531052  1
  O  O220  1  0.36966862  0.25573999  0.50821932  1
  O  O221  1  0.37895661  0.76207499  0.01324472  1
  O  O222  1  0.36084765  0.74652503  0.49431998  1
  O  O223  1  0.86739914  0.24788669  0.00745382  1
  O  O224  1  0.86726956  0.25495568  0.50542942  1
  O  O225  1  0.86924675  0.75616141  0.00430876  1
  O  O226  1  0.86381035  0.75860949  0.49068593  1
  O  O227  1  0.12970400  0.24575023  0.49373192  1
  O  O228  1  0.14042392  0.24966782  1.00549410  1
  O  O229  1  0.13020075  0.74540260  0.48918368  1
  O  O230  1  0.12380422  0.74512389  0.98592951  1
  O  O231  1  0.63036368  0.24729921  0.49027691  1
  O  O232  1  0.63715663  0.23438082  0.99097756  1
  O  O233  1  0.63293006  0.74109742  0.49192159  1
  O  O234  1  0.63520242  0.75645040  0.98815528  1
  O  O235  1  0.48154048  0.23340834  0.13004284  1
  O  O236  1  0.48813595  0.24288247  0.62989552  1
  O  O237  1  0.48637101  0.76013296  0.14052233  1
  O  O238  1  0.50611988  0.73229287  0.62457928  1
  O  O239  1  0.99664371  0.25140437  0.13190549  1
  O  O240  1  0.99410315  0.24028680  0.62746345  1
  O  O241  1  0.99759234  0.74685213  0.13059336  1
  O  O242  1  1.00673053  0.73622685  0.62167408  1
  O  O243  1  0.00536558  0.25831741  0.36959248  1
  O  O244  1  -0.00361684  0.25787281  0.86651830  1
  O  O245  1  0.00706315  0.75850725  0.37161689  1
  O  O246  1  0.00424935  0.76101163  0.87628070  1
  O  O247  1  0.50509148  0.25607412  0.37279881  1
  O  O248  1  0.50843119  0.24612892  0.86838287  1
  O  O249  1  0.50595417  0.75725391  0.36411430  1
  O  O250  1  0.51336505  0.75378494  0.87657900  1
  O  O251  1  0.24520849  0.13104588  0.49362466  1
  O  O252  1  0.25619077  0.13544067  0.98546948  1
  O  O253  1  0.24413882  0.63699410  0.50037551  1
  O  O254  1  0.24080809  0.62780804  1.00754771  1
  O  O255  1  0.73876072  0.13183613  0.49453529  1
  O  O256  1  0.74579767  0.12636752  0.99349959  1
  O  O257  1  0.74270552  0.63609014  0.50364289  1
  O  O258  1  0.75602883  0.63787379  0.99804969  1
  O  O259  1  0.25710474  0.36089606  -0.00113095  1
  O  O260  1  0.26004394  0.36829995  0.50312290  1
  O  O261  1  0.26226014  0.87716824  0.01099862  1
  O  O262  1  0.24535302  0.86291362  0.51014416  1
  O  O263  1  0.75569152  0.36075915  -0.00217874  1
  O  O264  1  0.75911030  0.36504978  0.49381177  1
  O  O265  1  0.75598708  0.86876421  0.00775764  1
  O  O266  1  0.75611803  0.86904751  0.50722108  1
  O  O267  1  0.13544267  0.51029762  0.24261822  1
  O  O268  1  0.13354552  0.50333970  0.74425777  1
  O  O269  1  0.11739124  0.99563852  0.23676685  1
  O  O270  1  0.12307437  0.98396308  0.74959315  1
  O  O271  1  0.64347720  0.50545130  0.26462664  1
  O  O272  1  0.62621496  0.50015358  0.73777298  1
  O  O273  1  0.63376258  0.99131931  0.25416618  1
  O  O274  1  0.63332716  1.03743609  0.73940571  1
  O  O275  1  0.37789118  0.01033493  0.25737419  1
  O  O276  1  0.37373845  0.01540173  0.74749389  1
  O  O277  1  0.36491919  0.50768054  0.25835833  1
  O  O278  1  0.36962152  0.50673525  0.75750481  1
  O  O279  1  0.86761018  0.00321422  0.25690207  1
  O  O280  1  0.87602689  -0.00045897  0.76452875  1
  O  O281  1  0.86926517  0.50768565  0.25670814  1
  O  O282  1  0.87859480  0.51013960  0.75596563  1
  O  O283  1  0.11296626  0.37374142  0.38152714  1
  O  O284  1  0.11240712  0.38332826  0.87536994  1
  O  O285  1  0.11476762  0.86871692  0.38005906  1
  O  O286  1  0.12114939  0.86509250  0.87057045  1
  O  O287  1  0.61367473  0.37000848  0.37887635  1
  O  O288  1  0.62618978  0.35609236  0.86856973  1
  O  O289  1  0.61884705  0.86780967  0.36478180  1
  O  O290  1  0.62503693  0.86313470  0.87448793  1
  O  O291  1  0.37452590  0.12489833  0.13079973  1
  O  O292  1  0.37650286  0.13307028  0.63266937  1
  O  O293  1  0.37275144  0.63416697  0.13517843  1
  O  O294  1  0.38795113  0.61771083  0.63157039  1
  O  O295  1  0.88236497  0.13721330  0.12727655  1
  O  O296  1  0.88192735  0.13534542  0.62317012  1
  O  O297  1  0.88334618  0.63120146  0.13131516  1
  O  O298  1  0.88461009  0.61919697  0.63249238  1
  O  O299  1  0.25791445  0.24537352  0.11579977  1
  O  O300  1  0.26008777  0.25184459  0.62191343  1
  O  O301  1  0.25639521  0.76223598  0.13239703  1
  O  O302  1  0.24539019  0.75834308  0.61139528  1
  O  O303  1  0.75959163  0.24707126  0.11698566  1
  O  O304  1  0.75801380  0.24330178  0.61371194  1
  O  O305  1  0.75761871  0.75613546  0.11852168  1
  O  O306  1  0.74484826  0.76249531  0.61258889  1
  O  O307  1  0.24524873  0.24163761  0.37988764  1
  O  O308  1  0.25024211  0.24377468  0.88465663  1
  O  O309  1  0.24352496  0.75248130  0.38514478  1
  O  O310  1  0.23935134  0.75366480  0.87271123  1
  O  O311  1  0.74257833  0.24657097  0.38027857  1
  O  O312  1  0.74841920  0.24073066  0.88328323  1
  O  O313  1  0.73760681  0.75795473  0.38218773  1
  O  O314  1  0.74144007  0.74920801  0.88231060  1
  O  O315  1  -0.00178524  0.10961562  -0.00027719  1
  O  O316  1  0.00452313  0.12253889  0.50598798  1
  O  O317  1  0.00554240  0.62703888  0.01350925  1
  O  O318  1  0.00380639  0.61906698  0.50547997  1
  O  O319  1  0.50679792  0.11891930  0.00734905  1
  O  O320  1  0.50929236  0.12845841  0.50357908  1
  O  O321  1  0.48743617  0.61729010  0.01225473  1
  O  O322  1  0.50747145  0.62688286  0.50999544  1
  O  O323  1  0.48707834  0.36968022  0.48954818  1
  O  O324  1  0.48490270  0.37033258  0.99541442  1
  O  O325  1  0.50641362  0.86830117  0.48520644  1
  O  O326  1  0.49022750  0.88109490  1.00524103  1
  O  O327  1  0.99285220  0.38143557  0.49350483  1
  O  O328  1  0.99761062  0.37802856  0.99234474  1
  O  O329  1  0.99362791  0.87929192  0.49097753  1
  O  O330  1  0.99480510  0.88078522  0.99350068  1
  O  O331  1  0.48563257  0.49177544  0.36954899  1
  O  O332  1  0.48992690  0.49728563  0.86495620  1
  O  O333  1  0.49294449  0.98972265  0.37180186  1
  O  O334  1  0.50140478  0.99920393  0.89361339  1
  O  O335  1  0.99361344  0.49491045  0.37837123  1
  O  O336  1  0.99287898  0.49498948  0.87538827  1
  O  O337  1  0.99501689  0.99497099  0.37829383  1
  O  O338  1  0.99672681  0.98832957  0.88190697  1
  O  O339  1  0.01117387  -0.00197899  0.11810427  1
  O  O340  1  -0.00184520  0.01262266  0.62059939  1
  O  O341  1  0.00760583  0.50909318  0.12754137  1
  O  O342  1  0.00726475  0.50804375  0.61968231  1
  O  O343  1  0.49510894  0.01099244  0.11813735  1
  O  O344  1  0.49217754  0.01435216  0.62128443  1
  O  O345  1  0.51188243  0.48342691  0.14634717  1
  O  O346  1  0.51172547  0.51335996  0.62727630  1
  O  O347  1  0.25505382  0.38632948  0.24947668  1
  O  O348  1  0.24767595  0.38527592  0.74805924  1
  O  O349  1  0.25281896  0.87695198  0.24054966  1
  O  O350  1  0.24490662  0.86807080  0.73274576  1
  O  O351  1  0.75618757  0.39166379  0.25258375  1
  O  O352  1  0.75259608  0.37430338  0.74660333  1
  O  O353  1  0.74321749  0.88285917  0.24553807  1
  O  O354  1  0.75376661  0.87150762  0.73137625  1
  O  O355  1  0.25729025  0.12782992  0.26027993  1
  O  O356  1  0.26022791  0.12938534  0.76314559  1
  O  O357  1  0.26048208  0.61947217  0.25517858  1
  O  O358  1  0.26316236  0.61744706  0.74042743  1
  O  O359  1  0.74772399  0.11970778  0.25538887  1
  O  O360  1  0.76135044  0.13103690  0.76789582  1
  O  O361  1  0.76252038  0.61847988  0.24586138  1
  O  O362  1  0.75989711  0.62056046  0.74851389  1
  O  O363  1  0.36805049  0.12028074  0.36766096  1
  O  O364  1  0.36984525  0.12710608  0.86366749  1
  O  O365  1  0.37568514  0.61779083  0.36969569  1
  O  O366  1  0.37875662  0.61904097  0.86371592  1
  O  O367  1  0.86685816  0.11827820  0.37503010  1
  O  O368  1  0.86935638  0.11334925  0.87857833  1
  O  O369  1  0.88394241  0.61665238  0.36420611  1
  O  O370  1  0.87661817  0.61780251  0.86611797  1
  O  O371  1  0.12695120  0.39124580  0.12181038  1
  O  O372  1  0.12377980  0.39016990  0.62513152  1
  O  O373  1  0.13845822  0.87838458  0.12502950  1
  O  O374  1  0.12905732  0.87581401  0.63306954  1
  O  O375  1  0.63028255  0.35691787  0.12997426  1
  O  O376  1  0.61371414  0.38969391  0.62196857  1
  O  O377  1  0.62984761  0.86758900  0.13810058  1
  O  O378  1  0.63418541  0.87922506  0.61936484  1
  O  O379  1  0.11820668  0.24931166  0.25683221  1
  O  O380  1  0.11210889  0.25334130  0.74080895  1
  O  O381  1  0.12016307  0.74362324  0.26472176  1
  O  O382  1  0.12316746  0.75551641  0.76192597  1
  O  O383  1  0.61554780  0.24487557  0.26591529  1
  O  O384  1  0.61487848  0.23877824  0.75613050  1
  O  O385  1  0.61868275  0.75395771  0.25685644  1
  O  O386  1  0.62619505  0.74333898  0.76373512  1
  O  O387  1  0.37757483  0.23870316  0.24322133  1
  O  O388  1  0.37796774  0.24531605  0.74392916  1
  O  O389  1  0.37999762  0.74328325  0.24776263  1
  O  O390  1  0.37466427  0.73788495  0.75215694  1
  O  O391  1  0.88178292  0.24966511  0.24336189  1
  O  O392  1  0.88812244  0.24709782  0.74102894  1
  O  O393  1  0.87916716  0.74417691  0.24712761  1
  O  O394  1  0.88023922  0.73643460  0.75348149  1
  O  O395  1  0.36778112  0.49142055  0.49302516  1
  O  O396  1  0.36390694  0.48839883  0.98773804  1
  O  O397  1  0.37613440  1.00758467  0.48709885  1
  O  O398  1  0.38136637  0.98598953  1.00805800  1
  O  O399  1  0.87846525  0.49697084  0.49393596  1
  O  O400  1  0.87923613  0.50035851  0.99024758  1
  O  O401  1  0.87961877  0.99405159  0.49301694  1
  O  O402  1  0.88162212  0.99219027  0.99106307  1
  O  O403  1  0.11584359  -0.01039672  0.01159737  1
  O  O404  1  0.11573199  0.00764894  0.50155747  1
  O  O405  1  0.12527311  0.51139114  0.00836768  1
  O  O406  1  0.12160357  0.50786533  0.50702028  1
  O  O407  1  0.62003259  0.00982059  0.00152170  1
  O  O408  1  0.62913709  0.01446014  0.49183049  1
  O  O409  1  0.62934997  0.49367509  -0.00655219  1
  O  O410  1  0.62954168  0.51204185  0.50287109  1
  O  O411  1  0.36766665  0.36228388  0.11643830  1
  O  O412  1  0.37725909  0.37011923  0.61877880  1
  O  O413  1  0.36266822  0.87026708  0.12223768  1
  O  O414  1  0.36293829  0.87617786  0.62284441  1
  O  O415  1  0.87138333  0.36341803  0.12284380  1
  O  O416  1  0.88442445  0.36186874  0.61787860  1
  O  O417  1  0.87040895  0.86995378  0.12131568  1
  O  O418  1  0.88018799  0.87466826  0.61137211  1
  O  O419  1  0.13235486  0.12914191  0.37912391  1
  O  O420  1  0.13843383  0.12322887  0.86868198  1
  O  O421  1  0.12555539  0.63305892  0.38339627  1
  O  O422  1  0.12110905  0.63868407  0.88319089  1
  O  O423  1  0.62609367  0.13317269  0.38428224  1
  O  O424  1  0.63314041  0.13022491  0.88386368  1
  O  O425  1  0.61678803  0.63595084  0.38401868  1
  O  O426  1  0.62581620  0.63667483  0.88128613  1
