# generated using pymatgen
data_V85Zn86O256
_symmetry_space_group_name_H-M   'P 1'
_cell_length_a   16.95333124
_cell_length_b   16.95577133
_cell_length_c   16.95500438
_cell_angle_alpha   89.93744201
_cell_angle_beta   90.01020838
_cell_angle_gamma   89.97541439
_symmetry_Int_Tables_number   1
_chemical_formula_structural   V85Zn86O256
_chemical_formula_sum   'V85 Zn86 O256'
_cell_volume   4873.82800134
_cell_formula_units_Z   1
loop_
 _symmetry_equiv_pos_site_id
 _symmetry_equiv_pos_as_xyz
  1  'x, y, z'
loop_
 _atom_site_type_symbol
 _atom_site_label
 _atom_site_symmetry_multiplicity
 _atom_site_fract_x
 _atom_site_fract_y
 _atom_site_fract_z
 _atom_site_occupancy
  V  V0  1  0.62780095  0.14008907  0.00022304  1
  V  V1  1  0.00467808  0.25152857  0.25247381  1
  V  V2  1  0.62309328  0.12586068  0.50443058  1
  V  V3  1  -0.00109893  0.75121560  0.24933745  1
  V  V4  1  0.74518285  0.13783166  0.88195629  1
  V  V5  1  0.25298355  0.62830074  0.86806580  1
  V  V6  1  -0.00571408  0.62228914  0.62943853  1
  V  V7  1  0.50309250  0.38165877  0.39659608  1
  V  V8  1  0.25143736  0.25625236  0.00058998  1
  V  V9  1  0.63906504  -0.00616387  0.62259243  1
  V  V10  1  0.87404190  0.12256938  0.24856677  1
  V  V11  1  0.81404198  0.66696968  0.80649804  1
  V  V12  1  0.74572291  0.75067386  0.49103711  1
  V  V13  1  0.38076346  0.50092063  0.38565773  1
  V  V14  1  0.38411208  0.62405052  0.25400395  1
  V  V15  1  0.12983151  0.61896969  0.00278067  1
  V  V16  1  0.26247163  0.37322266  0.62627515  1
  V  V17  1  0.20275222  0.56186917  0.31590153  1
  V  V18  1  0.75280954  0.50043173  0.75000926  1
  V  V19  1  0.62057135  0.62573180  0.49245534  1
  V  V20  1  -0.01097130  0.49758881  0.49981057  1
  V  V21  1  0.25524910  0.75335308  -0.00284259  1
  V  V22  1  0.50226373  0.63331050  0.12531464  1
  V  V23  1  0.25462508  0.50311592  0.74992157  1
  V  V24  1  0.87550034  0.25013539  0.62239693  1
  V  V25  1  0.37744747  0.01101274  0.37099247  1
  V  V26  1  0.12768193  0.87696760  0.24873961  1
  V  V27  1  0.62087198  0.49962395  0.62137260  1
  V  V28  1  0.87554376  -0.00161475  0.37473653  1
  V  V29  1  0.86709842  0.00263798  0.87377721  1
  V  V30  1  0.62532271  0.25411566  0.37018383  1
  V  V31  1  -0.00006617  0.24664526  0.74965919  1
  V  V32  1  0.25116331  0.87764090  0.12108983  1
  V  V33  1  0.74748952  0.48993783  0.25881401  1
  V  V34  1  0.74869337  0.36943004  0.62483940  1
  V  V35  1  0.00967847  -0.00286151  0.50530560  1
  V  V36  1  0.12164889  0.75188411  0.87776834  1
  V  V37  1  0.01010759  0.12111156  0.62874688  1
  V  V38  1  0.85609687  0.12007877  0.74634632  1
  V  V39  1  0.74848675  0.12495595  0.37403423  1
  V  V40  1  0.00002110  0.87519059  0.37436698  1
  V  V41  1  0.87202803  0.61902848  0.25814844  1
  V  V42  1  0.74603553  -0.00536725  0.24790263  1
  V  V43  1  -0.00213444  -0.00273967  -0.00149938  1
  V  V44  1  0.63460370  0.87983605  0.74381912  1
  V  V45  1  0.64230332  0.62922749  -0.00566659  1
  V  V46  1  0.00063275  0.37425462  0.87428239  1
  V  V47  1  0.50152636  0.87761316  0.87293914  1
  V  V48  1  0.12756027  0.62169909  0.50434341  1
  V  V49  1  0.37935180  0.50799726  0.87294641  1
  V  V50  1  0.37440756  0.87498706  0.49727770  1
  V  V51  1  0.62141730  0.85850431  0.25038948  1
  V  V52  1  -0.00006513  0.12494035  0.12121005  1
  V  V53  1  0.37306375  0.25210845  0.13090226  1
  V  V54  1  0.62195112  -0.00190170  0.12221182  1
  V  V55  1  0.00094996  0.62212197  0.12515265  1
  V  V56  1  0.50269486  0.86420252  0.36955581  1
  V  V57  1  0.50136332  0.50728745  0.00033401  1
  V  V58  1  0.25190373  0.74594320  0.49406315  1
  V  V59  1  0.12898082  0.74776340  0.37262414  1
  V  V60  1  0.87098394  0.50022567  0.87524618  1
  V  V61  1  0.49597631  0.62199954  0.62418848  1
  V  V62  1  0.49765321  0.12664515  0.13583259  1
  V  V63  1  0.86848294  0.87731372  0.50515960  1
  V  V64  1  0.50030913  0.00269644  0.50347385  1
  V  V65  1  0.12483893  0.49941587  0.62926256  1
  V  V66  1  0.86740621  0.74919433  0.62442429  1
  V  V67  1  0.74265109  0.37403014  0.12487400  1
  V  V68  1  0.27814732  0.12281897  0.87302799  1
  V  V69  1  0.12707467  0.13094407  0.49252278  1
  V  V70  1  0.38545587  0.23154602  0.63748961  1
  V  V71  1  0.86617648  0.74887446  0.12137638  1
  V  V72  1  0.62362759  0.36761564  0.75557543  1
  V  V73  1  0.86931164  0.24822720  0.12086055  1
  V  V74  1  0.25408012  0.00686110  0.24849628  1
  V  V75  1  0.37647335  0.75032186  0.62916125  1
  V  V76  1  0.50183635  0.26716386  0.24900209  1
  V  V77  1  -0.00200616  0.74657239  0.75258114  1
  V  V78  1  0.12756994  0.24476486  0.87438661  1
  V  V79  1  0.86779301  0.37008815  -0.00190018  1
  V  V80  1  0.37559820  0.88309375  -0.00483115  1
  V  V81  1  -0.00436770  0.37116915  0.37499262  1
  V  V82  1  0.50264697  0.36880873  0.87369893  1
  V  V83  1  0.25675421  0.25297814  0.49693660  1
  V  V84  1  0.50226422  0.74885131  0.75078038  1
  Zn  Zn85  1  0.86992465  0.37962891  0.49799834  1
  Zn  Zn86  1  0.74075162  0.86626690  0.11533618  1
  Zn  Zn87  1  0.37415227  0.38131147  0.00474181  1
  Zn  Zn88  1  0.74879859  0.62061232  0.37604901  1
  Zn  Zn89  1  0.16573075  0.31867567  0.30901606  1
  Zn  Zn90  1  0.37876526  0.75170104  0.13185417  1
  Zn  Zn91  1  0.62266523  0.49775544  0.12807505  1
  Zn  Zn92  1  0.25373830  0.01506719  0.73779485  1
  Zn  Zn93  1  0.63828729  0.74970468  0.87589201  1
  Zn  Zn94  1  0.12745902  0.37472590  0.75026067  1
  Zn  Zn95  1  0.00003126  0.49625924  0.00280907  1
  Zn  Zn96  1  0.25029401  0.13271092  0.36919496  1
  Zn  Zn97  1  0.49774571  0.00421450  -0.00166755  1
  Zn  Zn98  1  0.24236275  0.38098758  0.14530171  1
  Zn  Zn99  1  0.12941289  0.12326745  -0.00178619  1
  Zn  Zn100  1  0.23577596  0.88821401  0.61802127  1
  Zn  Zn101  1  0.12582215  -0.00083855  0.12026286  1
  Zn  Zn102  1  0.11925554  0.88950650  0.73237256  1
  Zn  Zn103  1  0.75025251  0.25104303  0.49674027  1
  Zn  Zn104  1  0.12824594  0.49257680  0.13691292  1
  Zn  Zn105  1  -0.00226094  0.87714992  0.87402272  1
  Zn  Zn106  1  0.86760484  0.87035740  -0.00341184  1
  Zn  Zn107  1  0.18722934  0.18502445  0.18073508  1
  Zn  Zn108  1  0.19272048  0.18903301  0.68940200  1
  Zn  Zn109  1  0.18811198  0.69104758  0.18117950  1
  Zn  Zn110  1  0.20764508  0.72766193  0.70618989  1
  Zn  Zn111  1  0.68599955  0.18730142  0.18805209  1
  Zn  Zn112  1  0.64377279  0.15991858  0.71692623  1
  Zn  Zn113  1  0.68657924  0.67763671  0.18740576  1
  Zn  Zn114  1  0.67876152  0.69410236  0.67702133  1
  Zn  Zn115  1  0.33309376  0.31205997  0.31726945  1
  Zn  Zn116  1  0.31705646  0.31544407  0.81299328  1
  Zn  Zn117  1  0.31584710  0.81237080  0.31093711  1
  Zn  Zn118  1  0.32729128  0.86083155  0.78997860  1
  Zn  Zn119  1  0.81778297  0.31120009  0.31191316  1
  Zn  Zn120  1  0.81039179  0.31041877  0.80906811  1
  Zn  Zn121  1  0.81141120  0.81123751  0.31012102  1
  Zn  Zn122  1  0.81203746  0.83042928  0.80960774  1
  Zn  Zn123  1  0.18205810  0.43180579  0.44759714  1
  Zn  Zn124  1  0.18790585  0.43791945  0.93897990  1
  Zn  Zn125  1  0.18968318  0.93846809  0.43649193  1
  Zn  Zn126  1  0.17699658  0.95236011  0.90835259  1
  Zn  Zn127  1  0.68473142  0.43659856  0.43929005  1
  Zn  Zn128  1  0.68685236  0.44136324  0.93934823  1
  Zn  Zn129  1  0.68546603  0.93542102  0.43479488  1
  Zn  Zn130  1  0.68831798  0.93863808  0.93650962  1
  Zn  Zn131  1  0.31400013  0.06705186  0.06042388  1
  Zn  Zn132  1  0.31178790  0.06343650  0.56366791  1
  Zn  Zn133  1  0.31334135  0.56094505  0.06734706  1
  Zn  Zn134  1  0.31227713  0.56583974  0.56480363  1
  Zn  Zn135  1  0.80882678  0.05837928  0.06078457  1
  Zn  Zn136  1  0.81283679  0.06469567  0.56046968  1
  Zn  Zn137  1  0.81566557  0.55600391  0.06789526  1
  Zn  Zn138  1  0.80673114  0.56513656  0.56531510  1
  Zn  Zn139  1  0.42920549  0.44432227  0.18948990  1
  Zn  Zn140  1  0.43819438  0.43760462  0.69136186  1
  Zn  Zn141  1  0.43645469  0.93626787  0.18700186  1
  Zn  Zn142  1  0.43779174  0.94656215  0.68337656  1
  Zn  Zn143  1  0.93603077  0.43526000  0.18910451  1
  Zn  Zn144  1  0.93443909  0.43706944  0.69041045  1
  Zn  Zn145  1  0.93648509  0.93593283  0.18454179  1
  Zn  Zn146  1  0.93523506  0.93691887  0.68793112  1
  Zn  Zn147  1  0.06394183  0.06272704  0.31126291  1
  Zn  Zn148  1  0.06279181  0.06037149  0.81114399  1
  Zn  Zn149  1  0.03890065  0.56002398  0.31844819  1
  Zn  Zn150  1  0.06232904  0.56457327  0.81285079  1
  Zn  Zn151  1  0.56235761  0.06081742  0.31366215  1
  Zn  Zn152  1  0.54206383  0.06192165  0.81380190  1
  Zn  Zn153  1  0.56348279  0.55802081  0.30996671  1
  Zn  Zn154  1  0.56746237  0.56508500  0.81122464  1
  Zn  Zn155  1  0.43897741  0.19088947  0.44192982  1
  Zn  Zn156  1  0.44257676  0.19169408  0.94841806  1
  Zn  Zn157  1  0.43897508  0.68435646  0.43778208  1
  Zn  Zn158  1  0.43905177  0.69206184  0.93580851  1
  Zn  Zn159  1  0.93857924  0.18627997  0.43797063  1
  Zn  Zn160  1  0.93469037  0.18701630  0.93643318  1
  Zn  Zn161  1  0.93746951  0.68803032  0.43881244  1
  Zn  Zn162  1  0.94072545  0.68621597  0.94453721  1
  Zn  Zn163  1  0.06399838  0.31477479  0.06286949  1
  Zn  Zn164  1  0.06708041  0.31411725  0.56233442  1
  Zn  Zn165  1  0.06082760  0.81267041  0.06144242  1
  Zn  Zn166  1  0.05654208  0.80650524  0.56060227  1
  Zn  Zn167  1  0.55793664  0.31656186  0.05997515  1
  Zn  Zn168  1  0.56604898  0.30723376  0.56701731  1
  Zn  Zn169  1  0.56512251  0.80952169  0.05742945  1
  Zn  Zn170  1  0.56162413  0.81269570  0.55973388  1
  O  O171  1  0.11401357  0.12046091  0.11788904  1
  O  O172  1  0.11328214  0.12965670  0.62022961  1
  O  O173  1  0.11795115  0.62181757  0.11916282  1
  O  O174  1  0.11040580  0.62041591  0.61610265  1
  O  O175  1  0.62136889  0.11865384  0.11843006  1
  O  O176  1  0.63573317  0.11449268  0.60748947  1
  O  O177  1  0.61840177  0.62159180  0.11406882  1
  O  O178  1  0.61656455  0.61737707  0.61707927  1
  O  O179  1  0.39509160  0.38372567  0.37977188  1
  O  O180  1  0.38684898  0.38947917  0.87500648  1
  O  O181  1  0.38433818  0.88103364  0.38056255  1
  O  O182  1  0.38802581  0.86324400  0.88653700  1
  O  O183  1  0.88733732  0.36598673  0.38392294  1
  O  O184  1  0.87861056  0.37891884  0.87975292  1
  O  O185  1  0.88105727  0.87951872  0.37983314  1
  O  O186  1  0.87884415  0.88797824  0.87621002  1
  O  O187  1  0.26014904  0.00089720  0.36708414  1
  O  O188  1  0.26405662  0.02379870  0.88971254  1
  O  O189  1  0.25354541  0.49642670  0.37700164  1
  O  O190  1  0.25630370  0.50789822  0.86950590  1
  O  O191  1  0.75352592  0.00253374  0.36406461  1
  O  O192  1  0.76225835  0.01324638  0.88047395  1
  O  O193  1  0.74998280  0.49652430  0.36279366  1
  O  O194  1  0.76224623  0.49745116  0.86753474  1
  O  O195  1  0.24183253  0.49261380  0.11493461  1
  O  O196  1  0.24698972  0.49723415  0.63299012  1
  O  O197  1  0.24979430  0.99639869  0.13011577  1
  O  O198  1  0.24448421  1.00118018  0.62476425  1
  O  O199  1  0.74979256  0.48900384  0.13479556  1
  O  O200  1  0.74595991  0.48987357  0.63203905  1
  O  O201  1  0.74247086  0.99817479  0.13650184  1
  O  O202  1  0.73881920  0.99523995  0.61403912  1
  O  O203  1  -0.00647378  0.36379775  0.25972600  1
  O  O204  1  -0.00145610  0.36808912  0.76111771  1
  O  O205  1  0.00646870  0.87073311  0.25406368  1
  O  O206  1  -0.00071965  0.86037086  0.75190328  1
  O  O207  1  0.50016283  0.36862515  0.25084099  1
  O  O208  1  0.50839328  0.38220816  0.76470165  1
  O  O209  1  0.50528357  0.87706335  0.26130435  1
  O  O210  1  0.50762996  0.86628552  0.75497719  1
  O  O211  1  0.50952867  0.13328862  0.23855117  1
  O  O212  1  0.53840875  0.13767321  0.74170380  1
  O  O213  1  0.49647110  0.61988692  0.23894793  1
  O  O214  1  0.50962984  0.64028706  0.74104733  1
  O  O215  1  0.99353457  0.12538208  0.23854406  1
  O  O216  1  0.99375060  0.12762239  0.74283318  1
  O  O217  1  0.99197715  0.63055014  0.24368131  1
  O  O218  1  0.99847931  0.63336960  0.74144809  1
  O  O219  1  0.36961739  0.25728380  0.01013264  1
  O  O220  1  0.36066033  0.24376196  0.51015204  1
  O  O221  1  0.36583307  0.75558436  0.00237095  1
  O  O222  1  0.36829067  0.75493328  0.50037580  1
  O  O223  1  0.87745766  0.25768434  0.00889251  1
  O  O224  1  0.87321385  0.24554402  0.51419869  1
  O  O225  1  0.87909987  0.74763365  0.01791833  1
  O  O226  1  0.87135138  0.75768239  0.50629907  1
  O  O227  1  0.13946833  0.24066156  0.50844460  1
  O  O228  1  0.13325714  0.24876247  0.99214831  1
  O  O229  1  0.12770586  0.73876760  0.49096777  1
  O  O230  1  0.12917606  0.73786660  0.99765894  1
  O  O231  1  0.62604797  0.24184644  0.48994476  1
  O  O232  1  0.62398503  0.23854397  1.00591184  1
  O  O233  1  0.63556152  0.74111883  0.50713776  1
  O  O234  1  0.62817124  0.73468700  0.99658908  1
  O  O235  1  0.49653102  0.24794271  0.13252421  1
  O  O236  1  0.48192336  0.25509310  0.61843246  1
  O  O237  1  0.49883896  0.73685713  0.11965408  1
  O  O238  1  0.49506344  0.74387311  0.62890895  1
  O  O239  1  0.98933271  0.24217775  0.12894595  1
  O  O240  1  0.99336680  0.24332324  0.62972066  1
  O  O241  1  0.99500755  0.73885812  0.13115134  1
  O  O242  1  0.98748124  0.74121743  0.63198747  1
  O  O243  1  -0.00464055  0.25238156  0.36380804  1
  O  O244  1  0.00488141  0.25596062  0.87013190  1
  O  O245  1  0.00740445  0.75387735  0.36893296  1
  O  O246  1  0.00258207  0.74699292  0.86880077  1
  O  O247  1  0.50442268  0.26245640  0.37149055  1
  O  O248  1  0.49775672  0.27124048  0.88488533  1
  O  O249  1  0.49698887  0.76601849  0.37811853  1
  O  O250  1  0.50580623  0.75650226  0.86525019  1
  O  O251  1  0.24268238  0.13530282  0.49717386  1
  O  O252  1  0.25245374  0.13932951  0.98968075  1
  O  O253  1  0.23555601  0.62915901  0.50143448  1
  O  O254  1  0.24518894  0.63211184  0.99279181  1
  O  O255  1  0.74459139  0.12693579  0.48880796  1
  O  O256  1  0.73704632  0.12443324  0.99844702  1
  O  O257  1  0.74222508  0.63182453  0.49700260  1
  O  O258  1  0.74024434  0.61786240  1.00528320  1
  O  O259  1  0.25434521  0.36273797  -0.00715657  1
  O  O260  1  0.24666973  0.36075263  0.51026493  1
  O  O261  1  0.25758772  0.86897674  -0.00052058  1
  O  O262  1  0.25891746  0.86627779  0.49797332  1
  O  O263  1  0.76071998  0.38026842  0.00712853  1
  O  O264  1  0.75121014  0.37258096  0.50958698  1
  O  O265  1  0.75438621  0.87889865  0.00403665  1
  O  O266  1  0.76124540  0.86865437  0.49253340  1
  O  O267  1  0.13231745  0.51239717  0.26162852  1
  O  O268  1  0.13643630  0.50145279  0.74740257  1
  O  O269  1  0.13226342  0.99146534  0.24882854  1
  O  O270  1  0.14460508  0.98475622  0.79093980  1
  O  O271  1  0.64335768  0.50193613  0.24596913  1
  O  O272  1  0.63637369  0.49613200  0.74199211  1
  O  O273  1  0.63043306  0.99444014  0.24155690  1
  O  O274  1  0.62005574  0.98585029  0.73749916  1
  O  O275  1  0.36624404  -0.00525726  0.25871974  1
  O  O276  1  0.35729836  -0.03379235  0.75431336  1
  O  O277  1  0.37300633  0.51355880  0.26261348  1
  O  O278  1  0.36288530  0.50298667  0.75688469  1
  O  O279  1  0.86669439  0.00241975  0.25303901  1
  O  O280  1  0.87753957  0.01067310  0.75780114  1
  O  O281  1  0.86317536  0.50815791  0.24432460  1
  O  O282  1  0.86212121  0.50087949  0.75624391  1
  O  O283  1  0.10544743  0.37202182  0.38635045  1
  O  O284  1  0.11609883  0.36637128  0.87455340  1
  O  O285  1  0.11912213  0.86925628  0.36987474  1
  O  O286  1  0.11769663  0.85594123  0.88579951  1
  O  O287  1  0.61444037  0.36727196  0.37835654  1
  O  O288  1  0.61205000  0.38642635  0.86997870  1
  O  O289  1  0.61098897  0.87925288  0.36589615  1
  O  O290  1  0.62247888  0.87200132  0.86242736  1
  O  O291  1  0.38630586  0.13888345  0.11834877  1
  O  O292  1  0.37764017  0.13174068  0.62780739  1
  O  O293  1  0.38491045  0.62533548  0.13295846  1
  O  O294  1  0.38767551  0.63355225  0.62057956  1
  O  O295  1  0.87777053  0.13033598  0.12791670  1
  O  O296  1  0.87904352  0.13009033  0.63189661  1
  O  O297  1  0.88161405  0.63157619  0.13282223  1
  O  O298  1  0.88653775  0.63274320  0.61759679  1
  O  O299  1  0.25822612  0.24892985  0.11735520  1
  O  O300  1  0.25960655  0.25624380  0.61984145  1
  O  O301  1  0.25010838  0.75756033  0.11145474  1
  O  O302  1  0.26367752  0.74202982  0.60658188  1
  O  O303  1  0.76224535  0.25712765  0.13500487  1
  O  O304  1  0.75770501  0.26283064  0.62509789  1
  O  O305  1  0.76388139  0.74592087  0.13162185  1
  O  O306  1  0.76241239  0.74383691  0.61347030  1
  O  O307  1  0.25404709  0.25140916  0.38801465  1
  O  O308  1  0.24556688  0.24498447  0.87966718  1
  O  O309  1  0.24514432  0.75330151  0.38578272  1
  O  O310  1  0.23991155  0.74233428  0.88537908  1
  O  O311  1  0.74217146  0.24538881  0.37311208  1
  O  O312  1  0.75601156  0.23743253  0.87734769  1
  O  O313  1  0.75631656  0.74491402  0.38733129  1
  O  O314  1  0.75858815  0.73921390  0.85923515  1
  O  O315  1  -0.00388005  0.12009498  0.01087285  1
  O  O316  1  0.00651789  0.11817571  0.50747276  1
  O  O317  1  0.00911690  0.62143413  0.01031377  1
  O  O318  1  0.00743400  0.61771500  0.50298824  1
  O  O319  1  0.51247044  0.12429529  0.01168718  1
  O  O320  1  0.51069008  0.11487812  0.49130721  1
  O  O321  1  0.50319845  0.61892604  0.00502750  1
  O  O322  1  0.50927820  0.63113183  0.51184111  1
  O  O323  1  0.50697674  0.37779938  0.49446523  1
  O  O324  1  0.50102207  0.39040588  0.99060999  1
  O  O325  1  0.49570934  0.88051394  0.48730495  1
  O  O326  1  0.49415830  0.87312504  0.99160844  1
  O  O327  1  0.99582852  0.38207815  0.49996619  1
  O  O328  1  0.98970329  0.37422460  0.98797329  1
  O  O329  1  0.98970656  0.88080632  0.49413351  1
  O  O330  1  0.99174766  0.88377291  1.00010182  1
  O  O331  1  0.49829463  0.48737318  0.37505660  1
  O  O332  1  0.49352123  0.50307886  0.87939101  1
  O  O333  1  0.49340910  0.99291093  0.38081856  1
  O  O334  1  0.50551362  0.98371815  0.88093366  1
  O  O335  1  0.99491708  0.48776277  0.38873944  1
  O  O336  1  0.98883510  0.49160683  0.87156449  1
  O  O337  1  0.99418988  0.99553995  0.38209843  1
  O  O338  1  0.98737259  1.00322752  0.88316188  1
  O  O339  1  -0.00154744  0.00731916  0.11722582  1
  O  O340  1  -0.00650637  0.00933102  0.61636282  1
  O  O341  1  0.00225852  0.51110464  0.12755192  1
  O  O342  1  0.00299819  0.50549528  0.62453876  1
  O  O343  1  0.50621047  0.00894842  0.12701060  1
  O  O344  1  0.50906576  -0.00774503  0.60741797  1
  O  O345  1  0.50101746  0.50653517  0.11594911  1
  O  O346  1  0.50914422  0.50944168  0.63446186  1
  O  O347  1  0.25287216  0.35818536  0.25621499  1
  O  O348  1  0.24884244  0.38662556  0.74600341  1
  O  O349  1  0.24614292  0.88245700  0.24328595  1
  O  O350  1  0.23339247  0.84025641  0.73205007  1
  O  O351  1  0.75896156  0.38425708  0.24253078  1
  O  O352  1  0.74691907  0.38434309  0.74462150  1
  O  O353  1  0.74040294  0.88052359  0.24782978  1
  O  O354  1  0.73417114  0.87602289  0.74377708  1
  O  O355  1  0.24339924  0.11135067  0.25131297  1
  O  O356  1  0.24903528  0.12882791  0.77057793  1
  O  O357  1  0.25397178  0.62391291  0.25266565  1
  O  O358  1  0.24574010  0.62584555  0.76322975  1
  O  O359  1  0.75379968  0.11580111  0.25462061  1
  O  O360  1  0.75257756  0.12835457  0.75755383  1
  O  O361  1  0.75619900  0.61296935  0.25390026  1
  O  O362  1  0.74682440  0.61862645  0.74053964  1
  O  O363  1  0.37500156  0.11372659  0.37869567  1
  O  O364  1  0.37709178  0.13278226  0.87519848  1
  O  O365  1  0.38449312  0.61558973  0.36725875  1
  O  O366  1  0.36703109  0.61733624  0.87905744  1
  O  O367  1  0.86929354  0.11730141  0.36995481  1
  O  O368  1  0.86705373  0.12250927  0.86623001  1
  O  O369  1  0.87697923  0.62722030  0.36168861  1
  O  O370  1  0.87762718  0.61648694  0.87622065  1
  O  O371  1  0.12517280  0.37825961  0.12844869  1
  O  O372  1  0.13543525  0.38332122  0.62882634  1
  O  O373  1  0.13216589  0.87701479  0.12952639  1
  O  O374  1  0.12167463  0.86918129  0.62124060  1
  O  O375  1  0.63947136  0.37418822  0.11846745  1
  O  O376  1  0.63078816  0.38146222  0.63155292  1
  O  O377  1  0.62074085  0.88103910  0.13303787  1
  O  O378  1  0.62059884  0.87907728  0.63395733  1
  O  O379  1  0.10912177  0.23786665  0.24799860  1
  O  O380  1  0.11872717  0.25279201  0.75668958  1
  O  O381  1  0.12119124  0.75565773  0.25427222  1
  O  O382  1  0.10969490  0.74203626  0.76423445  1
  O  O383  1  0.61818086  0.24566508  0.26330125  1
  O  O384  1  0.63995745  0.27073305  0.75154100  1
  O  O385  1  0.63102995  0.75956207  0.24616783  1
  O  O386  1  0.61899403  0.76136702  0.74849309  1
  O  O387  1  0.39093610  0.24434208  0.24340269  1
  O  O388  1  0.37110334  0.25370564  0.73538595  1
  O  O389  1  0.36787616  0.73168711  0.24957400  1
  O  O390  1  0.38430067  0.75971572  0.73340830  1
  O  O391  1  0.88382457  0.24032326  0.24199490  1
  O  O392  1  0.87868489  0.24060125  0.73957461  1
  O  O393  1  0.88015481  0.74181941  0.24248535  1
  O  O394  1  0.87401673  0.74366010  0.74607849  1
  O  O395  1  0.36965449  0.50910199  0.48487899  1
  O  O396  1  0.38422210  0.50132171  0.99105430  1
  O  O397  1  0.38150027  0.99255504  0.49219314  1
  O  O398  1  0.37916477  0.98668946  1.00757641  1
  O  O399  1  0.88599709  0.50114956  0.51015057  1
  O  O400  1  0.87882631  0.49157837  0.99243371  1
  O  O401  1  0.88236908  0.99320568  0.49573020  1
  O  O402  1  0.88395128  1.00250044  0.99319083  1
  O  O403  1  0.11017503  0.00246492  -0.00507850  1
  O  O404  1  0.11310461  0.00576185  0.49525112  1
  O  O405  1  0.11947692  0.51277381  -0.00723060  1
  O  O406  1  0.11505833  0.50595185  0.50895526  1
  O  O407  1  0.62303348  0.00287691  0.01500952  1
  O  O408  1  0.61899633  0.00352256  0.50167313  1
  O  O409  1  0.61820796  0.51167025  0.00218168  1
  O  O410  1  0.63217164  0.50811295  0.51530291  1
  O  O411  1  0.37427497  0.36400630  0.12531123  1
  O  O412  1  0.36384708  0.37943074  0.62661374  1
  O  O413  1  0.36886869  0.87061766  0.11789202  1
  O  O414  1  0.38080953  0.86601960  0.60554432  1
  O  O415  1  0.86974933  0.36718410  0.11624317  1
  O  O416  1  0.86828581  0.36642643  0.62528635  1
  O  O417  1  0.87447912  0.85619808  0.12954471  1
  O  O418  1  0.87929123  0.86452531  0.61524656  1
  O  O419  1  0.12526234  0.12285724  0.38886208  1
  O  O420  1  0.11844640  0.14030742  0.87887384  1
  O  O421  1  0.13261636  0.62085041  0.37557559  1
  O  O422  1  0.13041288  0.63189932  0.88335905  1
  O  O423  1  0.63011137  0.13059777  0.38180386  1
  O  O424  1  0.63095643  0.11867878  0.89503374  1
  O  O425  1  0.62393874  0.61771616  0.38904979  1
  O  O426  1  0.62726136  0.62635212  0.88932947  1
