# generated using pymatgen
data_V85Zn86O256
_symmetry_space_group_name_H-M   'P 1'
_cell_length_a   16.91520272
_cell_length_b   16.92507930
_cell_length_c   16.92362922
_cell_angle_alpha   89.96557377
_cell_angle_beta   90.01512726
_cell_angle_gamma   90.01788639
_symmetry_Int_Tables_number   1
_chemical_formula_structural   V85Zn86O256
_chemical_formula_sum   'V85 Zn86 O256'
_cell_volume   4845.08394979
_cell_formula_units_Z   1
loop_
 _symmetry_equiv_pos_site_id
 _symmetry_equiv_pos_as_xyz
  1  'x, y, z'
loop_
 _atom_site_type_symbol
 _atom_site_label
 _atom_site_symmetry_multiplicity
 _atom_site_fract_x
 _atom_site_fract_y
 _atom_site_fract_z
 _atom_site_occupancy
  V  V0  1  0.50340587  0.13714072  0.11211410  1
  V  V1  1  0.00170879  0.12156028  0.62819479  1
  V  V2  1  0.50496315  0.75428387  0.74601739  1
  V  V3  1  0.86164292  0.25595382  0.62471907  1
  V  V4  1  0.87056035  0.13542020  0.24800500  1
  V  V5  1  0.87567800  0.62368722  0.74939499  1
  V  V6  1  0.55673757  0.20321876  0.30898726  1
  V  V7  1  0.61892079  0.24870329  0.87566622  1
  V  V8  1  0.87728776  0.75127307  0.62100915  1
  V  V9  1  0.00422064  0.88314345  0.37524386  1
  V  V10  1  0.24472443  0.12560063  0.88617566  1
  V  V11  1  0.12935785  0.49043648  0.12230612  1
  V  V12  1  0.00550614  0.50312515  -0.00474009  1
  V  V13  1  0.37473503  0.88371226  0.49682160  1
  V  V14  1  0.75189224  0.61968926  0.36983417  1
  V  V15  1  0.63145212  0.50071564  0.12428030  1
  V  V16  1  0.37969256  0.38241852  0.50112594  1
  V  V17  1  0.50796998  0.00551783  0.49878813  1
  V  V18  1  0.87914733  0.49379189  0.87336027  1
  V  V19  1  0.36905738  0.37771959  0.00684757  1
  V  V20  1  0.37431791  0.13156965  0.25602774  1
  V  V21  1  0.87716207  0.86677981  0.00062234  1
  V  V22  1  0.75179320  -0.00185283  0.25027602  1
  V  V23  1  0.37456533  0.74810321  0.12009334  1
  V  V24  1  0.50014399  0.61840853  0.11833056  1
  V  V25  1  0.00642300  0.00381944  0.00299346  1
  V  V26  1  0.12665844  0.00021108  0.13081043  1
  V  V27  1  0.74314970  0.12383187  0.88249840  1
  V  V28  1  0.88022266  0.37213092  0.00076855  1
  V  V29  1  0.87744665  0.62477458  0.24989431  1
  V  V30  1  0.12149514  0.37796934  0.75383503  1
  V  V31  1  0.25183657  0.48649171  0.24745186  1
  V  V32  1  0.50106958  0.74958074  0.24819103  1
  V  V33  1  0.49995934  0.61684595  0.61587998  1
  V  V34  1  0.49729832  0.87620264  0.37369016  1
  V  V35  1  0.25443102  0.11971161  0.38220049  1
  V  V36  1  0.87581397  0.00005989  0.87663689  1
  V  V37  1  0.11689520  0.36775162  0.26320955  1
  V  V38  1  0.62358023  0.38075785  0.25240198  1
  V  V39  1  0.75021500  0.87328951  0.12451847  1
  V  V40  1  0.00065505  0.13615739  0.12418647  1
  V  V41  1  0.73288639  0.25098258  0.49239362  1
  V  V42  1  0.62823406  0.75180776  0.86947175  1
  V  V43  1  0.50665865  0.12971945  0.63037134  1
  V  V44  1  0.37446370  0.62082780  0.24842244  1
  V  V45  1  0.24550029  0.37720514  0.62525739  1
  V  V46  1  0.00606358  0.87158350  0.87633122  1
  V  V47  1  0.12276875  0.62400112  0.50508216  1
  V  V48  1  0.62208877  0.61860927  -0.00564306  1
  V  V49  1  0.87145419  0.12454057  0.75171651  1
  V  V50  1  0.75557084  0.37632778  0.12853249  1
  V  V51  1  0.74134206  0.87160012  0.62807236  1
  V  V52  1  0.12201400  0.00474673  0.61432281  1
  V  V53  1  0.23806340  0.74446302  -0.00655684  1
  V  V54  1  0.74988733  0.24859055  0.00356312  1
  V  V55  1  0.24815031  0.87658587  0.62436780  1
  V  V56  1  0.00843399  0.62323860  0.12529585  1
  V  V57  1  0.24817100  0.00399026  0.75132173  1
  V  V58  1  0.37606040  0.75152235  0.62434352  1
  V  V59  1  0.37364976  0.00215769  0.87664115  1
  V  V60  1  0.37468442  0.62599659  0.74962690  1
  V  V61  1  0.24862847  0.75079183  0.49780892  1
  V  V62  1  0.12082659  0.24954194  0.88200480  1
  V  V63  1  0.24642221  0.50242830  0.74662584  1
  V  V64  1  0.25450306  -0.00373466  0.25315378  1
  V  V65  1  0.37500458  0.25003106  0.63405513  1
  V  V66  1  -0.00258336  0.25402567  0.75518086  1
  V  V67  1  0.50201966  0.87432846  0.87219212  1
  V  V68  1  0.50536532  0.38596435  0.37737074  1
  V  V69  1  0.37987776  0.50312412  0.87690874  1
  V  V70  1  0.37176659  0.87542959  0.00283277  1
  V  V71  1  0.62552546  0.37579229  0.74987671  1
  V  V72  1  0.63234444  0.49499944  0.61629292  1
  V  V73  1  0.24835789  0.24884349  0.49723345  1
  V  V74  1  0.49802254  0.37520520  0.87672714  1
  V  V75  1  0.24664710  0.62301478  0.37175141  1
  V  V76  1  0.87920174  0.49013009  0.36988750  1
  V  V77  1  0.74008154  -0.00658160  0.75383199  1
  V  V78  1  0.07160791  0.18585921  0.44182852  1
  V  V79  1  0.00470955  0.74795375  0.75242975  1
  V  V80  1  0.50616586  0.00023121  0.00082717  1
  V  V81  1  0.00350734  0.49081952  0.50189861  1
  V  V82  1  0.75169449  0.75070966  0.49449348  1
  V  V83  1  0.75399139  0.62037359  0.87266255  1
  V  V84  1  0.12373020  0.87468945  0.75005385  1
  Zn  Zn85  1  0.24190003  0.25418596  0.00905521  1
  Zn  Zn86  1  0.87373948  0.37097423  0.49851410  1
  Zn  Zn87  1  0.75378238  0.49309267  0.74402594  1
  Zn  Zn88  1  0.62676428  0.87196337  0.24720016  1
  Zn  Zn89  1  0.24083524  0.86796852  0.13317745  1
  Zn  Zn90  1  0.62754154  0.00450517  0.11956572  1
  Zn  Zn91  1  0.62155351  0.61984616  0.49291908  1
  Zn  Zn92  1  0.01082074  0.75639629  0.24781074  1
  Zn  Zn93  1  0.87302894  0.00011188  0.37752403  1
  Zn  Zn94  1  0.62246191  -0.00241284  0.62738138  1
  Zn  Zn95  1  0.73651118  0.12376654  0.37872568  1
  Zn  Zn96  1  0.12638515  0.75727608  0.36416752  1
  Zn  Zn97  1  0.75073203  0.74734803  0.00032301  1
  Zn  Zn98  1  0.88074447  0.90038025  0.50421019  1
  Zn  Zn99  1  0.36954436  0.25743772  0.13162975  1
  Zn  Zn100  1  0.37753537  0.50216289  0.37928377  1
  Zn  Zn101  1  0.00181986  0.62285160  0.62243366  1
  Zn  Zn102  1  0.37590061  0.13164687  0.75396730  1
  Zn  Zn103  1  0.87695898  0.74558414  0.12564952  1
  Zn  Zn104  1  0.62614362  0.74710052  0.37309192  1
  Zn  Zn105  1  -0.00154642  0.25169095  0.26393566  1
  Zn  Zn106  1  0.23778396  0.62672182  0.87411756  1
  Zn  Zn107  1  0.18673098  0.18825085  0.18898465  1
  Zn  Zn108  1  0.18636369  0.18868602  0.69081252  1
  Zn  Zn109  1  0.18706280  0.68316613  0.18496029  1
  Zn  Zn110  1  0.18615639  0.68763792  0.68681226  1
  Zn  Zn111  1  0.69012390  0.18648508  0.17929858  1
  Zn  Zn112  1  0.68411806  0.18812481  0.69452215  1
  Zn  Zn113  1  0.69078039  0.68702043  0.18720092  1
  Zn  Zn114  1  0.68731662  0.68256639  0.68468290  1
  Zn  Zn115  1  0.31441169  0.31026286  0.31713974  1
  Zn  Zn116  1  0.30802971  0.31438006  0.81775754  1
  Zn  Zn117  1  0.31447833  0.80971072  0.31210339  1
  Zn  Zn118  1  0.31315600  0.81408268  0.81359635  1
  Zn  Zn119  1  0.80611266  0.31045745  0.31404690  1
  Zn  Zn120  1  0.80865733  0.31281596  0.81463782  1
  Zn  Zn121  1  0.82320187  0.81320394  0.31382746  1
  Zn  Zn122  1  0.81681546  0.81100998  0.81271112  1
  Zn  Zn123  1  0.18773679  0.43854998  0.43726504  1
  Zn  Zn124  1  0.18925887  0.43968746  0.93217911  1
  Zn  Zn125  1  0.18511939  0.94025832  0.43443149  1
  Zn  Zn126  1  0.18572691  0.93670703  0.94188750  1
  Zn  Zn127  1  0.69425638  0.43364268  0.43851530  1
  Zn  Zn128  1  0.68913652  0.43638450  0.93778162  1
  Zn  Zn129  1  0.68636119  0.93328367  0.43614696  1
  Zn  Zn130  1  0.68718571  0.93358322  0.93792359  1
  Zn  Zn131  1  0.31607825  0.06783948  0.06952345  1
  Zn  Zn132  1  0.31512123  0.06403946  0.56483396  1
  Zn  Zn133  1  0.31025588  0.56022488  0.06037082  1
  Zn  Zn134  1  0.31007766  0.56299194  0.56396390  1
  Zn  Zn135  1  0.81831887  0.06066030  0.06416197  1
  Zn  Zn136  1  0.80100294  0.06472436  0.56826439  1
  Zn  Zn137  1  0.81560089  0.56165384  0.05983734  1
  Zn  Zn138  1  0.81479087  0.56353876  0.55615629  1
  Zn  Zn139  1  0.44440067  0.43792978  0.18926982  1
  Zn  Zn140  1  0.43990272  0.43670866  0.69084061  1
  Zn  Zn141  1  0.43398719  0.94273385  0.18637688  1
  Zn  Zn142  1  0.43662834  0.94011665  0.68668881  1
  Zn  Zn143  1  0.94061736  0.43673052  0.18761339  1
  Zn  Zn144  1  0.93963684  0.43720374  0.68436193  1
  Zn  Zn145  1  0.93695449  0.93886136  0.19049377  1
  Zn  Zn146  1  0.93277777  0.93735266  0.68809420  1
  Zn  Zn147  1  0.06089081  0.05797282  0.30613617  1
  Zn  Zn148  1  0.06377298  0.06381598  0.81229487  1
  Zn  Zn149  1  0.06328464  0.55965051  0.31289810  1
  Zn  Zn150  1  0.06107204  0.55892908  0.80857236  1
  Zn  Zn151  1  0.56028426  0.04063621  0.30741391  1
  Zn  Zn152  1  0.56118931  0.06541417  0.81259534  1
  Zn  Zn153  1  0.56525609  0.56161369  0.30877431  1
  Zn  Zn154  1  0.56171759  0.56174637  0.80512248  1
  Zn  Zn155  1  0.43150461  0.18795300  0.44782774  1
  Zn  Zn156  1  0.43297038  0.19223779  0.93706427  1
  Zn  Zn157  1  0.43390308  0.68998306  0.43623651  1
  Zn  Zn158  1  0.43669411  0.68713445  0.93545470  1
  Zn  Zn159  1  0.89939433  0.14371027  0.46419476  1
  Zn  Zn160  1  0.93509394  0.18775713  0.93947632  1
  Zn  Zn161  1  0.94079967  0.69115884  0.43314236  1
  Zn  Zn162  1  1.06002326  0.68568137  0.93810308  1
  Zn  Zn163  1  0.06247943  0.31859105  0.06608557  1
  Zn  Zn164  1  0.05742529  0.31597690  0.57291289  1
  Zn  Zn165  1  0.06128737  0.81617701  0.07128881  1
  Zn  Zn166  1  0.06122612  0.81465906  0.55559421  1
  Zn  Zn167  1  0.56193340  0.31836832  0.05527307  1
  Zn  Zn168  1  0.55915126  0.31487369  0.56486245  1
  Zn  Zn169  1  0.56496917  0.80884774  0.05856077  1
  Zn  Zn170  1  0.56492312  0.81020133  0.55854435  1
  O  O171  1  0.10796531  0.11636827  0.13154603  1
  O  O172  1  0.11404533  0.11790652  0.63444263  1
  O  O173  1  0.11468173  0.60916289  0.12874012  1
  O  O174  1  0.12634714  0.62608600  0.60938904  1
  O  O175  1  0.60679075  0.12436419  0.12784929  1
  O  O176  1  0.61027896  0.12363485  0.63091913  1
  O  O177  1  0.62251208  0.61998264  0.11590443  1
  O  O178  1  0.61760490  0.61205263  0.62210661  1
  O  O179  1  0.38400599  0.37605598  0.38421056  1
  O  O180  1  0.38001462  0.38316153  0.87869811  1
  O  O181  1  0.38669173  0.86674945  0.38464233  1
  O  O182  1  0.38056014  0.88042101  0.88523532  1
  O  O183  1  0.87212737  0.38705067  0.37291487  1
  O  O184  1  0.86827553  0.38602284  0.88312486  1
  O  O185  1  0.88197992  0.88120092  0.38339974  1
  O  O186  1  0.88582214  0.88039571  0.88079807  1
  O  O187  1  0.24866317  0.01068997  0.36953092  1
  O  O188  1  0.25094582  0.00552918  0.87042845  1
  O  O189  1  0.25347442  0.50653061  0.36667541  1
  O  O190  1  0.26019520  0.50218560  0.86201381  1
  O  O191  1  0.74402950  0.00421026  0.36463942  1
  O  O192  1  0.75301310  0.00497939  0.87327306  1
  O  O193  1  0.76684773  0.50717824  0.38066807  1
  O  O194  1  0.75617197  0.50642640  0.87251395  1
  O  O195  1  0.24101604  0.50563753  0.13468472  1
  O  O196  1  0.25453161  0.49159267  0.63696372  1
  O  O197  1  0.24311324  1.00370119  0.13357310  1
  O  O198  1  0.24442334  0.99723354  0.63351036  1
  O  O199  1  0.73994452  0.49232171  0.11788109  1
  O  O200  1  0.73659764  0.50512441  0.62464079  1
  O  O201  1  0.74837471  0.99225979  0.12825803  1
  O  O202  1  0.74514444  0.99154664  0.63605810  1
  O  O203  1  0.01103994  0.37072662  0.25143334  1
  O  O204  1  0.00895575  0.36661166  0.74424973  1
  O  O205  1  -0.01044013  0.87231023  0.26558753  1
  O  O206  1  0.00205727  0.86954991  0.75726470  1
  O  O207  1  0.51259750  0.37387559  0.25852453  1
  O  O208  1  0.51017298  0.37897173  0.76343007  1
  O  O209  1  0.49660730  0.86861917  0.25503210  1
  O  O210  1  0.49352035  0.86265161  0.75480925  1
  O  O211  1  0.49889571  0.13338250  0.25134722  1
  O  O212  1  0.49326150  0.11883926  0.73555518  1
  O  O213  1  0.49463718  0.63109001  0.24203772  1
  O  O214  1  0.49428624  0.63580587  0.73980096  1
  O  O215  1  0.98987545  0.12878062  0.24180706  1
  O  O216  1  0.99201475  0.13100122  0.74539278  1
  O  O217  1  0.99457442  0.62205261  0.24173868  1
  O  O218  1  0.99421986  0.63227782  0.74415069  1
  O  O219  1  0.37178889  0.26858857  -0.00238498  1
  O  O220  1  0.36513665  0.26132137  0.51222295  1
  O  O221  1  0.37005389  0.75796038  0.00271801  1
  O  O222  1  0.36892052  0.75964677  0.50645422  1
  O  O223  1  0.86579565  0.26284713  -0.00719597  1
  O  O224  1  0.87312956  0.24786635  0.51704428  1
  O  O225  1  0.87563878  0.76458000  -0.00032617  1
  O  O226  1  0.86479867  0.74481687  0.50867616  1
  O  O227  1  0.12800940  0.25211650  0.50143921  1
  O  O228  1  0.12094004  0.26033302  0.98574281  1
  O  O229  1  0.13345779  0.74203151  0.49546282  1
  O  O230  1  0.13408265  0.75381743  1.00302878  1
  O  O231  1  0.63461354  0.25151076  0.50657197  1
  O  O232  1  0.63574006  0.25786490  0.98672206  1
  O  O233  1  0.63955861  0.74515060  0.49823798  1
  O  O234  1  0.62761711  0.73688357  0.98895174  1
  O  O235  1  0.49679170  0.24025583  0.11482794  1
  O  O236  1  0.49128084  0.23780695  0.62130450  1
  O  O237  1  0.49583733  0.74092622  0.12839449  1
  O  O238  1  0.49689551  0.74587638  0.63043170  1
  O  O239  1  1.00297361  0.23762648  0.12536497  1
  O  O240  1  0.99283807  0.24056680  0.63723807  1
  O  O241  1  0.99767737  0.73808564  0.12504530  1
  O  O242  1  0.99175187  0.75020603  0.62978321  1
  O  O243  1  0.00621158  0.23456776  0.38518437  1
  O  O244  1  0.00332991  0.24358534  0.86297825  1
  O  O245  1  0.00356699  0.76116833  0.37055553  1
  O  O246  1  0.00011318  0.75987629  0.86608682  1
  O  O247  1  0.50050604  0.25624525  0.37651930  1
  O  O248  1  0.50782601  0.25819881  0.87878940  1
  O  O249  1  0.50031517  0.75325181  0.36382791  1
  O  O250  1  0.50731233  0.75234469  0.86569338  1
  O  O251  1  0.25500216  0.13277891  0.49407515  1
  O  O252  1  0.25366962  0.12232537  0.98830643  1
  O  O253  1  0.24512184  0.62805036  0.49224549  1
  O  O254  1  0.25435991  0.64135573  0.99735310  1
  O  O255  1  0.75306849  0.14214319  0.49713341  1
  O  O256  1  0.75724380  0.13341060  0.99415407  1
  O  O257  1  0.75003190  0.63161703  0.48638522  1
  O  O258  1  0.74525095  0.62564000  0.98740279  1
  O  O259  1  0.26496778  0.37597652  -0.00529885  1
  O  O260  1  0.25261880  0.36987542  0.50809597  1
  O  O261  1  0.25638399  0.86565553  0.00238256  1
  O  O262  1  0.25694436  0.87259649  0.50231556  1
  O  O263  1  0.75759059  0.36994812  0.00765384  1
  O  O264  1  0.75554834  0.35702940  0.49953814  1
  O  O265  1  0.75973336  0.87413022  0.00541113  1
  O  O266  1  0.75425643  0.86813184  0.50790894  1
  O  O267  1  0.13171157  0.49008693  0.24528936  1
  O  O268  1  0.13343321  0.49055318  0.74995276  1
  O  O269  1  0.13970087  1.00503762  0.24253020  1
  O  O270  1  0.13427218  0.99479193  0.74528693  1
  O  O271  1  0.62589870  0.49258579  0.23736786  1
  O  O272  1  0.62822022  0.49390219  0.73955797  1
  O  O273  1  0.63664367  0.99230022  0.24050980  1
  O  O274  1  0.63641096  0.99905397  0.75332254  1
  O  O275  1  0.36818620  0.01755236  0.24560564  1
  O  O276  1  0.36094938  -0.00288647  0.75726510  1
  O  O277  1  0.36846029  0.50352415  0.24958832  1
  O  O278  1  0.36846371  0.50662435  0.75455344  1
  O  O279  1  0.86182502  0.00823806  0.24858202  1
  O  O280  1  0.86510626  0.00441227  0.75810988  1
  O  O281  1  0.88217270  0.50726169  0.26266564  1
  O  O282  1  0.87508780  0.50248052  0.75484219  1
  O  O283  1  0.12553776  0.37820444  0.36181984  1
  O  O284  1  0.13082453  0.36663433  0.86113599  1
  O  O285  1  0.11103369  0.87584729  0.37905525  1
  O  O286  1  0.11290244  0.88162892  0.86900078  1
  O  O287  1  0.61998876  0.38203615  0.36551381  1
  O  O288  1  0.61672529  0.37171663  0.87198039  1
  O  O289  1  0.61108293  0.86895501  0.37146962  1
  O  O290  1  0.61942872  0.85947927  0.87925053  1
  O  O291  1  0.39270058  0.12708756  0.13494963  1
  O  O292  1  0.38092290  0.13418921  0.62974548  1
  O  O293  1  0.38405643  0.62651928  0.12596977  1
  O  O294  1  0.38179520  0.63029218  0.62883300  1
  O  O295  1  0.88656861  0.12085884  0.13743514  1
  O  O296  1  0.88005895  0.13414413  0.63438191  1
  O  O297  1  0.88506763  0.61939488  0.13254830  1
  O  O298  1  0.87286997  0.63573099  0.63131626  1
  O  O299  1  0.25752714  0.23615575  0.11885114  1
  O  O300  1  0.25398936  0.25498563  0.61768664  1
  O  O301  1  0.25674800  0.74974077  0.11315664  1
  O  O302  1  0.25491194  0.75725669  0.61870744  1
  O  O303  1  0.74582907  0.25915992  0.11121563  1
  O  O304  1  0.75876148  0.24393619  0.62360280  1
  O  O305  1  0.75577166  0.75653515  0.12091841  1
  O  O306  1  0.75618509  0.75420713  0.62052326  1
  O  O307  1  0.25170239  0.24321935  0.39092365  1
  O  O308  1  0.23971635  0.24169012  0.87825120  1
  O  O309  1  0.25043697  0.74146778  0.38040908  1
  O  O310  1  0.25282949  0.75118315  0.88981544  1
  O  O311  1  0.74546160  0.24538762  0.38714366  1
  O  O312  1  0.74424350  0.24116695  0.88326821  1
  O  O313  1  0.75130990  0.74448902  0.38040409  1
  O  O314  1  0.74391107  0.74181958  0.87351964  1
  O  O315  1  -0.00958411  0.11833270  0.01483592  1
  O  O316  1  0.00950750  0.13341560  0.50862153  1
  O  O317  1  0.00100041  0.61165278  0.00871829  1
  O  O318  1  0.00812946  0.61859560  0.49896318  1
  O  O319  1  0.49284854  0.11810175  0.00720994  1
  O  O320  1  0.49156693  0.11549356  0.51455671  1
  O  O321  1  0.50855585  0.62978321  0.00700212  1
  O  O322  1  0.50074839  0.63251971  0.51168995  1
  O  O323  1  0.49133759  0.37126938  0.49129939  1
  O  O324  1  0.48975044  0.37870649  0.98536334  1
  O  O325  1  0.49391467  0.87895001  0.49409377  1
  O  O326  1  0.49267628  0.87977379  0.99422560  1
  O  O327  1  0.99776313  0.38678482  0.50300567  1
  O  O328  1  0.98727672  0.38528788  1.00662896  1
  O  O329  1  0.99366282  0.87226155  0.48561859  1
  O  O330  1  0.99629794  0.88135863  0.99444700  1
  O  O331  1  0.49715530  0.49067668  0.37250465  1
  O  O332  1  0.48677463  0.49686706  0.86814330  1
  O  O333  1  0.49686878  0.98941138  0.38464754  1
  O  O334  1  0.49413897  0.99595490  0.88000378  1
  O  O335  1  0.98752925  0.50475627  0.38616391  1
  O  O336  1  0.99085758  0.50111686  0.88250905  1
  O  O337  1  0.99747213  0.98915532  0.37076386  1
  O  O338  1  0.99628733  0.99653993  0.88244035  1
  O  O339  1  0.00483909  0.00675794  0.12066597  1
  O  O340  1  0.00541878  0.01249004  0.63358980  1
  O  O341  1  0.00799575  0.50398397  0.11742360  1
  O  O342  1  -0.00658748  0.50476196  0.60690768  1
  O  O343  1  0.50158511  0.00922946  0.11574302  1
  O  O344  1  0.50125590  0.00883622  0.61954112  1
  O  O345  1  0.51194027  0.51250162  0.12737574  1
  O  O346  1  0.50864834  0.50963845  0.63009078  1
  O  O347  1  0.24433048  0.38305405  0.25594625  1
  O  O348  1  0.24477443  0.38208609  0.74389728  1
  O  O349  1  0.26413937  0.89090597  0.24919096  1
  O  O350  1  0.24370776  0.88080604  0.74591321  1
  O  O351  1  0.73871463  0.36683577  0.23697730  1
  O  O352  1  0.73258125  0.37651601  0.75675902  1
  O  O353  1  0.75286075  0.87993582  0.24192389  1
  O  O354  1  0.75717157  0.88220719  0.74297093  1
  O  O355  1  0.25678034  0.12064756  0.26257406  1
  O  O356  1  0.25129595  0.11716137  0.75892021  1
  O  O357  1  0.25613111  0.61550118  0.25602183  1
  O  O358  1  0.25578088  0.61903783  0.74829468  1
  O  O359  1  0.75694911  0.11949031  0.24506794  1
  O  O360  1  0.75309060  0.11686832  0.76011092  1
  O  O361  1  0.75848273  0.62726996  0.26092538  1
  O  O362  1  0.75549551  0.62268746  0.75900642  1
  O  O363  1  0.36581372  0.12948720  0.37099786  1
  O  O364  1  0.36709514  0.11969143  0.87252964  1
  O  O365  1  0.36442770  0.62339196  0.37018735  1
  O  O366  1  0.37270462  0.61917831  0.86722773  1
  O  O367  1  0.86771654  0.12014120  0.35665517  1
  O  O368  1  0.86425695  0.11983259  0.87149978  1
  O  O369  1  0.87147080  0.61764080  0.36801649  1
  O  O370  1  0.86574787  0.61178657  0.86638234  1
  O  O371  1  0.12373603  0.38539567  0.13751195  1
  O  O372  1  0.13822404  0.36869484  0.63648695  1
  O  O373  1  0.12614702  0.89326632  0.12291373  1
  O  O374  1  0.12885306  0.88270895  0.62939987  1
  O  O375  1  0.62863556  0.38381929  0.12756694  1
  O  O376  1  0.61668112  0.38798944  0.63317294  1
  O  O377  1  0.63911835  0.87328590  0.12112524  1
  O  O378  1  0.63740520  0.87315117  0.62474714  1
  O  O379  1  0.12287091  0.26374996  0.25102232  1
  O  O380  1  0.11580269  0.25622210  0.75755338  1
  O  O381  1  0.12651784  0.74908584  0.24952383  1
  O  O382  1  0.11196329  0.75716584  0.74193949  1
  O  O383  1  0.62117795  0.25588000  0.24808560  1
  O  O384  1  0.62747909  0.25850300  0.76498996  1
  O  O385  1  0.61162994  0.75054493  0.24674454  1
  O  O386  1  0.61651626  0.74293047  0.75668026  1
  O  O387  1  0.37378792  0.23878356  0.24986584  1
  O  O388  1  0.36711665  0.25352133  0.73799851  1
  O  O389  1  0.38343695  0.74286367  0.24072639  1
  O  O390  1  0.38032162  0.74552169  0.74402134  1
  O  O391  1  0.87565427  0.23920687  0.25215108  1
  O  O392  1  0.87785461  0.24711963  0.74478312  1
  O  O393  1  0.87922166  0.73411975  0.24786551  1
  O  O394  1  0.88613559  0.74604100  0.74312564  1
  O  O395  1  0.36881620  0.48642546  0.50110609  1
  O  O396  1  0.37043507  0.49147537  0.98946857  1
  O  O397  1  0.38284783  0.98737332  0.50681765  1
  O  O398  1  0.38174901  0.99290243  0.99681257  1
  O  O399  1  0.88472857  0.49697374  0.49018891  1
  O  O400  1  0.88275921  0.49403403  0.99136957  1
  O  O401  1  0.87430665  1.02039970  0.49483781  1
  O  O402  1  0.88615634  0.99125785  0.99508938  1
  O  O403  1  0.11198659  0.00106346  0.00539217  1
  O  O404  1  0.13028357  0.00096882  0.51560648  1
  O  O405  1  0.11728323  0.48864617  0.00724489  1
  O  O406  1  0.11106976  0.50547526  0.49342129  1
  O  O407  1  0.61021550  -0.00389362  -0.00230013  1
  O  O408  1  0.61175161  -0.00447881  0.50300784  1
  O  O409  1  0.62716525  0.51171499  0.00363088  1
  O  O410  1  0.62730047  0.49833862  0.51239904  1
  O  O411  1  0.38435967  0.37857920  0.11020227  1
  O  O412  1  0.36774693  0.37025941  0.62197851  1
  O  O413  1  0.37485253  0.87052717  0.11321114  1
  O  O414  1  0.36828088  0.87085576  0.61839747  1
  O  O415  1  0.86469532  0.38334741  0.11736483  1
  O  O416  1  0.87680537  0.35844858  0.62622719  1
  O  O417  1  0.86687551  0.87546064  0.11728434  1
  O  O418  1  0.86702763  0.86593849  0.62188313  1
  O  O419  1  0.12916230  0.12465017  0.38023488  1
  O  O420  1  0.13190343  0.13588405  0.87091691  1
  O  O421  1  0.13686740  0.62257284  0.38217771  1
  O  O422  1  0.12494540  0.62463675  0.87158504  1
  O  O423  1  0.61309655  0.13487907  0.36010700  1
  O  O424  1  0.63437408  0.13204203  0.87349133  1
  O  O425  1  0.63479960  0.62484994  0.37408606  1
  O  O426  1  0.62970834  0.62902567  0.87753781  1
