# generated using pymatgen
data_V85Zn86O256
_symmetry_space_group_name_H-M   'P 1'
_cell_length_a   16.94671532
_cell_length_b   16.95095844
_cell_length_c   16.95952533
_cell_angle_alpha   89.90207249
_cell_angle_beta   89.91162025
_cell_angle_gamma   90.00705182
_symmetry_Int_Tables_number   1
_chemical_formula_structural   V85Zn86O256
_chemical_formula_sum   'V85 Zn86 O256'
_cell_volume   4871.83231308
_cell_formula_units_Z   1
loop_
 _symmetry_equiv_pos_site_id
 _symmetry_equiv_pos_as_xyz
  1  'x, y, z'
loop_
 _atom_site_type_symbol
 _atom_site_label
 _atom_site_symmetry_multiplicity
 _atom_site_fract_x
 _atom_site_fract_y
 _atom_site_fract_z
 _atom_site_occupancy
  V  V0  1  0.25087861  0.37836258  0.12739949  1
  V  V1  1  0.25546158  0.74696971  0.49047651  1
  V  V2  1  0.88572016  0.88849129  0.49230904  1
  V  V3  1  0.86754539  0.26775133  0.12112380  1
  V  V4  1  0.49022167  0.24153365  0.75059874  1
  V  V5  1  0.25658086  0.62493497  0.87237999  1
  V  V6  1  0.37945819  0.24948470  0.12740646  1
  V  V7  1  0.74564101  0.23440559  0.49901202  1
  V  V8  1  0.24643744  0.00323993  0.74853863  1
  V  V9  1  0.49422617  0.87904878  0.37770614  1
  V  V10  1  0.49406107  0.63605867  0.12420397  1
  V  V11  1  0.12137818  0.38111868  0.75178405  1
  V  V12  1  0.62309540  0.75094503  0.37518480  1
  V  V13  1  0.74873758  0.49569846  0.24840262  1
  V  V14  1  0.13147658  0.75667850  0.88107080  1
  V  V15  1  0.87130044  0.62771909  0.24498335  1
  V  V16  1  0.37080718  0.37072154  0.50022950  1
  V  V17  1  0.62754978  0.23965726  0.37973617  1
  V  V18  1  0.62439610  0.37024079  0.74719327  1
  V  V19  1  0.74917339  0.37260995  0.62248625  1
  V  V20  1  -0.00052063  0.00199223  -0.00080713  1
  V  V21  1  0.50065448  0.12884381  0.12458044  1
  V  V22  1  0.50261182  0.37478087  0.87379547  1
  V  V23  1  0.26216038  0.12959154  0.86924238  1
  V  V24  1  -0.00353990  0.63014564  0.12195113  1
  V  V25  1  0.87334346  0.49803694  0.37450026  1
  V  V26  1  -0.00415474  0.74806259  0.25064045  1
  V  V27  1  0.25162857  0.11632035  0.37934035  1
  V  V28  1  0.12265273  -0.00246470  0.61241205  1
  V  V29  1  0.50055002  0.50487150  -0.00065308  1
  V  V30  1  0.12067513  0.74021881  0.37336346  1
  V  V31  1  0.49292477  0.11877277  0.62712129  1
  V  V32  1  0.75117737  0.49861046  0.74842661  1
  V  V33  1  0.49323916  -0.00689392  0.00290652  1
  V  V34  1  0.63537301  0.12371662  -0.00388063  1
  V  V35  1  0.63327079  0.23969905  0.87123168  1
  V  V36  1  0.38415114  0.37685611  0.00336525  1
  V  V37  1  0.00472132  0.12120630  0.61237373  1
  V  V38  1  0.88396973  0.87164221  0.00095203  1
  V  V39  1  0.12794391  0.25214095  0.87518690  1
  V  V40  1  0.75147489  0.75218197  0.50218233  1
  V  V41  1  0.76200112  0.87462558  0.12898582  1
  V  V42  1  0.13110320  0.12648932  0.00081397  1
  V  V43  1  0.49594574  0.00420267  0.49860960  1
  V  V44  1  0.87148126  0.12162623  0.75802407  1
  V  V45  1  0.00012258  0.50197953  0.50139750  1
  V  V46  1  -0.00131164  0.37109974  0.37500934  1
  V  V47  1  0.24525267  0.37356770  0.62543987  1
  V  V48  1  0.74925986  0.62847507  0.87560144  1
  V  V49  1  0.74376391  -0.00073413  0.75878264  1
  V  V50  1  0.47923067  0.62755961  0.62912355  1
  V  V51  1  0.62425133  0.62406999  0.50620159  1
  V  V52  1  0.50163395  0.87620321  0.86531047  1
  V  V53  1  0.87205853  0.37206487  0.49869072  1
  V  V54  1  0.36727997  0.63092107  0.25498826  1
  V  V55  1  0.24337173  0.24066232  0.50212121  1
  V  V56  1  0.37777351  0.12119500  0.25782313  1
  V  V57  1  0.63197314  0.00048501  0.12837186  1
  V  V58  1  -0.00774880  0.12882368  0.12488269  1
  V  V59  1  0.00788021  0.75974540  0.75026033  1
  V  V60  1  0.62224170  0.00422785  0.62163656  1
  V  V61  1  0.49744402  0.49847741  0.49934324  1
  V  V62  1  0.87709666  0.75375874  0.62425731  1
  V  V63  1  -0.00350146  0.49244079  0.00275529  1
  V  V64  1  0.74146547  0.87491950  0.63044142  1
  V  V65  1  0.63322061  0.87801554  0.25358239  1
  V  V66  1  0.62740102  0.50321829  0.12562368  1
  V  V67  1  0.25646912  -0.00945157  0.25053698  1
  V  V68  1  -0.00554042  0.24792588  0.24912163  1
  V  V69  1  0.87474821  0.24579727  0.62459590  1
  V  V70  1  0.12305138  0.24157411  0.37532989  1
  V  V71  1  0.62642090  0.37612216  0.25090398  1
  V  V72  1  0.24682109  0.86398008  0.63224847  1
  V  V73  1  0.74742920  0.62307941  0.37517850  1
  V  V74  1  0.50130013  0.25125248  0.25143206  1
  V  V75  1  0.12691296  0.50072939  0.12594549  1
  V  V76  1  0.80531059  0.06332516  0.31146967  1
  V  V77  1  0.08833200  0.90036937  0.27097150  1
  V  V78  1  0.00070612  0.24563431  0.75093655  1
  V  V79  1  0.25353221  0.25159947  -0.00037836  1
  V  V80  1  0.87523898  0.49232251  0.87943942  1
  V  V81  1  0.87786097  0.62563190  0.74930765  1
  V  V82  1  0.13025528  -0.00269689  0.12765137  1
  V  V83  1  0.75516905  0.75084936  0.00459779  1
  V  V84  1  0.49785583  0.37381558  0.37669064  1
  Zn  Zn85  1  0.62315028  0.49934172  0.62607632  1
  Zn  Zn86  1  0.49743854  0.75404545  0.24469106  1
  Zn  Zn87  1  0.24784259  0.50503728  0.25459631  1
  Zn  Zn88  1  0.00227303  0.62593135  0.62380663  1
  Zn  Zn89  1  0.36879781  0.24150301  0.63036954  1
  Zn  Zn90  1  0.75973125  0.26063814  -0.00526679  1
  Zn  Zn91  1  0.12364539  0.50291649  0.62524175  1
  Zn  Zn92  1  0.33744776  0.81328392  0.07511760  1
  Zn  Zn93  1  0.49959708  0.74390732  0.74718769  1
  Zn  Zn94  1  0.87017736  0.00270245  0.87897255  1
  Zn  Zn95  1  0.12807753  0.37302797  0.25186469  1
  Zn  Zn96  1  0.37334379  -0.00134275  0.87276100  1
  Zn  Zn97  1  0.62509064  0.63055600  -0.00102720  1
  Zn  Zn98  1  0.37089195  0.87794394  0.49671108  1
  Zn  Zn99  1  0.12493606  0.62833149  -0.00027517  1
  Zn  Zn100  1  0.26493726  0.50908898  0.74283884  1
  Zn  Zn101  1  0.00331979  0.87968486  0.87021571  1
  Zn  Zn102  1  0.38218048  0.51044425  0.86811668  1
  Zn  Zn103  1  0.63233618  0.76418521  0.86530283  1
  Zn  Zn104  1  0.12931755  0.62283422  0.49986029  1
  Zn  Zn105  1  -0.00329928  0.37184325  0.87958943  1
  Zn  Zn106  1  0.36202989  0.50599051  0.37744614  1
  Zn  Zn107  1  0.18965341  0.18444499  0.18874695  1
  Zn  Zn108  1  0.18334281  0.18376876  0.68815416  1
  Zn  Zn109  1  0.18162364  0.68974108  0.19278965  1
  Zn  Zn110  1  0.18494142  0.68449067  0.68793962  1
  Zn  Zn111  1  0.68917843  0.18825787  0.18800703  1
  Zn  Zn112  1  0.68524902  0.18070979  0.68505523  1
  Zn  Zn113  1  0.68590298  0.68969704  0.18605771  1
  Zn  Zn114  1  0.68429579  0.69078194  0.69076032  1
  Zn  Zn115  1  0.31101884  0.31050839  0.31537089  1
  Zn  Zn116  1  0.31686502  0.33136277  0.81025926  1
  Zn  Zn117  1  0.31286423  0.80875026  0.31018789  1
  Zn  Zn118  1  0.32003006  0.80937462  0.81848122  1
  Zn  Zn119  1  0.80954785  0.30417348  0.30952406  1
  Zn  Zn120  1  0.81244169  0.31022758  0.81060593  1
  Zn  Zn121  1  0.81361953  0.81326917  0.31577183  1
  Zn  Zn122  1  0.81754024  0.81646178  0.81380026  1
  Zn  Zn123  1  0.18333069  0.43408426  0.43620136  1
  Zn  Zn124  1  0.19123973  0.44499119  0.93933291  1
  Zn  Zn125  1  0.18494411  0.93314050  0.43780651  1
  Zn  Zn126  1  0.18826496  0.93875312  0.93221228  1
  Zn  Zn127  1  0.68527857  0.43404406  0.43709591  1
  Zn  Zn128  1  0.68958299  0.43758504  0.93566717  1
  Zn  Zn129  1  0.69104654  0.93987794  0.44274352  1
  Zn  Zn130  1  0.68761855  0.93780883  0.94273812  1
  Zn  Zn131  1  0.31069693  -0.02951328  0.06637774  1
  Zn  Zn132  1  0.31525688  0.05636423  0.56472714  1
  Zn  Zn133  1  0.30676323  0.65611688  0.06210813  1
  Zn  Zn134  1  0.30672763  0.55958089  0.55796234  1
  Zn  Zn135  1  0.81418232  0.06363779  0.06844338  1
  Zn  Zn136  1  0.81509228  0.05922444  0.56806550  1
  Zn  Zn137  1  0.81170411  0.55915268  0.06177717  1
  Zn  Zn138  1  0.81388387  0.56263102  0.56360038  1
  Zn  Zn139  1  0.43751934  0.44701844  0.18859389  1
  Zn  Zn140  1  0.43737609  0.43485955  0.68355378  1
  Zn  Zn141  1  0.44830794  0.94198391  0.19615315  1
  Zn  Zn142  1  0.41348177  0.90106369  0.70559425  1
  Zn  Zn143  1  0.93931609  0.43742216  0.18957517  1
  Zn  Zn144  1  0.93699175  0.43484713  0.68747454  1
  Zn  Zn145  1  0.93727015  0.95152378  0.20235030  1
  Zn  Zn146  1  0.93495231  0.93900710  0.68291284  1
  Zn  Zn147  1  0.05956102  0.06907452  0.31350172  1
  Zn  Zn148  1  0.06877627  0.06249265  0.80983878  1
  Zn  Zn149  1  0.06157245  0.56009473  0.31167196  1
  Zn  Zn150  1  0.06258168  0.56787091  0.81646971  1
  Zn  Zn151  1  0.56996507  0.06007780  0.31391254  1
  Zn  Zn152  1  0.56220994  0.05691273  0.81090600  1
  Zn  Zn153  1  0.55564526  0.56484712  0.31305927  1
  Zn  Zn154  1  0.56582628  0.56412085  0.80886944  1
  Zn  Zn155  1  0.43714442  0.18493137  0.44226657  1
  Zn  Zn156  1  0.44460850  0.18707219  0.94079069  1
  Zn  Zn157  1  0.43771520  0.68842809  0.43754278  1
  Zn  Zn158  1  0.43924069  0.69463256  0.93274312  1
  Zn  Zn159  1  0.92829315  0.18061259  0.43403997  1
  Zn  Zn160  1  0.93767087  0.18949614  0.93997544  1
  Zn  Zn161  1  0.93631547  0.68853876  0.43502475  1
  Zn  Zn162  1  0.94030730  0.68757845  0.93713158  1
  Zn  Zn163  1  0.06319662  0.31367008  0.06325428  1
  Zn  Zn164  1  0.06198260  0.31046441  0.56175617  1
  Zn  Zn165  1  0.16879547  0.81796484  0.06633087  1
  Zn  Zn166  1  0.06500072  0.81313668  0.56035864  1
  Zn  Zn167  1  0.59974353  0.32955032  0.04754848  1
  Zn  Zn168  1  0.56037353  0.30572813  0.56453839  1
  Zn  Zn169  1  0.57099653  0.81443976  0.05870200  1
  Zn  Zn170  1  0.56016122  0.81241904  0.56410499  1
  O  O171  1  0.11721167  0.12426312  0.11669975  1
  O  O172  1  0.11558126  0.11351774  0.62698011  1
  O  O173  1  0.11521251  0.61504346  0.12460945  1
  O  O174  1  0.11896746  0.62014890  0.61987093  1
  O  O175  1  0.61909569  0.12010904  0.12205255  1
  O  O176  1  0.61265194  0.11410416  0.62612617  1
  O  O177  1  0.61703977  0.61808874  0.12421039  1
  O  O178  1  0.62828994  0.62070607  0.61214850  1
  O  O179  1  0.38005398  0.37026894  0.38831005  1
  O  O180  1  0.38623245  0.36606263  0.89504638  1
  O  O181  1  0.39158163  0.87167535  0.37182923  1
  O  O182  1  0.39418991  0.88165238  0.88200620  1
  O  O183  1  0.87941764  0.37733160  0.37855302  1
  O  O184  1  0.87499855  0.38817529  0.86808854  1
  O  O185  1  0.86954592  0.87047879  0.39371046  1
  O  O186  1  0.88110460  0.88094756  0.88680761  1
  O  O187  1  0.24417076  0.01153260  0.37067773  1
  O  O188  1  0.24819229  0.01291359  0.86766967  1
  O  O189  1  0.25027465  0.48668941  0.36672872  1
  O  O190  1  0.25220124  0.51169024  0.86884493  1
  O  O191  1  0.74620695  0.00416859  0.37049525  1
  O  O192  1  0.74940730  -0.00481048  0.86320066  1
  O  O193  1  0.75229691  0.50524458  0.37001746  1
  O  O194  1  0.75653634  0.50520956  0.86963343  1
  O  O195  1  0.23949155  0.48999401  0.13104590  1
  O  O196  1  0.24554541  0.48838501  0.62676847  1
  O  O197  1  0.23862724  1.01956912  0.13966190  1
  O  O198  1  0.23742613  0.99851417  0.62912695  1
  O  O199  1  0.73506357  0.50513523  0.13101775  1
  O  O200  1  0.75027168  0.49094356  0.63119945  1
  O  O201  1  0.73747531  0.99126639  0.11506033  1
  O  O202  1  0.74199518  0.99239990  0.63098672  1
  O  O203  1  0.00207389  0.36458527  0.25700125  1
  O  O204  1  0.00424372  0.36229195  0.75093830  1
  O  O205  1  -0.00833374  0.84959363  0.22788669  1
  O  O206  1  -0.01019740  0.86303286  0.75147426  1
  O  O207  1  0.50154124  0.37241160  0.25945634  1
  O  O208  1  0.51042190  0.36472234  0.75009552  1
  O  O209  1  0.51539758  0.87331376  0.25963413  1
  O  O210  1  0.51163312  0.89861115  0.76814270  1
  O  O211  1  0.49693069  0.12886236  0.24749567  1
  O  O212  1  0.50278120  0.13208617  0.74382481  1
  O  O213  1  0.49468218  0.62900496  0.24016640  1
  O  O214  1  0.49881973  0.61791583  0.73232945  1
  O  O215  1  1.00642321  0.14064523  0.23819025  1
  O  O216  1  0.99645232  0.13445032  0.74588836  1
  O  O217  1  0.98984156  0.62703787  0.24443963  1
  O  O218  1  0.98721590  0.63206700  0.75109009  1
  O  O219  1  0.37585755  0.25523845  0.01005250  1
  O  O220  1  0.36195282  0.25526305  0.50232309  1
  O  O221  1  0.37545064  0.73349254  0.01260075  1
  O  O222  1  0.35936681  0.75423426  0.49190724  1
  O  O223  1  0.87555768  0.25178391  0.01351389  1
  O  O224  1  0.86607830  0.25364170  0.50371880  1
  O  O225  1  0.86745267  0.75883605  -0.00363784  1
  O  O226  1  0.86992966  0.74829311  0.51246819  1
  O  O227  1  0.13557895  0.25153007  0.49279194  1
  O  O228  1  0.13095422  0.24600924  0.99537813  1
  O  O229  1  0.12940221  0.74901289  0.48856716  1
  O  O230  1  0.11858895  0.74949557  0.98390467  1
  O  O231  1  0.63409628  0.25744012  0.49169926  1
  O  O232  1  0.61370743  0.23404211  0.98487936  1
  O  O233  1  0.63101895  0.74282697  0.49530569  1
  O  O234  1  0.64251173  0.74975780  0.99351443  1
  O  O235  1  0.50093028  0.24360178  0.13426136  1
  O  O236  1  0.49802185  0.23884988  0.63389394  1
  O  O237  1  0.51141802  0.73912661  0.12385603  1
  O  O238  1  0.50079035  0.72878672  0.61736318  1
  O  O239  1  0.99352337  0.24863609  0.13045025  1
  O  O240  1  0.99600184  0.24295441  0.63263155  1
  O  O241  1  1.00073416  0.72947737  0.13073464  1
  O  O242  1  0.99290644  0.74926534  0.63260106  1
  O  O243  1  0.00302276  0.24897039  0.36824085  1
  O  O244  1  0.00659367  0.25187343  0.86781635  1
  O  O245  1  0.00492847  0.74575647  0.36308709  1
  O  O246  1  0.00900494  0.75135534  0.86718406  1
  O  O247  1  0.50536050  0.25707461  0.37307077  1
  O  O248  1  0.50909267  0.25373116  0.86608919  1
  O  O249  1  0.51309551  0.75779662  0.37935848  1
  O  O250  1  0.50534193  0.76534808  0.87298669  1
  O  O251  1  0.25679850  0.13080936  0.49315122  1
  O  O252  1  0.23811929  0.13422125  0.99095696  1
  O  O253  1  0.24807751  0.64226709  0.50428484  1
  O  O254  1  0.24057073  0.61686976  0.97898349  1
  O  O255  1  0.75260521  0.13553674  0.50877823  1
  O  O256  1  0.73750595  0.13058925  1.00687052  1
  O  O257  1  0.74289789  0.62921061  0.49524771  1
  O  O258  1  0.75302940  0.63346673  0.99285712  1
  O  O259  1  0.26206129  0.37334158  0.00971746  1
  O  O260  1  0.25225653  0.36576011  0.50938905  1
  O  O261  1  0.24607151  0.88816018  0.01456873  1
  O  O262  1  0.24686791  0.86241815  0.50440169  1
  O  O263  1  0.70744610  0.36012706  0.01114122  1
  O  O264  1  0.75462987  0.37166885  0.50789756  1
  O  O265  1  0.76145833  0.87014494  0.00720459  1
  O  O266  1  0.75659490  0.86751051  0.51077211  1
  O  O267  1  0.12214704  0.49410166  0.23855305  1
  O  O268  1  0.11664227  0.48618376  0.75042327  1
  O  O269  1  0.13929857  1.00421713  0.24578525  1
  O  O270  1  0.13706327  1.00116718  0.74141687  1
  O  O271  1  0.62785011  0.49686471  0.24698557  1
  O  O272  1  0.63292655  0.48881392  0.74726472  1
  O  O273  1  0.62389560  0.99078189  0.24015591  1
  O  O274  1  0.63586731  1.00429692  0.73874444  1
  O  O275  1  0.37264949  0.01521922  0.25265661  1
  O  O276  1  0.35354065  -0.00823291  0.75280167  1
  O  O277  1  0.37474831  0.51348755  0.25564428  1
  O  O278  1  0.36730179  0.46117557  0.76533561  1
  O  O279  1  0.84748226  0.00878652  0.23570093  1
  O  O280  1  0.86832370  0.00733633  0.75183976  1
  O  O281  1  0.86855167  0.50519817  0.25574728  1
  O  O282  1  0.87121407  0.50748118  0.75498167  1
  O  O283  1  0.11481555  0.35892881  0.37522468  1
  O  O284  1  0.12618712  0.36971746  0.86838440  1
  O  O285  1  0.12219031  0.86787454  0.36387783  1
  O  O286  1  0.12268212  0.86165028  0.87478236  1
  O  O287  1  0.61582438  0.37141300  0.36688988  1
  O  O288  1  0.62040104  0.36716664  0.86028929  1
  O  O289  1  0.62498357  0.86731562  0.37046061  1
  O  O290  1  0.60750368  0.87798297  0.89000718  1
  O  O291  1  0.39250154  0.13180142  0.13612214  1
  O  O292  1  0.38710821  0.12425758  0.62537085  1
  O  O293  1  0.38640387  0.61881134  0.13980165  1
  O  O294  1  0.38096471  0.61987164  0.62405666  1
  O  O295  1  0.88959982  0.13420755  0.11899619  1
  O  O296  1  0.88410625  0.12856911  0.63612957  1
  O  O297  1  0.88116673  0.61418050  0.13622771  1
  O  O298  1  0.87572573  0.63346569  0.63348425  1
  O  O299  1  0.25815808  0.25412039  0.11786422  1
  O  O300  1  0.24777120  0.25256616  0.61824972  1
  O  O301  1  0.24230760  0.74283031  0.11435818  1
  O  O302  1  0.23873952  0.76073837  0.61553105  1
  O  O303  1  0.76613949  0.24865575  0.12664708  1
  O  O304  1  0.75352444  0.25428692  0.61951256  1
  O  O305  1  0.74760780  0.76034800  0.11652931  1
  O  O306  1  0.75720704  0.75637760  0.62357529  1
  O  O307  1  0.24075941  0.24145853  0.38183459  1
  O  O308  1  0.24801911  0.24881161  0.87933761  1
  O  O309  1  0.23968928  0.75429145  0.38442054  1
  O  O310  1  0.23865856  0.74399360  0.86826005  1
  O  O311  1  0.74011746  0.25730302  0.38795116  1
  O  O312  1  0.73759175  0.25167075  0.87486681  1
  O  O313  1  0.73968713  0.74269729  0.38064466  1
  O  O314  1  0.75309486  0.74349304  0.87995679  1
  O  O315  1  0.01084861  0.12225792  0.00497190  1
  O  O316  1  -0.00500299  0.13232579  0.51405329  1
  O  O317  1  -0.00091625  0.61369648  0.00708119  1
  O  O318  1  -0.00476612  0.61085135  0.49859075  1
  O  O319  1  0.50907729  0.11764616  0.01043152  1
  O  O320  1  0.49941790  0.11685760  0.51001826  1
  O  O321  1  0.50360374  0.61901901  0.00510063  1
  O  O322  1  0.50402089  0.61633062  0.50700724  1
  O  O323  1  0.49084785  0.37906339  0.49983373  1
  O  O324  1  0.50127259  0.38138370  0.99714131  1
  O  O325  1  0.49789482  0.88084756  0.49381373  1
  O  O326  1  0.50167761  0.89124607  1.00631703  1
  O  O327  1  0.99199295  0.37947791  0.49462710  1
  O  O328  1  1.00297644  0.38788766  0.99819845  1
  O  O329  1  0.98403966  0.87135470  0.50508690  1
  O  O330  1  0.98857056  0.88637816  1.00425076  1
  O  O331  1  0.49862969  0.49284682  0.38815732  1
  O  O332  1  0.50391503  0.49407887  0.88154931  1
  O  O333  1  0.51294427  0.98999211  0.38598603  1
  O  O334  1  0.50002941  0.99809190  0.89076763  1
  O  O335  1  0.99377717  0.49174408  0.38090545  1
  O  O336  1  0.99166751  0.49988752  0.88329738  1
  O  O337  1  1.00910535  0.96958469  0.30203653  1
  O  O338  1  1.00517952  1.00180429  0.88981608  1
  O  O339  1  0.00669842  0.01191740  0.11752325  1
  O  O340  1  0.01374731  0.00653761  0.63102112  1
  O  O341  1  0.00510336  0.50334499  0.11963296  1
  O  O342  1  -0.00321614  0.49948638  0.61374845  1
  O  O343  1  0.51166490  0.00846844  0.11866782  1
  O  O344  1  0.50660543  0.00432815  0.61944651  1
  O  O345  1  0.50878940  0.51062629  0.11858785  1
  O  O346  1  0.49989041  0.50676806  0.61428169  1
  O  O347  1  0.25203889  0.36833484  0.23516148  1
  O  O348  1  0.23609927  0.36766979  0.73641474  1
  O  O349  1  0.24960637  0.89061800  0.26009501  1
  O  O350  1  0.24498062  0.87813550  0.73520279  1
  O  O351  1  0.73867347  0.38355246  0.25684020  1
  O  O352  1  0.74383261  0.37643343  0.74211290  1
  O  O353  1  0.74088897  0.86606368  0.24308440  1
  O  O354  1  0.75866536  0.88528427  0.74052430  1
  O  O355  1  0.26031665  0.12231735  0.26013054  1
  O  O356  1  0.24713847  0.12004590  0.75931752  1
  O  O357  1  0.26373143  0.62616929  0.24714438  1
  O  O358  1  0.24338491  0.62137163  0.76335053  1
  O  O359  1  0.74671660  0.13383213  0.26618407  1
  O  O360  1  0.76055511  0.11355161  0.74267279  1
  O  O361  1  0.75393016  0.61831509  0.25389929  1
  O  O362  1  0.76058060  0.62039590  0.75528808  1
  O  O363  1  0.36523078  0.13317762  0.36783843  1
  O  O364  1  0.36426471  0.12781689  0.87999850  1
  O  O365  1  0.38455045  0.62327975  0.35989604  1
  O  O366  1  0.36256832  0.62783184  0.87174453  1
  O  O367  1  0.88016760  0.11021570  0.36446547  1
  O  O368  1  0.88026485  0.12466415  0.86239444  1
  O  O369  1  0.86669093  0.61686521  0.36820017  1
  O  O370  1  0.86668681  0.61715532  0.86856339  1
  O  O371  1  0.13532711  0.37969661  0.12522935  1
  O  O372  1  0.12965564  0.37529680  0.63171202  1
  O  O373  1  0.11935314  0.89505709  0.14390598  1
  O  O374  1  0.13307064  0.88757891  0.62051227  1
  O  O375  1  0.61141892  0.38862362  0.14555830  1
  O  O376  1  0.62862888  0.37359786  0.63417305  1
  O  O377  1  0.63354502  0.88238706  0.13336894  1
  O  O378  1  0.63642542  0.87855833  0.62279224  1
  O  O379  1  0.11920375  0.25121152  0.25837131  1
  O  O380  1  0.11650595  0.25685753  0.75485726  1
  O  O381  1  0.11260473  0.75539116  0.25832084  1
  O  O382  1  0.11266094  0.74587775  0.75870599  1
  O  O383  1  0.62033852  0.25962023  0.25679951  1
  O  O384  1  0.62000867  0.25240928  0.75387200  1
  O  O385  1  0.62327909  0.75589943  0.26044660  1
  O  O386  1  0.61454960  0.74574664  0.75460747  1
  O  O387  1  0.38153262  0.24288228  0.24665084  1
  O  O388  1  0.38791557  0.25824501  0.75014730  1
  O  O389  1  0.38002676  0.73811727  0.25084790  1
  O  O390  1  0.39547000  0.78891543  0.73933431  1
  O  O391  1  0.88382089  0.25482723  0.23665882  1
  O  O392  1  0.88153499  0.24333424  0.74486679  1
  O  O393  1  0.87711921  0.73416198  0.25689844  1
  O  O394  1  0.87871430  0.74356572  0.74096946  1
  O  O395  1  0.37984765  0.49064605  0.49748304  1
  O  O396  1  0.39283424  0.49040715  0.99587617  1
  O  O397  1  0.39060848  0.99785986  0.49836161  1
  O  O398  1  0.39208049  1.01369474  0.99754077  1
  O  O399  1  0.87866564  0.49258563  0.49365723  1
  O  O400  1  0.88103685  0.50146028  0.99039235  1
  O  O401  1  0.87565642  0.98797379  0.50526581  1
  O  O402  1  0.88354216  0.99814299  0.99981103  1
  O  O403  1  0.12051003  0.00958753  0.00877718  1
  O  O404  1  0.12659293  0.00046522  0.51284120  1
  O  O405  1  0.11665445  0.50027959  0.01161121  1
  O  O406  1  0.11236715  0.49911182  0.50033016  1
  O  O407  1  0.61735795  0.00812131  0.00794645  1
  O  O408  1  0.61639516  -0.00696897  0.51441158  1
  O  O409  1  0.61618720  0.50345947  0.00899172  1
  O  O410  1  0.61602136  0.50571410  0.50113153  1
  O  O411  1  0.37363400  0.37302985  0.11803725  1
  O  O412  1  0.36563233  0.36874015  0.61298861  1
  O  O413  1  0.36879169  0.89845117  0.13431537  1
  O  O414  1  0.34748123  0.88591422  0.61267064  1
  O  O415  1  0.87546556  0.36671616  0.12480289  1
  O  O416  1  0.86952029  0.36466677  0.62037025  1
  O  O417  1  0.86445095  0.88363687  0.12116073  1
  O  O418  1  0.86602670  0.86780293  0.61808348  1
  O  O419  1  0.13119969  0.13410625  0.37386864  1
  O  O420  1  0.13105166  0.13471009  0.88236625  1
  O  O421  1  0.12106637  0.63587638  0.37524561  1
  O  O422  1  0.12990452  0.63758737  0.87660927  1
  O  O423  1  0.61776199  0.14116384  0.37668281  1
  O  O424  1  0.62187813  0.12922128  0.88213296  1
  O  O425  1  0.62538113  0.63052171  0.38591707  1
  O  O426  1  0.64183830  0.62157717  0.87585453  1
