# generated using pymatgen
data_V85Zn86O256
_symmetry_space_group_name_H-M   'P 1'
_cell_length_a   16.95655140
_cell_length_b   16.94283790
_cell_length_c   16.95289932
_cell_angle_alpha   89.97915473
_cell_angle_beta   90.04213594
_cell_angle_gamma   89.98004777
_symmetry_Int_Tables_number   1
_chemical_formula_structural   V85Zn86O256
_chemical_formula_sum   'V85 Zn86 O256'
_cell_volume   4870.43214051
_cell_formula_units_Z   1
loop_
 _symmetry_equiv_pos_site_id
 _symmetry_equiv_pos_as_xyz
  1  'x, y, z'
loop_
 _atom_site_type_symbol
 _atom_site_label
 _atom_site_symmetry_multiplicity
 _atom_site_fract_x
 _atom_site_fract_y
 _atom_site_fract_z
 _atom_site_occupancy
  V  V0  1  0.75053657  0.50556068  0.75131988  1
  V  V1  1  0.37582958  0.37700341  -0.00142569  1
  V  V2  1  0.37185470  0.37004564  0.50028674  1
  V  V3  1  0.74734724  -0.00065757  0.74788019  1
  V  V4  1  0.25061980  -0.00230539  0.74915174  1
  V  V5  1  0.62916259  0.12830760  0.00377767  1
  V  V6  1  0.74603324  0.38090198  0.62456958  1
  V  V7  1  0.62711989  0.25130253  0.87793869  1
  V  V8  1  0.50004312  0.74454522  0.74339350  1
  V  V9  1  0.37227858  0.51016759  0.87166454  1
  V  V10  1  0.25451405  0.74980605  -0.00228522  1
  V  V11  1  -0.00303430  0.14581588  0.12625693  1
  V  V12  1  0.74368041  0.62210080  0.37238120  1
  V  V13  1  0.87269638  0.73872778  0.62877369  1
  V  V14  1  0.50044457  0.50242487  0.51724995  1
  V  V15  1  0.86463769  0.49375892  0.37046272  1
  V  V16  1  0.74935387  0.12782873  0.87755693  1
  V  V17  1  0.62370690  0.38041180  0.24272020  1
  V  V18  1  0.50209806  0.63118839  0.12835191  1
  V  V19  1  0.74555543  0.74936372  0.49903293  1
  V  V20  1  0.11159378  0.24435938  0.36733710  1
  V  V21  1  -0.00620283  0.87485106  0.37468901  1
  V  V22  1  0.25937753  0.87273800  0.62144052  1
  V  V23  1  0.61991322  0.00626339  0.62202565  1
  V  V24  1  0.74946073  0.35338395  0.12178321  1
  V  V25  1  0.24736427  0.38106654  0.12311934  1
  V  V26  1  -0.00092697  0.12515990  0.62364490  1
  V  V27  1  0.12718758  0.61448572  0.00093073  1
  V  V28  1  0.25438060  0.12523053  0.87281012  1
  V  V29  1  0.12623166  0.13178722  0.49874602  1
  V  V30  1  0.62094636  0.62087338  0.51405194  1
  V  V31  1  0.24629309  0.50237182  0.24695722  1
  V  V32  1  0.87576488  0.75737769  0.12824039  1
  V  V33  1  0.49640809  0.24397794  0.74289316  1
  V  V34  1  0.87575124  0.50310143  0.88392295  1
  V  V35  1  0.74646074  0.50056724  0.23184984  1
  V  V36  1  0.01352829  0.61566511  0.61261455  1
  V  V37  1  0.87269534  0.25361991  0.62521233  1
  V  V38  1  0.87415356  0.12463385  0.74846989  1
  V  V39  1  0.24894514  0.62397617  0.38215665  1
  V  V40  1  0.75653682  0.62818354  0.87569290  1
  V  V41  1  0.75432003  0.11324183  0.37358000  1
  V  V42  1  0.63802336  0.87139316  0.25205094  1
  V  V43  1  0.49856296  0.87270564  0.87949939  1
  V  V44  1  0.48973683  0.00077472  0.50095299  1
  V  V45  1  0.12738956  0.12578182  -0.00279270  1
  V  V46  1  0.62675989  0.75235962  0.87786846  1
  V  V47  1  0.87426845  0.38101613  0.49915809  1
  V  V48  1  -0.00035256  0.25309428  0.74971055  1
  V  V49  1  0.25396330  0.25257007  -0.00209708  1
  V  V50  1  0.25799095  0.87539099  0.12019847  1
  V  V51  1  0.50037313  0.37635774  0.87578567  1
  V  V52  1  0.49837350  0.12274830  0.12795025  1
  V  V53  1  0.12234065  0.74613438  0.38485663  1
  V  V54  1  0.02699334  0.40802383  0.39412313  1
  V  V55  1  0.50455442  0.50081221  0.00543822  1
  V  V56  1  0.12947520  0.74721720  0.87565559  1
  V  V57  1  0.87147672  0.36026175  0.00392911  1
  V  V58  1  0.12240863  -0.00007880  0.12120159  1
  V  V59  1  0.49638936  -0.00488461  0.00497724  1
  V  V60  1  0.00296977  0.74535657  0.24680707  1
  V  V61  1  0.24909642  0.13372833  0.37622216  1
  V  V62  1  0.37502605  -0.00505781  0.87717545  1
  V  V63  1  0.49150009  0.86978231  0.36990987  1
  V  V64  1  -0.00125548  0.38248859  0.87800615  1
  V  V65  1  0.49885065  0.25025521  0.25088036  1
  V  V66  1  0.00509619  0.60752950  0.12323947  1
  V  V67  1  0.50041227  0.37953278  0.37446220  1
  V  V68  1  0.63915016  -0.00383494  0.13266303  1
  V  V69  1  0.25703478  0.75444914  0.49875395  1
  V  V70  1  0.37629709  0.63164452  0.24792142  1
  V  V71  1  0.62283143  0.38109749  0.74643842  1
  V  V72  1  0.12456480  0.87365397  0.24924161  1
  V  V73  1  0.24252592  0.50910409  0.74501067  1
  V  V74  1  -0.00351757  -0.00094359  0.49975222  1
  V  V75  1  0.12411710  -0.00566927  0.62465775  1
  V  V76  1  0.75281367  0.76121910  0.00533870  1
  V  V77  1  0.87642517  -0.00245372  0.87656341  1
  V  V78  1  -0.00450192  0.74198466  0.75233315  1
  V  V79  1  0.63077256  0.62186235  0.00768059  1
  V  V80  1  0.87258911  0.87716296  0.50084935  1
  V  V81  1  0.24152875  0.37117773  0.62376641  1
  V  V82  1  0.24754261  0.00258746  0.25266387  1
  V  V83  1  0.11980082  0.37269955  0.24550276  1
  V  V84  1  0.12584628  0.25324723  0.87049343  1
  Zn  Zn85  1  0.38476012  0.74530823  0.61496764  1
  Zn  Zn86  1  0.38014737  0.75565601  0.12167598  1
  Zn  Zn87  1  0.87180120  0.13131740  0.25299430  1
  Zn  Zn88  1  0.37738793  0.62381048  0.74077233  1
  Zn  Zn89  1  0.37086839  0.24303978  0.61578675  1
  Zn  Zn90  1  0.61819861  0.74674052  0.37028404  1
  Zn  Zn91  1  0.87724429  0.88155275  0.00870780  1
  Zn  Zn92  1  0.87625127  0.62082885  0.24822883  1
  Zn  Zn93  1  0.37471127  0.12505807  0.25264687  1
  Zn  Zn94  1  0.62514075  0.24768938  0.37888264  1
  Zn  Zn95  1  0.62200972  0.12724208  0.49961548  1
  Zn  Zn96  1  0.62311853  0.87688778  0.74874916  1
  Zn  Zn97  1  0.00032850  0.87251967  0.87671024  1
  Zn  Zn98  1  0.12344780  0.86907892  0.74940806  1
  Zn  Zn99  1  0.37556742  0.25098758  0.12451414  1
  Zn  Zn100  1  0.74428353  0.24919374  0.49780633  1
  Zn  Zn101  1  0.38013588  0.11877154  0.74062764  1
  Zn  Zn102  1  0.11840419  0.38370887  0.74354002  1
  Zn  Zn103  1  0.37701705  0.50228536  0.37461650  1
  Zn  Zn104  1  0.00065557  -0.00052743  -0.00242775  1
  Zn  Zn105  1  0.36907763  -0.00290222  0.37827212  1
  Zn  Zn106  1  0.74882993  0.87517435  0.62507620  1
  Zn  Zn107  1  0.18721797  0.19032639  0.18525982  1
  Zn  Zn108  1  0.18926524  0.18711291  0.68679593  1
  Zn  Zn109  1  0.18675950  0.68699150  0.18491390  1
  Zn  Zn110  1  0.18527632  0.68548079  0.68390567  1
  Zn  Zn111  1  0.68556343  0.18343421  0.19960151  1
  Zn  Zn112  1  0.68470391  0.18981594  0.68693005  1
  Zn  Zn113  1  0.68759800  0.69129176  0.18621954  1
  Zn  Zn114  1  0.68610684  0.68952560  0.69032857  1
  Zn  Zn115  1  0.31220121  0.31244113  0.31247632  1
  Zn  Zn116  1  0.31252048  0.31913247  0.80924316  1
  Zn  Zn117  1  0.31081995  0.81112510  0.30942445  1
  Zn  Zn118  1  0.31309890  0.81219486  0.81225982  1
  Zn  Zn119  1  0.80896174  0.30458207  0.31418803  1
  Zn  Zn120  1  0.81119145  0.31517482  0.81356877  1
  Zn  Zn121  1  0.81256262  0.80876292  0.31352124  1
  Zn  Zn122  1  0.81421556  0.81390251  0.81170954  1
  Zn  Zn123  1  0.19432724  0.43763247  0.43565059  1
  Zn  Zn124  1  0.18984615  0.44033548  0.93034596  1
  Zn  Zn125  1  0.18245517  0.93757712  0.43773251  1
  Zn  Zn126  1  0.18722788  0.93225913  0.93639976  1
  Zn  Zn127  1  0.68193191  0.43640749  0.43730678  1
  Zn  Zn128  1  0.69017032  0.43743238  0.94104705  1
  Zn  Zn129  1  0.68245500  0.93813237  0.43711692  1
  Zn  Zn130  1  0.68558347  0.94086384  0.93881926  1
  Zn  Zn131  1  0.31406812  0.06171543  0.06306239  1
  Zn  Zn132  1  0.31229841  0.06348257  0.56111490  1
  Zn  Zn133  1  0.31307667  0.56409543  0.06162900  1
  Zn  Zn134  1  0.31627639  0.56284891  0.56602103  1
  Zn  Zn135  1  0.81534321  0.07015338  0.06269639  1
  Zn  Zn136  1  0.80847125  0.06320934  0.55858634  1
  Zn  Zn137  1  0.82132955  0.56446307  0.06231278  1
  Zn  Zn138  1  0.81036395  0.56093411  0.56126786  1
  Zn  Zn139  1  0.43371337  0.44262359  0.18554209  1
  Zn  Zn140  1  0.43017857  0.43180662  0.68822385  1
  Zn  Zn141  1  0.43795784  0.93745139  0.19491871  1
  Zn  Zn142  1  0.43883610  0.93384056  0.68846576  1
  Zn  Zn143  1  0.94203072  0.31751037  0.19321414  1
  Zn  Zn144  1  0.93267074  0.44530839  0.69175341  1
  Zn  Zn145  1  0.93095880  0.94380629  0.19103894  1
  Zn  Zn146  1  0.93643077  0.93004158  0.68854410  1
  Zn  Zn147  1  0.03058555  0.05014889  0.29571468  1
  Zn  Zn148  1  0.06251737  0.06263800  0.81028816  1
  Zn  Zn149  1  0.06611718  0.55897409  0.32041630  1
  Zn  Zn150  1  0.06073781  0.56847090  0.81236692  1
  Zn  Zn151  1  0.56578224  0.05911482  0.31745821  1
  Zn  Zn152  1  0.56291033  0.06279139  0.81427537  1
  Zn  Zn153  1  0.56294262  0.56152685  0.31202617  1
  Zn  Zn154  1  0.56641790  0.56437793  0.81855906  1
  Zn  Zn155  1  0.43809997  0.18509408  0.43564759  1
  Zn  Zn156  1  0.44064928  0.18528344  0.93514923  1
  Zn  Zn157  1  0.43742025  0.68569873  0.43681515  1
  Zn  Zn158  1  0.43881788  0.68730418  0.93856185  1
  Zn  Zn159  1  0.93248073  0.19321113  0.43674011  1
  Zn  Zn160  1  0.94114258  0.18594497  0.93558797  1
  Zn  Zn161  1  0.93084114  0.68367150  0.43807376  1
  Zn  Zn162  1  0.94068312  0.68821266  0.94351052  1
  Zn  Zn163  1  0.06830757  0.32320718  0.05252710  1
  Zn  Zn164  1  0.06213133  0.31302015  0.56068351  1
  Zn  Zn165  1  0.06372424  0.81341281  0.05906918  1
  Zn  Zn166  1  0.06072784  0.80696202  0.56502821  1
  Zn  Zn167  1  0.56427486  0.31175111  0.06471099  1
  Zn  Zn168  1  0.56160654  0.31412918  0.56298032  1
  Zn  Zn169  1  0.56644879  0.81404356  0.06556584  1
  Zn  Zn170  1  0.56585099  0.82227656  0.55913596  1
  O  O171  1  0.12661917  0.12265166  0.10945580  1
  O  O172  1  0.12006202  0.11879539  0.61780708  1
  O  O173  1  0.11463267  0.62661501  0.11583402  1
  O  O174  1  0.11359966  0.62380005  0.61949547  1
  O  O175  1  0.61718252  0.11549848  0.12319293  1
  O  O176  1  0.62731538  0.11111212  0.62633100  1
  O  O177  1  0.61973696  0.62779882  0.11469438  1
  O  O178  1  0.62927019  0.62611504  0.61303623  1
  O  O179  1  0.38021817  0.37839764  0.38101188  1
  O  O180  1  0.38235145  0.38370499  0.88053481  1
  O  O181  1  0.38699015  0.87700438  0.36582056  1
  O  O182  1  0.38208787  0.88680034  0.87499858  1
  O  O183  1  0.86839260  0.38162641  0.38446813  1
  O  O184  1  0.87798888  0.38139109  0.88303252  1
  O  O185  1  0.88698759  0.86499525  0.38341521  1
  O  O186  1  0.87473111  0.88981819  0.87510228  1
  O  O187  1  0.24512477  0.00603657  0.36623342  1
  O  O188  1  0.25815797  0.00219043  0.87202347  1
  O  O189  1  0.25614241  0.50957953  0.36676536  1
  O  O190  1  0.26145721  0.49259088  0.85796711  1
  O  O191  1  0.74895637  0.01336775  0.38341103  1
  O  O192  1  0.75442639  0.00800999  0.86903689  1
  O  O193  1  0.74928926  0.50438186  0.36811424  1
  O  O194  1  0.75448503  0.50956764  0.87272189  1
  O  O195  1  0.25467912  0.48894495  0.13042361  1
  O  O196  1  0.25474463  0.49057550  0.63862199  1
  O  O197  1  0.24131503  0.99637018  0.12899658  1
  O  O198  1  0.24208850  0.99039577  0.62686663  1
  O  O199  1  0.75375014  0.49758763  0.13049349  1
  O  O200  1  0.75474177  0.49000554  0.63632402  1
  O  O201  1  0.73698881  1.00505050  0.12142302  1
  O  O202  1  0.74407022  0.99912753  0.63364235  1
  O  O203  1  0.01770964  0.38011827  0.26239809  1
  O  O204  1  -0.00234537  0.37159320  0.75895110  1
  O  O205  1  0.00441573  0.86577284  0.25865898  1
  O  O206  1  0.00302213  0.85956866  0.75161414  1
  O  O207  1  0.50365412  0.37243928  0.25219429  1
  O  O208  1  0.50676803  0.37027492  0.75623900  1
  O  O209  1  0.50965850  0.88049162  0.26423442  1
  O  O210  1  0.50147041  0.86792734  0.76461303  1
  O  O211  1  0.50051487  0.13203789  0.24471749  1
  O  O212  1  0.50066768  0.14057496  0.75531005  1
  O  O213  1  0.49250415  0.61774285  0.23921218  1
  O  O214  1  0.50603109  0.64185967  0.75641850  1
  O  O215  1  1.02435358  0.14087940  0.22339966  1
  O  O216  1  0.99427587  0.13177457  0.74283305  1
  O  O217  1  1.00341173  0.62977120  0.24018448  1
  O  O218  1  1.00197437  0.63666973  0.73962282  1
  O  O219  1  0.37141664  0.25750730  -0.00274382  1
  O  O220  1  0.38281137  0.26594188  0.49746503  1
  O  O221  1  0.35926865  0.74144530  0.00077130  1
  O  O222  1  0.36127885  0.74994359  0.49641875  1
  O  O223  1  0.87198660  0.26198977  -0.01173981  1
  O  O224  1  0.87130093  0.26447255  0.50919211  1
  O  O225  1  0.86946800  0.75360417  0.00980889  1
  O  O226  1  0.86247401  0.75577930  0.50501393  1
  O  O227  1  0.12136790  0.23661024  0.49390841  1
  O  O228  1  0.13382092  0.24500497  0.99044577  1
  O  O229  1  0.13136815  0.75246480  0.48843578  1
  O  O230  1  0.13356973  0.74348198  0.99444759  1
  O  O231  1  0.62350314  0.24656815  0.50006430  1
  O  O232  1  0.61773196  0.24015925  0.99060536  1
  O  O233  1  0.63353670  0.74439588  0.49940683  1
  O  O234  1  0.63501233  0.74456096  0.99796045  1
  O  O235  1  0.49953540  0.23998420  0.13134419  1
  O  O236  1  0.49574434  0.25767377  0.64098941  1
  O  O237  1  0.49795477  0.73641466  0.11574223  1
  O  O238  1  0.50326932  0.76277764  0.64087639  1
  O  O239  1  1.00349130  0.24974965  0.11508068  1
  O  O240  1  0.99300152  0.24731324  0.63038246  1
  O  O241  1  0.99824517  0.74975601  0.13721082  1
  O  O242  1  0.99159962  0.74131021  0.63150892  1
  O  O243  1  0.01134200  0.25751459  0.38010753  1
  O  O244  1  0.00526383  0.25774767  0.86791252  1
  O  O245  1  0.00464985  0.74965879  0.36654545  1
  O  O246  1  0.00500816  0.74787648  0.86800982  1
  O  O247  1  0.49979207  0.26136296  0.36687684  1
  O  O248  1  0.50994100  0.25615357  0.86882476  1
  O  O249  1  0.50131139  0.76481631  0.38075064  1
  O  O250  1  0.50605262  0.75746496  0.87388421  1
  O  O251  1  0.23675658  0.11518621  0.48805435  1
  O  O252  1  0.24657658  0.13064662  0.99331099  1
  O  O253  1  0.25291040  0.62863940  0.48664881  1
  O  O254  1  0.23498755  0.63298026  1.00982979  1
  O  O255  1  0.74530725  0.12879968  0.49272904  1
  O  O256  1  0.73620595  0.12219723  0.99509337  1
  O  O257  1  0.74062794  0.62850759  0.49301719  1
  O  O258  1  0.74581931  0.63163829  0.99628921  1
  O  O259  1  0.25390297  0.37366606  0.00478493  1
  O  O260  1  0.25769088  0.38530912  0.51285486  1
  O  O261  1  0.24639876  0.86546617  0.00976570  1
  O  O262  1  0.24365525  0.86650191  0.50742295  1
  O  O263  1  0.76082650  0.37541890  0.00796694  1
  O  O264  1  0.75253449  0.37645125  0.51067558  1
  O  O265  1  0.75191802  0.86419973  -0.00296391  1
  O  O266  1  0.75532029  0.86609891  0.49766498  1
  O  O267  1  0.14001243  0.49088061  0.25473064  1
  O  O268  1  0.13929292  0.50092826  0.75739426  1
  O  O269  1  0.13060979  0.99549451  0.24085995  1
  O  O270  1  0.12973798  0.99983077  0.73804975  1
  O  O271  1  0.63096342  0.48785819  0.25180393  1
  O  O272  1  0.63490044  0.49035847  0.76074680  1
  O  O273  1  0.62253228  0.99208602  0.23761646  1
  O  O274  1  0.63122331  1.00042215  0.74592273  1
  O  O275  1  0.35781962  0.00335766  0.24963276  1
  O  O276  1  0.36984784  -0.00105896  0.75817694  1
  O  O277  1  0.36375160  0.51018456  0.24954771  1
  O  O278  1  0.36869585  0.50103231  0.75649760  1
  O  O279  1  0.92084539  0.02605922  0.26115599  1
  O  O280  1  0.86800418  0.00535712  0.75388501  1
  O  O281  1  0.85417360  0.50358957  0.25679549  1
  O  O282  1  0.85724208  0.49416827  0.76634545  1
  O  O283  1  0.13097455  0.35951151  0.36671464  1
  O  O284  1  0.11442061  0.37140565  0.87364402  1
  O  O285  1  0.11558116  0.86425628  0.37027478  1
  O  O286  1  0.12219092  0.86143622  0.87281686  1
  O  O287  1  0.61540518  0.37329831  0.36484858  1
  O  O288  1  0.62195961  0.36821214  0.86982169  1
  O  O289  1  0.61851758  0.87460061  0.36281757  1
  O  O290  1  0.61737132  0.87001740  0.87556934  1
  O  O291  1  0.38790396  0.12614088  0.12636628  1
  O  O292  1  0.36441424  0.13219668  0.62964565  1
  O  O293  1  0.38418795  0.62632235  0.13024237  1
  O  O294  1  0.37582751  0.63362028  0.62721795  1
  O  O295  1  0.89505610  0.12722875  0.12239784  1
  O  O296  1  0.87899566  0.13166106  0.62940986  1
  O  O297  1  0.89100070  0.63549140  0.12445571  1
  O  O298  1  0.87313208  0.63654353  0.62065488  1
  O  O299  1  0.25408183  0.26068217  0.11643001  1
  O  O300  1  0.24933237  0.26680377  0.62909786  1
  O  O301  1  0.24925376  0.76034100  0.11787929  1
  O  O302  1  0.24477140  0.75768755  0.61411256  1
  O  O303  1  0.74198750  0.25431840  0.12643642  1
  O  O304  1  0.75624102  0.26381561  0.62960662  1
  O  O305  1  0.76305880  0.74390821  0.11684410  1
  O  O306  1  0.75477131  0.75193387  0.61858156  1
  O  O307  1  0.24184650  0.23724172  0.37024507  1
  O  O308  1  0.24614513  0.24705891  0.87689575  1
  O  O309  1  0.24232797  0.74632395  0.38028254  1
  O  O310  1  0.24182176  0.75361169  0.88283337  1
  O  O311  1  0.74219707  0.24163028  0.37934112  1
  O  O312  1  0.73469574  0.24410347  0.86591858  1
  O  O313  1  0.74637801  0.73999704  0.38262215  1
  O  O314  1  0.74859533  0.74468909  0.88197376  1
  O  O315  1  0.01186416  0.12623318  0.00700354  1
  O  O316  1  0.00336212  0.11963859  0.50554036  1
  O  O317  1  0.01275900  0.62909382  0.01399309  1
  O  O318  1  -0.00422631  0.63063850  0.51346216  1
  O  O319  1  0.50987920  0.11772471  0.00740895  1
  O  O320  1  0.50117758  0.10591351  0.49178548  1
  O  O321  1  0.51000440  0.61896709  0.00401513  1
  O  O322  1  0.50511962  0.61017249  0.49504190  1
  O  O323  1  0.49603278  0.38564889  0.49318821  1
  O  O324  1  0.49726999  0.38290799  0.99711184  1
  O  O325  1  0.50694468  0.88682251  0.48245912  1
  O  O326  1  0.50501228  0.88205990  0.99110582  1
  O  O327  1  0.99061553  0.37458446  0.49095449  1
  O  O328  1  0.98745712  0.37362655  0.98703770  1
  O  O329  1  0.99148776  0.87437604  0.49507559  1
  O  O330  1  0.99636060  0.87993225  0.99607333  1
  O  O331  1  0.49737066  0.48818490  0.37544100  1
  O  O332  1  0.49492768  0.49530675  0.88403394  1
  O  O333  1  0.49558941  0.99092430  0.38231650  1
  O  O334  1  0.49536053  0.99386588  0.88290253  1
  O  O335  1  0.97089373  0.49963490  0.35574266  1
  O  O336  1  0.98932308  0.49343643  0.86688892  1
  O  O337  1  1.01404843  0.98262620  0.38884756  1
  O  O338  1  0.99030088  1.00100815  0.87442301  1
  O  O339  1  0.01638650  0.00869284  0.12029659  1
  O  O340  1  0.00596010  0.00312694  0.62187999  1
  O  O341  1  -0.00309480  0.51296264  0.12723006  1
  O  O342  1  -0.00750393  0.51743636  0.62964211  1
  O  O343  1  0.50360727  0.00495768  0.12048954  1
  O  O344  1  0.50438164  -0.00991790  0.61095752  1
  O  O345  1  0.49529831  0.50973155  0.11074055  1
  O  O346  1  0.49846657  0.49340847  0.61524686  1
  O  O347  1  0.24698254  0.38162589  0.24155210  1
  O  O348  1  0.24608857  0.38301602  0.73787435  1
  O  O349  1  0.24192695  0.88217503  0.24437782  1
  O  O350  1  0.24585387  0.88019263  0.74174656  1
  O  O351  1  0.74170184  0.38004664  0.23867534  1
  O  O352  1  0.74096755  0.38195142  0.74598161  1
  O  O353  1  0.73777618  0.87649923  0.25715833  1
  O  O354  1  0.74864417  0.88961334  0.75175960  1
  O  O355  1  0.24757362  0.11822144  0.25595498  1
  O  O356  1  0.24810415  0.11644707  0.75918128  1
  O  O357  1  0.25488246  0.61865459  0.25274038  1
  O  O358  1  0.25171484  0.61210307  0.74646292  1
  O  O359  1  0.75236366  0.12166160  0.26512149  1
  O  O360  1  0.75375954  0.11657973  0.75552694  1
  O  O361  1  0.74447449  0.61682662  0.25540962  1
  O  O362  1  0.74230349  0.61808717  0.76301027  1
  O  O363  1  0.36306989  0.12108422  0.37322581  1
  O  O364  1  0.37210905  0.11233149  0.87235967  1
  O  O365  1  0.36756517  0.62493320  0.36559566  1
  O  O366  1  0.38081155  0.61239852  0.87101034  1
  O  O367  1  0.85958140  0.12955013  0.38003217  1
  O  O368  1  0.87040491  0.11763010  0.86907048  1
  O  O369  1  0.85767976  0.61778446  0.37442918  1
  O  O370  1  0.86455663  0.62002571  0.88465276  1
  O  O371  1  0.13491715  0.37231274  0.13177739  1
  O  O372  1  0.13610463  0.37678040  0.62232700  1
  O  O373  1  0.13252349  0.88398442  0.12844572  1
  O  O374  1  0.12898363  0.88237773  0.62561218  1
  O  O375  1  0.63430945  0.37353644  0.13089965  1
  O  O376  1  0.63166719  0.37325214  0.63817065  1
  O  O377  1  0.62254702  0.88691075  0.13661382  1
  O  O378  1  0.63002848  0.88900896  0.62902359  1
  O  O379  1  0.13111773  0.25988833  0.25669233  1
  O  O380  1  0.11594193  0.25314255  0.75389447  1
  O  O381  1  0.11883803  0.75534617  0.25554925  1
  O  O382  1  0.11931140  0.74603742  0.75976281  1
  O  O383  1  0.61139321  0.26082107  0.24972908  1
  O  O384  1  0.61374448  0.25755181  0.75558135  1
  O  O385  1  0.62612227  0.76635711  0.24856576  1
  O  O386  1  0.61694470  0.75434076  0.75899875  1
  O  O387  1  0.38704930  0.24968013  0.24726410  1
  O  O388  1  0.39124394  0.25140768  0.75695248  1
  O  O389  1  0.36827263  0.73567602  0.24362473  1
  O  O390  1  0.39188969  0.74834758  0.75509064  1
  O  O391  1  0.87894742  0.24682797  0.24982516  1
  O  O392  1  0.88025475  0.24578420  0.74587826  1
  O  O393  1  0.88315530  0.74303571  0.24575318  1
  O  O394  1  0.88094487  0.75271661  0.74081805  1
  O  O395  1  0.38715778  0.49158006  0.49865689  1
  O  O396  1  0.38075218  0.49660401  0.99142278  1
  O  O397  1  0.38577693  0.99588861  0.49904795  1
  O  O398  1  0.38894820  1.00413759  0.99470332  1
  O  O399  1  0.86609835  0.48854060  0.49056187  1
  O  O400  1  0.87030871  0.48955106  0.98797231  1
  O  O401  1  0.87956848  0.98401285  0.50796812  1
  O  O402  1  0.87561583  1.00192811  0.99104881  1
  O  O403  1  0.12818048  0.00955581  0.00338176  1
  O  O404  1  0.11808364  0.00662139  0.51132127  1
  O  O405  1  0.13054897  0.51533591  -0.00559986  1
  O  O406  1  0.09227258  0.48577225  0.42887410  1
  O  O407  1  0.61599487  0.00471559  0.01156524  1
  O  O408  1  0.61498239  0.00149183  0.50803557  1
  O  O409  1  0.61672061  0.50966667  -0.00609446  1
  O  O410  1  0.60943277  0.50542360  0.49845420  1
  O  O411  1  0.36867670  0.37445321  0.11532376  1
  O  O412  1  0.36320105  0.36922838  0.61775267  1
  O  O413  1  0.36226287  0.87550087  0.13146704  1
  O  O414  1  0.36214178  0.86733712  0.62917578  1
  O  O415  1  0.86921810  0.36898894  0.11052552  1
  O  O416  1  0.86803914  0.37414155  0.62009567  1
  O  O417  1  0.88059470  0.86370641  0.12935858  1
  O  O418  1  0.87230501  0.86269557  0.61589836  1
  O  O419  1  0.12662959  0.12952068  0.38085407  1
  O  O420  1  0.13061940  0.12959427  0.88247080  1
  O  O421  1  0.13720575  0.63773296  0.36485386  1
  O  O422  1  0.11855485  0.63492133  0.89067458  1
  O  O423  1  0.63489838  0.12649250  0.37602750  1
  O  O424  1  0.62744800  0.13110126  0.88488148  1
  O  O425  1  0.63184464  0.62605619  0.38086175  1
  O  O426  1  0.63543108  0.63274724  0.88812169  1
