# generated using pymatgen
data_V85Zn86O256
_symmetry_space_group_name_H-M   'P 1'
_cell_length_a   16.93232884
_cell_length_b   16.92954185
_cell_length_c   16.92725828
_cell_angle_alpha   89.96036000
_cell_angle_beta   90.02976904
_cell_angle_gamma   90.04413256
_symmetry_Int_Tables_number   1
_chemical_formula_structural   V85Zn86O256
_chemical_formula_sum   'V85 Zn86 O256'
_cell_volume   4852.30653897
_cell_formula_units_Z   1
loop_
 _symmetry_equiv_pos_site_id
 _symmetry_equiv_pos_as_xyz
  1  'x, y, z'
loop_
 _atom_site_type_symbol
 _atom_site_label
 _atom_site_symmetry_multiplicity
 _atom_site_fract_x
 _atom_site_fract_y
 _atom_site_fract_z
 _atom_site_occupancy
  V  V0  1  0.24325269  0.62657291  0.87225304  1
  V  V1  1  0.60879645  0.75122016  0.87331249  1
  V  V2  1  0.49902550  0.37152030  0.37289567  1
  V  V3  1  0.87022643  0.13384708  0.25124432  1
  V  V4  1  -0.00104975  0.64164579  0.12656973  1
  V  V5  1  0.37011277  0.50942759  0.36352782  1
  V  V6  1  0.87547085  0.37731250  0.49844096  1
  V  V7  1  0.60999983  0.86890547  0.75223047  1
  V  V8  1  0.87121401  0.00781483  0.37831243  1
  V  V9  1  0.50565911  0.86007807  0.37005096  1
  V  V10  1  0.74945120  0.50481306  0.24510564  1
  V  V11  1  0.63128705  0.12697479  0.49373647  1
  V  V12  1  0.86997064  0.00287461  0.87254255  1
  V  V13  1  0.25191646  0.87283681  0.12733956  1
  V  V14  1  0.74588221  0.00452881  0.25465164  1
  V  V15  1  0.02020771  0.75015131  0.75713440  1
  V  V16  1  0.37214915  0.49742337  0.87452265  1
  V  V17  1  0.00038665  0.00251814  -0.00023926  1
  V  V18  1  0.38354794  0.87093372  -0.00098228  1
  V  V19  1  0.00712858  0.62772466  0.62613493  1
  V  V20  1  0.12215594  0.12151460  0.50144636  1
  V  V21  1  0.87438750  0.87526809  0.50339303  1
  V  V22  1  -0.00015898  0.37898077  0.37291747  1
  V  V23  1  -0.00416954  0.13185660  0.63828166  1
  V  V24  1  0.00867250  0.50859416  0.49838813  1
  V  V25  1  0.75026667  0.74565413  0.49793648  1
  V  V26  1  0.75699956  0.24555503  -0.00065932  1
  V  V27  1  0.50019480  0.37170922  0.87569563  1
  V  V28  1  0.36822424  0.36251763  -0.00217211  1
  V  V29  1  0.63118810  0.24315312  0.87250829  1
  V  V30  1  0.62303308  0.37513643  0.75017245  1
  V  V31  1  0.50231104  0.49664003  0.00471377  1
  V  V32  1  0.37917842  0.74922891  0.62789656  1
  V  V33  1  0.12507000  0.00226936  0.12604889  1
  V  V34  1  0.24393643  0.87574597  0.63750618  1
  V  V35  1  0.50026294  0.12385450  0.12342625  1
  V  V36  1  0.23639939  0.74256578  0.49751378  1
  V  V37  1  0.62472798  -0.00221525  0.62719331  1
  V  V38  1  0.24834195  0.12287127  0.37505309  1
  V  V39  1  0.49816335  -0.00259087  0.49635175  1
  V  V40  1  0.37435277  0.12510139  0.25006827  1
  V  V41  1  0.62385275  0.50034756  0.62508335  1
  V  V42  1  0.37171908  0.37683010  0.49874764  1
  V  V43  1  0.49866247  0.50096289  0.50247914  1
  V  V44  1  0.38064258  0.62707265  0.75157146  1
  V  V45  1  0.50027938  0.62265737  0.13496281  1
  V  V46  1  -0.00626946  0.13379492  0.12764577  1
  V  V47  1  0.38098042  0.74307730  0.13861762  1
  V  V48  1  0.00173358  0.86544783  0.37215940  1
  V  V49  1  0.36993710  0.87137720  0.49700309  1
  V  V50  1  0.87543849  0.74371933  0.63916237  1
  V  V51  1  0.63028126  0.12343146  -0.00310496  1
  V  V52  1  0.50248296  -0.00391218  -0.01038771  1
  V  V53  1  0.00012969  -0.00057307  0.50184004  1
  V  V54  1  0.74973452  0.87216087  0.63229374  1
  V  V55  1  0.87989165  0.50417482  0.87572917  1
  V  V56  1  0.25040094  0.37591774  0.12653034  1
  V  V57  1  0.12251019  0.24915120  0.37172376  1
  V  V58  1  0.62471431  -0.00354608  0.12578000  1
  V  V59  1  0.74831960  0.37375293  0.12290615  1
  V  V60  1  0.75309825  0.86898661  0.12811827  1
  V  V61  1  0.11940059  0.86232823  0.25036550  1
  V  V62  1  0.49757149  0.12474483  0.62409661  1
  V  V63  1  0.12894368  0.25554869  0.86103178  1
  V  V64  1  0.75528327  0.63001114  0.87419276  1
  V  V65  1  0.62515915  0.61982207  -0.00001973  1
  V  V66  1  0.62697758  0.62657005  0.49673970  1
  V  V67  1  0.75352112  0.50656629  0.75067844  1
  V  V68  1  0.23555351  0.62582308  0.36559442  1
  V  V69  1  0.75111649  0.37454497  0.62266476  1
  V  V70  1  0.87654808  0.87020074  0.00480476  1
  V  V71  1  0.62346877  0.37819219  0.24285979  1
  V  V72  1  0.87455491  0.64065961  0.24561383  1
  V  V73  1  0.87048762  0.51025576  0.37238252  1
  V  V74  1  0.12657591  0.62142567  0.00093381  1
  V  V75  1  0.13364370  0.13809796  0.00399802  1
  V  V76  1  0.36521296  -0.00525070  0.86891235  1
  V  V77  1  0.13030464  0.38623444  0.25288113  1
  V  V78  1  0.37288149  0.24971539  0.62584035  1
  V  V79  1  0.88051484  0.37378148  0.00781094  1
  V  V80  1  0.12586630  -0.00200067  0.64311741  1
  V  V81  1  0.24076797  0.37616956  0.62986194  1
  V  V82  1  0.24664317  -0.00076872  0.25038855  1
  V  V83  1  0.00088209  0.37022124  0.86347159  1
  V  V84  1  0.25340290  0.74752708  -0.00297234  1
  Zn  Zn85  1  -0.00712148  0.25718247  0.24612570  1
  Zn  Zn86  1  0.68640871  0.68910910  0.33182467  1
  Zn  Zn87  1  0.24840065  0.24905480  0.49892156  1
  Zn  Zn88  1  0.00343263  0.49992376  0.00392525  1
  Zn  Zn89  1  0.75708712  0.24530251  0.49599646  1
  Zn  Zn90  1  0.12321840  0.50209700  0.62814540  1
  Zn  Zn91  1  0.24997739  0.12805677  0.87137793  1
  Zn  Zn92  1  0.74590230  0.00297183  0.75557029  1
  Zn  Zn93  1  0.63269701  0.24698929  0.36897944  1
  Zn  Zn94  1  0.50041716  0.24915317  0.24689051  1
  Zn  Zn95  1  0.23985332  0.49601131  0.75372834  1
  Zn  Zn96  1  0.12797267  0.50343503  0.13091190  1
  Zn  Zn97  1  0.62335549  0.85952097  0.25232218  1
  Zn  Zn98  1  0.49950561  0.24653917  0.75065402  1
  Zn  Zn99  1  0.37342577  -0.00369493  0.37296400  1
  Zn  Zn100  1  0.75506390  0.74884284  -0.00064499  1
  Zn  Zn101  1  0.36658667  0.11618617  0.74549128  1
  Zn  Zn102  1  0.84712932  0.15330275  0.77770277  1
  Zn  Zn103  1  0.36721072  0.24419835  0.11876354  1
  Zn  Zn104  1  0.88263446  0.25695722  0.63626056  1
  Zn  Zn105  1  0.50174956  0.62890784  0.62949681  1
  Zn  Zn106  1  0.01435490  0.87785567  0.86418394  1
  Zn  Zn107  1  0.18797590  0.19438983  0.18747841  1
  Zn  Zn108  1  0.18965796  0.18460234  0.68894656  1
  Zn  Zn109  1  0.18949936  0.68672245  0.18467272  1
  Zn  Zn110  1  0.19102313  0.68359011  0.68536481  1
  Zn  Zn111  1  0.68796531  0.19032723  0.18532721  1
  Zn  Zn112  1  0.68775492  0.18838856  0.68319547  1
  Zn  Zn113  1  0.68703554  0.68668268  0.17317103  1
  Zn  Zn114  1  0.68539831  0.68712936  0.68832529  1
  Zn  Zn115  1  0.31109960  0.31001240  0.31067192  1
  Zn  Zn116  1  0.31018907  0.30724178  0.80960528  1
  Zn  Zn117  1  0.30945946  0.80927930  0.31528476  1
  Zn  Zn118  1  0.31756373  0.81041517  0.81447222  1
  Zn  Zn119  1  0.80820166  0.31581050  0.31673458  1
  Zn  Zn120  1  0.81211662  0.32209082  0.81501858  1
  Zn  Zn121  1  0.81480308  0.82266513  0.31442445  1
  Zn  Zn122  1  0.81584015  0.81842397  0.81746184  1
  Zn  Zn123  1  0.18973810  0.44053088  0.43755721  1
  Zn  Zn124  1  0.18749209  0.43528321  0.93767239  1
  Zn  Zn125  1  0.18412470  0.93466951  0.43821693  1
  Zn  Zn126  1  0.18664812  0.93555102  0.94029233  1
  Zn  Zn127  1  0.68742728  0.43846503  0.43316441  1
  Zn  Zn128  1  0.68893782  0.43618980  0.93669048  1
  Zn  Zn129  1  0.68717946  0.93569050  0.43982152  1
  Zn  Zn130  1  0.68891380  0.93234327  0.93705812  1
  Zn  Zn131  1  0.31285279  0.05983367  0.05964748  1
  Zn  Zn132  1  0.30856733  0.05795261  0.56331082  1
  Zn  Zn133  1  0.31410313  0.55699017  0.06457947  1
  Zn  Zn134  1  0.31103609  0.56286156  0.56072762  1
  Zn  Zn135  1  0.81310160  0.05987933  0.06519284  1
  Zn  Zn136  1  0.81202721  0.06135190  0.57223656  1
  Zn  Zn137  1  0.81663029  0.56261016  0.06377554  1
  Zn  Zn138  1  0.81674385  0.56469283  0.56381422  1
  Zn  Zn139  1  0.43412567  0.43688492  0.18497423  1
  Zn  Zn140  1  0.43460631  0.43740197  0.68884564  1
  Zn  Zn141  1  0.43797535  0.93688861  0.18771960  1
  Zn  Zn142  1  0.43515248  0.93365951  0.68443550  1
  Zn  Zn143  1  0.94108664  0.44678193  0.18557415  1
  Zn  Zn144  1  0.93727430  0.44303393  0.68811039  1
  Zn  Zn145  1  0.93761822  0.94209942  0.18852230  1
  Zn  Zn146  1  0.94150926  0.93480379  0.69039066  1
  Zn  Zn147  1  0.05714985  0.05908112  0.31172033  1
  Zn  Zn148  1  0.06134398  0.06734492  0.81854997  1
  Zn  Zn149  1  0.05652180  0.56989112  0.30903217  1
  Zn  Zn150  1  0.06145357  0.56328134  0.80848364  1
  Zn  Zn151  1  0.56056317  0.05723610  0.31320894  1
  Zn  Zn152  1  0.56107623  0.06135445  0.80957664  1
  Zn  Zn153  1  0.56138813  0.55318407  0.31441059  1
  Zn  Zn154  1  0.56224889  0.56158670  0.81560032  1
  Zn  Zn155  1  0.43727871  0.18787573  0.43721928  1
  Zn  Zn156  1  0.44048616  0.18165382  0.93324212  1
  Zn  Zn157  1  0.43524661  0.68561365  0.44120638  1
  Zn  Zn158  1  0.43472774  0.68172364  0.94183898  1
  Zn  Zn159  1  0.93790187  0.19006586  0.43909735  1
  Zn  Zn160  1  0.94172275  0.18971476  0.93884776  1
  Zn  Zn161  1  0.93334470  0.68829741  0.44105704  1
  Zn  Zn162  1  0.94178781  0.68836911  0.93715961  1
  Zn  Zn163  1  0.06335283  0.31563988  0.06461552  1
  Zn  Zn164  1  0.06068009  0.31103422  0.55739362  1
  Zn  Zn165  1  0.07413702  0.82060246  0.03686314  1
  Zn  Zn166  1  0.06119593  0.81344318  0.56572596  1
  Zn  Zn167  1  0.56422333  0.30970746  0.06164954  1
  Zn  Zn168  1  0.56096133  0.31158527  0.56119621  1
  Zn  Zn169  1  0.56513660  0.80800897  0.06412120  1
  Zn  Zn170  1  0.56251897  0.81057055  0.55986534  1
  O  O171  1  0.12123530  0.12501474  0.11722285  1
  O  O172  1  0.11732813  0.11828543  0.61945098  1
  O  O173  1  0.11786561  0.62291789  0.12113125  1
  O  O174  1  0.11210562  0.62759287  0.62148113  1
  O  O175  1  0.61804266  0.11822952  0.11849439  1
  O  O176  1  0.61349454  0.11976829  0.61572235  1
  O  O177  1  0.61678728  0.62572054  0.10672169  1
  O  O178  1  0.62262567  0.61758851  0.61817660  1
  O  O179  1  0.37653412  0.38089925  0.38134093  1
  O  O180  1  0.37744010  0.37839045  0.87920946  1
  O  O181  1  0.38209495  0.87465107  0.38223538  1
  O  O182  1  0.37480226  0.88329488  0.88487791  1
  O  O183  1  0.88044064  0.38745096  0.37983849  1
  O  O184  1  0.88561300  0.38248871  0.88574974  1
  O  O185  1  0.88116812  0.88862336  0.38281026  1
  O  O186  1  0.88306443  0.88574430  0.88706964  1
  O  O187  1  0.25034740  0.00515792  0.36894182  1
  O  O188  1  0.26259410  -0.00255508  0.88239129  1
  O  O189  1  0.26033240  0.51424936  0.38266495  1
  O  O190  1  0.25749471  0.50571877  0.87513781  1
  O  O191  1  0.75770568  -0.00485214  0.36809762  1
  O  O192  1  0.76529595  -0.00428113  0.87623552  1
  O  O193  1  0.75968724  0.49420044  0.35959136  1
  O  O194  1  0.75545506  0.50877575  0.86936946  1
  O  O195  1  0.24888714  0.48524632  0.12493227  1
  O  O196  1  0.25012806  0.48566079  0.62152492  1
  O  O197  1  0.24535649  0.99406578  0.12976647  1
  O  O198  1  0.24205589  0.98429826  0.62271175  1
  O  O199  1  0.75601853  0.49044009  0.13575614  1
  O  O200  1  0.74757306  0.49424555  0.63261669  1
  O  O201  1  0.74178859  0.99322453  0.13227187  1
  O  O202  1  0.74117367  0.98689589  0.62476714  1
  O  O203  1  0.00570690  0.37583070  0.25603679  1
  O  O204  1  -0.00366872  0.37973096  0.76500142  1
  O  O205  1  0.00724919  0.88265885  0.25866923  1
  O  O206  1  0.00281912  0.85737866  0.74860376  1
  O  O207  1  0.50592286  0.37520136  0.25414746  1
  O  O208  1  0.50589838  0.37367872  0.75721315  1
  O  O209  1  0.50066270  0.87993881  0.26663021  1
  O  O210  1  0.51069271  0.87163538  0.74376842  1
  O  O211  1  0.49222924  0.12182784  0.24218573  1
  O  O212  1  0.49422121  0.12283848  0.73481947  1
  O  O213  1  0.50766695  0.61235538  0.23391753  1
  O  O214  1  0.48566714  0.61783099  0.74994128  1
  O  O215  1  0.98959564  0.12756515  0.24450745  1
  O  O216  1  0.99748484  0.12289489  0.73790756  1
  O  O217  1  0.99186726  0.63062416  0.23621995  1
  O  O218  1  1.00019903  0.63945883  0.74110213  1
  O  O219  1  0.38084183  0.25922169  -0.00342274  1
  O  O220  1  0.37386395  0.25741168  0.50870666  1
  O  O221  1  0.37186032  0.75496078  0.00641520  1
  O  O222  1  0.36706170  0.75800816  0.50611322  1
  O  O223  1  0.86605430  0.25860875  -0.00573980  1
  O  O224  1  0.87752970  0.26691683  0.50319338  1
  O  O225  1  0.87767357  0.76658550  -0.00433378  1
  O  O226  1  0.86786579  0.75681725  0.51232630  1
  O  O227  1  0.12474738  0.24145545  0.48790596  1
  O  O228  1  0.12051697  0.23948683  0.99719126  1
  O  O229  1  0.13839393  0.75440751  0.50158239  1
  O  O230  1  0.14686067  0.73276490  1.01158271  1
  O  O231  1  0.62113985  0.23388402  0.50038431  1
  O  O232  1  0.63407913  0.24474185  0.99178167  1
  O  O233  1  0.63477445  0.73848397  0.50621167  1
  O  O234  1  0.62846554  0.74296481  0.98712584  1
  O  O235  1  0.49894950  0.23390513  0.12335316  1
  O  O236  1  0.49176187  0.24097837  0.62393735  1
  O  O237  1  0.48905706  0.73940700  0.12039997  1
  O  O238  1  0.48361266  0.74953576  0.61860322  1
  O  O239  1  1.00301430  0.23855854  0.12775350  1
  O  O240  1  1.00321139  0.23554661  0.62211185  1
  O  O241  1  1.00933739  0.73901653  0.11176861  1
  O  O242  1  0.99407295  0.74594709  0.63252034  1
  O  O243  1  0.00641793  0.25976768  0.37371724  1
  O  O244  1  0.00895493  0.26310780  0.87869017  1
  O  O245  1  -0.00840991  0.76646501  0.38095738  1
  O  O246  1  -0.00080530  0.74854645  0.85873321  1
  O  O247  1  0.49936752  0.26256477  0.37236388  1
  O  O248  1  0.50927685  0.25441230  0.87269585  1
  O  O249  1  0.49725899  0.76150608  0.38032905  1
  O  O250  1  0.51053053  0.74430705  0.87818287  1
  O  O251  1  0.23715198  0.12354967  0.49614936  1
  O  O252  1  0.23609353  0.12274877  0.99719452  1
  O  O253  1  0.25232477  0.63814768  0.49515455  1
  O  O254  1  0.24997799  0.62821231  0.99341563  1
  O  O255  1  0.73376762  0.12359692  0.50925343  1
  O  O256  1  0.74515302  0.13612133  1.00828488  1
  O  O257  1  0.74293622  0.63354092  0.50613431  1
  O  O258  1  0.74281943  0.62418866  0.99348535  1
  O  O259  1  0.26066926  0.37786611  0.00637427  1
  O  O260  1  0.26010478  0.37332793  0.50522121  1
  O  O261  1  0.26383423  0.86573741  0.00851890  1
  O  O262  1  0.25551648  0.86465306  0.50160864  1
  O  O263  1  0.75682033  0.37011439  0.00548725  1
  O  O264  1  0.75830968  0.38259466  0.50837516  1
  O  O265  1  0.75951033  0.87618208  0.00891529  1
  O  O266  1  0.75149050  0.86765815  0.51334936  1
  O  O267  1  0.12191233  0.48904714  0.25530015  1
  O  O268  1  0.12762476  0.50404283  0.74215834  1
  O  O269  1  0.13079870  0.99824014  0.24262708  1
  O  O270  1  0.11866853  1.00067284  0.74272700  1
  O  O271  1  0.63459687  0.48723447  0.25283458  1
  O  O272  1  0.63104511  0.49554490  0.74609066  1
  O  O273  1  0.63179294  0.99796637  0.24540564  1
  O  O274  1  0.62329137  0.98831192  0.74498788  1
  O  O275  1  0.36720767  0.00948421  0.24944788  1
  O  O276  1  0.38063290  -0.00601007  0.76610132  1
  O  O277  1  0.37512214  0.49562978  0.26569807  1
  O  O278  1  0.37131609  0.50307221  0.76255917  1
  O  O279  1  0.86720843  0.00920333  0.26045780  1
  O  O280  1  0.87671604  -0.00786478  0.76806086  1
  O  O281  1  0.86880962  0.50998112  0.25536749  1
  O  O282  1  0.86580424  0.49610801  0.76431680  1
  O  O283  1  0.12287144  0.36852549  0.37128798  1
  O  O284  1  0.11425147  0.36453321  0.88081840  1
  O  O285  1  0.11387579  0.88138416  0.36372649  1
  O  O286  1  0.10523686  0.86378520  0.92915695  1
  O  O287  1  0.61286072  0.37642108  0.36740330  1
  O  O288  1  0.62075188  0.36516055  0.87097107  1
  O  O289  1  0.60937858  0.87660309  0.37762224  1
  O  O290  1  0.62840290  0.85902174  0.86896229  1
  O  O291  1  0.38165049  0.12357904  0.12959998  1
  O  O292  1  0.37927572  0.13103608  0.62080383  1
  O  O293  1  0.38325618  0.63513382  0.12020892  1
  O  O294  1  0.37341433  0.63169287  0.63337894  1
  O  O295  1  0.88286042  0.11937846  0.13733810  1
  O  O296  1  0.89148297  0.12873275  0.61942219  1
  O  O297  1  0.88806535  0.62773714  0.12958363  1
  O  O298  1  0.88618636  0.63558827  0.62301971  1
  O  O299  1  0.25173117  0.26546673  0.12595359  1
  O  O300  1  0.25554184  0.25887279  0.62046374  1
  O  O301  1  0.26500922  0.75071340  0.11915511  1
  O  O302  1  0.25524872  0.75692139  0.61496096  1
  O  O303  1  0.74730713  0.26420886  0.11484314  1
  O  O304  1  0.74992575  0.26635268  0.61795360  1
  O  O305  1  0.75081359  0.76512226  0.11817959  1
  O  O306  1  0.75676148  0.75372736  0.62181437  1
  O  O307  1  0.24146968  0.24151302  0.37704366  1
  O  O308  1  0.23377034  0.25275932  0.87579702  1
  O  O309  1  0.25422605  0.73756884  0.38719725  1
  O  O310  1  0.25984529  0.73938674  0.88569179  1
  O  O311  1  0.74450718  0.25609270  0.38469358  1
  O  O312  1  0.74141420  0.25630961  0.88474652  1
  O  O313  1  0.75770943  0.75678374  0.39299231  1
  O  O314  1  0.75031697  0.73813107  0.87548139  1
  O  O315  1  0.00574598  0.11945574  0.00856276  1
  O  O316  1  0.01005524  0.11996488  0.50390436  1
  O  O317  1  0.01065563  0.62517978  0.00594892  1
  O  O318  1  -0.00592500  0.61744056  0.50764848  1
  O  O319  1  0.50717428  0.11529392  0.00578524  1
  O  O320  1  0.50259765  0.11651546  0.50677840  1
  O  O321  1  0.50639245  0.61441370  0.00340366  1
  O  O322  1  0.50740229  0.61857477  0.50439202  1
  O  O323  1  0.49043832  0.37856049  0.49305762  1
  O  O324  1  0.49430798  0.37928885  0.99526112  1
  O  O325  1  0.49243955  0.87955552  0.49351381  1
  O  O326  1  0.49133923  0.88099266  1.00747255  1
  O  O327  1  0.99254340  0.38462358  0.49447537  1
  O  O328  1  0.99341049  0.37789734  0.99574099  1
  O  O329  1  0.99414267  0.88136918  0.49721857  1
  O  O330  1  0.98619088  0.89669653  1.02406562  1
  O  O331  1  0.48766444  0.48964591  0.38090336  1
  O  O332  1  0.49282895  0.49252070  0.88296741  1
  O  O333  1  0.49528349  0.99423068  0.38739940  1
  O  O334  1  0.49348490  1.00160089  0.88650554  1
  O  O335  1  0.99265155  0.49886087  0.38099420  1
  O  O336  1  0.99413603  0.49342930  0.87919607  1
  O  O337  1  0.99125286  0.99517050  0.38429176  1
  O  O338  1  0.99528469  0.99732097  0.88539000  1
  O  O339  1  0.00752286  0.01503768  0.12354980  1
  O  O340  1  0.00638890  0.00717128  0.62103616  1
  O  O341  1  0.00639264  0.51430374  0.12108745  1
  O  O342  1  -0.00306491  0.51033926  0.61617864  1
  O  O343  1  0.50399350  0.00720492  0.11684073  1
  O  O344  1  0.50242980  0.00303468  0.61409710  1
  O  O345  1  0.49169938  0.50470610  0.11069502  1
  O  O346  1  0.50469846  0.49933928  0.61884128  1
  O  O347  1  0.24078042  0.37208041  0.24464861  1
  O  O348  1  0.25592039  0.37586357  0.73282187  1
  O  O349  1  0.24398806  0.88031384  0.24712931  1
  O  O350  1  0.25247675  0.86752804  0.73563942  1
  O  O351  1  0.74464046  0.37992017  0.23966019  1
  O  O352  1  0.74298713  0.38799385  0.74364135  1
  O  O353  1  0.74920796  0.88763904  0.24428430  1
  O  O354  1  0.74292913  0.87495669  0.74156827  1
  O  O355  1  0.25523353  0.12054608  0.25359079  1
  O  O356  1  0.25423516  0.12536368  0.75636166  1
  O  O357  1  0.24888077  0.63082504  0.26641989  1
  O  O358  1  0.26057726  0.62295103  0.75780915  1
  O  O359  1  0.75514040  0.11393838  0.24335461  1
  O  O360  1  0.75194385  0.11442479  0.73492431  1
  O  O361  1  0.75466531  0.61880345  0.24570634  1
  O  O362  1  0.74537583  0.61390329  0.75740489  1
  O  O363  1  0.36895658  0.12223537  0.36779201  1
  O  O364  1  0.37350994  0.10777740  0.87649209  1
  O  O365  1  0.37304305  0.61214937  0.37770029  1
  O  O366  1  0.36781133  0.61603514  0.87125323  1
  O  O367  1  0.87952482  0.11489868  0.37101069  1
  O  O368  1  0.88283568  0.10945370  0.87784023  1
  O  O369  1  0.87956833  0.61611496  0.36615490  1
  O  O370  1  0.86724560  0.61663847  0.88311533  1
  O  O371  1  0.13083342  0.37703419  0.13557231  1
  O  O372  1  0.13925665  0.37204107  0.61642366  1
  O  O373  1  0.13308359  0.88234579  0.12888136  1
  O  O374  1  0.13641967  0.88244953  0.62205727  1
  O  O375  1  0.63312087  0.37471004  0.13014795  1
  O  O376  1  0.63115329  0.38053002  0.62777137  1
  O  O377  1  0.63146528  0.88006547  0.12744685  1
  O  O378  1  0.63041776  0.87479798  0.63225330  1
  O  O379  1  0.12105488  0.25586060  0.26227285  1
  O  O380  1  0.12304652  0.24896144  0.76277605  1
  O  O381  1  0.12832184  0.76366711  0.24487866  1
  O  O382  1  0.11937153  0.74787069  0.75004669  1
  O  O383  1  0.62163463  0.26164996  0.24980751  1
  O  O384  1  0.62438530  0.25599485  0.75605947  1
  O  O385  1  0.63523018  0.74687590  0.25217145  1
  O  O386  1  0.62649150  0.75228208  0.76460330  1
  O  O387  1  0.37765993  0.23587420  0.24730681  1
  O  O388  1  0.37868722  0.24926594  0.73558521  1
  O  O389  1  0.37418794  0.75294478  0.23671038  1
  O  O390  1  0.37143653  0.74013918  0.74122209  1
  O  O391  1  0.87247357  0.23744167  0.25652120  1
  O  O392  1  0.87379966  0.25674683  0.74986583  1
  O  O393  1  0.86548778  0.73946471  0.25519637  1
  O  O394  1  0.87462317  0.75490906  0.74033462  1
  O  O395  1  0.37961231  0.49232347  0.49429236  1
  O  O396  1  0.38197067  0.49196342  0.98857203  1
  O  O397  1  0.37983398  0.98700430  0.50054186  1
  O  O398  1  0.38260542  0.99037795  0.99416742  1
  O  O399  1  0.87930568  0.49473535  0.49118279  1
  O  O400  1  0.87469034  0.49197913  0.99027024  1
  O  O401  1  0.87758571  0.99620502  0.49652457  1
  O  O402  1  0.88094702  0.99769706  0.99183036  1
  O  O403  1  0.11759488  0.01514467  0.00694283  1
  O  O404  1  0.11952355  0.00634349  0.50717488  1
  O  O405  1  0.12806118  0.51200443  0.00179255  1
  O  O406  1  0.11133760  0.49517457  0.50304038  1
  O  O407  1  0.61937479  0.00190130  0.00215310  1
  O  O408  1  0.61678104  0.00729541  0.50537589  1
  O  O409  1  0.61482424  0.50725067  -0.01039848  1
  O  O410  1  0.62034832  0.50359511  0.50661603  1
  O  O411  1  0.36990290  0.37076987  0.11515279  1
  O  O412  1  0.36950989  0.36843365  0.61665282  1
  O  O413  1  0.37336305  0.86449697  0.12030238  1
  O  O414  1  0.36336406  0.86941681  0.61783927  1
  O  O415  1  0.87050681  0.38011532  0.11365392  1
  O  O416  1  0.86845449  0.37978147  0.61635457  1
  O  O417  1  0.86313541  0.88770132  0.11915365  1
  O  O418  1  0.86713064  0.87023893  0.62233914  1
  O  O419  1  0.12587130  0.12992211  0.38049407  1
  O  O420  1  0.12121916  0.13955918  0.88688490  1
  O  O421  1  0.13629624  0.62063605  0.37471450  1
  O  O422  1  0.13731223  0.62246019  0.88268839  1
  O  O423  1  0.61616560  0.12452400  0.39046214  1
  O  O424  1  0.62029978  0.13535957  0.87883322  1
  O  O425  1  0.62486658  0.61304862  0.39079770  1
  O  O426  1  0.63082890  0.63370573  0.88036679  1
