# generated using pymatgen
data_V85Zn86O256
_symmetry_space_group_name_H-M   'P 1'
_cell_length_a   16.94519853
_cell_length_b   16.93329275
_cell_length_c   16.94209931
_cell_angle_alpha   89.97033606
_cell_angle_beta   90.01065106
_cell_angle_gamma   90.02089748
_symmetry_Int_Tables_number   1
_chemical_formula_structural   V85Zn86O256
_chemical_formula_sum   'V85 Zn86 O256'
_cell_volume   4861.33115860
_cell_formula_units_Z   1
loop_
 _symmetry_equiv_pos_site_id
 _symmetry_equiv_pos_as_xyz
  1  'x, y, z'
loop_
 _atom_site_type_symbol
 _atom_site_label
 _atom_site_symmetry_multiplicity
 _atom_site_fract_x
 _atom_site_fract_y
 _atom_site_fract_z
 _atom_site_occupancy
  V  V0  1  0.12648527  0.74767455  0.37969377  1
  V  V1  1  0.24826239  0.62423245  0.87318406  1
  V  V2  1  0.86930855  0.50018193  0.87734597  1
  V  V3  1  0.50653115  0.12065821  0.12487317  1
  V  V4  1  0.62829221  0.73466382  0.87739505  1
  V  V5  1  0.37606901  0.12357889  0.25150807  1
  V  V6  1  0.62672785  0.87061540  0.74666651  1
  V  V7  1  0.37052097  0.37540628  0.00060742  1
  V  V8  1  0.37643317  0.87259567  0.00149001  1
  V  V9  1  0.01251414  0.00427817  0.50431720  1
  V  V10  1  0.24650818  0.24722640  0.00069990  1
  V  V11  1  0.86870668  0.87940739  0.50514162  1
  V  V12  1  0.37172350  0.62412078  0.74853486  1
  V  V13  1  0.62402403  0.36473390  0.75000378  1
  V  V14  1  0.00301544  0.75280174  0.25226177  1
  V  V15  1  0.25099573  0.61966017  0.37700755  1
  V  V16  1  0.62274825  0.11176106  0.49868257  1
  V  V17  1  -0.00287479  0.25136861  0.75389443  1
  V  V18  1  0.86815413  0.76393754  0.12778801  1
  V  V19  1  0.24574851  0.89091067  0.62902113  1
  V  V20  1  0.37883480  0.00237338  0.38096376  1
  V  V21  1  0.75025635  0.24564041  0.00464865  1
  V  V22  1  0.86820252  0.75432188  0.62624216  1
  V  V23  1  0.00505942  0.62756197  0.62059476  1
  V  V24  1  0.87783572  -0.00173711  0.87926431  1
  V  V25  1  0.12123662  0.75149505  0.86890831  1
  V  V26  1  0.00111392  0.87754279  0.88476346  1
  V  V27  1  0.00090596  0.12531556  0.12777520  1
  V  V28  1  0.74968208  0.37314216  0.12329730  1
  V  V29  1  0.50413552  0.50499945  -0.00264821  1
  V  V30  1  0.74941738  0.50200612  0.75134769  1
  V  V31  1  0.20196465  0.33241618  0.17614911  1
  V  V32  1  0.24886933  0.87281651  0.12302975  1
  V  V33  1  0.12172761  0.62493401  -0.00304642  1
  V  V34  1  0.37311749  0.49666670  0.87454268  1
  V  V35  1  0.50087295  0.87866082  0.38187745  1
  V  V36  1  0.62269368  0.75212583  0.37264260  1
  V  V37  1  0.62695559  0.87980866  0.23728233  1
  V  V38  1  0.00068428  0.49839083  0.49693596  1
  V  V39  1  0.74972695  0.62782096  0.37734973  1
  V  V40  1  0.62548252  0.37354649  0.24711525  1
  V  V41  1  0.63329776  0.25238261  0.38488322  1
  V  V42  1  0.49683803  0.62529447  0.62414051  1
  V  V43  1  -0.00035362  0.49881375  0.00184596  1
  V  V44  1  0.74947531  -0.00207884  0.23791895  1
  V  V45  1  0.50293388  0.12228200  0.63805814  1
  V  V46  1  0.87853730  0.37046835  0.49669719  1
  V  V47  1  0.01080329  0.36103372  0.36527378  1
  V  V48  1  0.37133968  0.75317692  0.62607481  1
  V  V49  1  -0.00000862  0.62536244  0.12763344  1
  V  V50  1  0.12600265  0.89808066  0.74852776  1
  V  V51  1  0.25257899  -0.00177868  0.24529685  1
  V  V52  1  0.12258590  0.24714277  0.88090212  1
  V  V53  1  0.62788031  0.11561790  0.00186414  1
  V  V54  1  0.75051751  -0.00633742  0.73942130  1
  V  V55  1  0.87296048  0.24805477  0.62232588  1
  V  V56  1  0.87351590  0.36897746  0.00404793  1
  V  V57  1  0.62457571  0.62661918  0.49948135  1
  V  V58  1  0.87607729  0.62718283  0.25176932  1
  V  V59  1  0.87505625  0.62534148  0.74967888  1
  V  V60  1  0.13588311  0.50202334  0.13519800  1
  V  V61  1  0.38136699  0.25465544  0.12551974  1
  V  V62  1  0.62478893  0.51039398  0.12017965  1
  V  V63  1  0.49528863  0.50038185  0.49897936  1
  V  V64  1  0.75006241  0.12164352  0.87382141  1
  V  V65  1  0.12407221  0.49675306  0.62029597  1
  V  V66  1  0.87144143  0.00117634  0.37576175  1
  V  V67  1  0.12302018  0.11193276  0.00796460  1
  V  V68  1  0.25166116  0.36823158  0.62220226  1
  V  V69  1  0.49659531  0.36544606  0.87059718  1
  V  V70  1  0.50139814  -0.00275023  0.00014886  1
  V  V71  1  0.24549141  0.24496036  0.48992517  1
  V  V72  1  0.74980161  0.37295748  0.61732407  1
  V  V73  1  0.62365958  0.49970202  0.62551282  1
  V  V74  1  0.25405212  0.74787329  0.00195471  1
  V  V75  1  0.50079778  0.37544380  0.37371524  1
  V  V76  1  0.12619765  0.87768002  0.24633378  1
  V  V77  1  0.74888335  0.50233653  0.24876445  1
  V  V78  1  0.36376329  0.00728988  0.86820887  1
  V  V79  1  0.49460368  0.75240745  0.24115743  1
  V  V80  1  0.87377781  0.12419145  0.74941036  1
  V  V81  1  0.37052507  0.62366824  0.24189196  1
  V  V82  1  0.24685209  0.49333756  0.74978883  1
  V  V83  1  0.24472553  0.74782090  0.50450049  1
  V  V84  1  0.87472784  0.13896403  0.24438618  1
  Zn  Zn85  1  0.87705411  0.49919491  0.37413724  1
  Zn  Zn86  1  -0.00064231  0.75425830  0.74930454  1
  Zn  Zn87  1  0.75375802  0.13006793  0.37995658  1
  Zn  Zn88  1  0.12316907  0.37284707  0.75298443  1
  Zn  Zn89  1  0.50446203  0.24752829  0.25146350  1
  Zn  Zn90  1  0.37768706  0.88099337  0.50443040  1
  Zn  Zn91  1  0.36820984  0.49778828  0.36947813  1
  Zn  Zn92  1  0.37259388  0.13646454  0.75463859  1
  Zn  Zn93  1  0.74210511  0.74720838  -0.00068081  1
  Zn  Zn94  1  0.22691704  0.11637469  0.39047197  1
  Zn  Zn95  1  0.50009685  0.87291727  0.87268757  1
  Zn  Zn96  1  0.00029437  0.87459400  0.37810755  1
  Zn  Zn97  1  0.86876255  0.88082254  0.00639622  1
  Zn  Zn98  1  0.38758747  0.25259105  0.62846220  1
  Zn  Zn99  1  0.62260053  -0.01185159  0.61680430  1
  Zn  Zn100  1  0.49799864  0.75176946  0.75039796  1
  Zn  Zn101  1  -0.00056692  0.37487880  0.87761721  1
  Zn  Zn102  1  0.62209225  0.24335555  0.87216271  1
  Zn  Zn103  1  0.00972554  0.11499404  0.62708275  1
  Zn  Zn104  1  0.74663599  0.75591848  0.50504106  1
  Zn  Zn105  1  0.49872112  0.63183631  0.11782972  1
  Zn  Zn106  1  0.37614500  0.37017806  0.49825498  1
  Zn  Zn107  1  0.15887262  0.15872218  0.22419019  1
  Zn  Zn108  1  0.18661224  0.17236527  0.68621102  1
  Zn  Zn109  1  0.18948257  0.68758786  0.18745722  1
  Zn  Zn110  1  0.18526840  0.68607745  0.68686617  1
  Zn  Zn111  1  0.68855944  0.18597742  0.18971629  1
  Zn  Zn112  1  0.68916315  0.18376773  0.68074142  1
  Zn  Zn113  1  0.68643251  0.69118342  0.18921433  1
  Zn  Zn114  1  0.68760652  0.68647569  0.69072276  1
  Zn  Zn115  1  0.31805164  0.31025497  0.31423478  1
  Zn  Zn116  1  0.29294769  0.27457199  0.79331084  1
  Zn  Zn117  1  0.31543645  0.81023991  0.31428645  1
  Zn  Zn118  1  0.31068877  0.81824181  0.81296857  1
  Zn  Zn119  1  0.81331231  0.31709633  0.31444750  1
  Zn  Zn120  1  0.80908712  0.31218106  0.81580104  1
  Zn  Zn121  1  0.81186223  0.81670785  0.31427662  1
  Zn  Zn122  1  0.80969201  0.81247384  0.81658050  1
  Zn  Zn123  1  0.18380656  0.43137963  0.43939519  1
  Zn  Zn124  1  0.18614740  0.43349802  0.94090247  1
  Zn  Zn125  1  0.19238875  0.93250732  0.43483696  1
  Zn  Zn126  1  0.18885909  0.93662899  0.93563719  1
  Zn  Zn127  1  0.68743865  0.44049239  0.43797457  1
  Zn  Zn128  1  0.68568459  0.43681247  0.93584327  1
  Zn  Zn129  1  0.69095727  0.93627036  0.43054305  1
  Zn  Zn130  1  0.69170663  0.92847095  0.93441461  1
  Zn  Zn131  1  0.31372513  0.06284088  0.06308782  1
  Zn  Zn132  1  0.31818905  0.06935811  0.56319494  1
  Zn  Zn133  1  0.31445162  0.56398177  0.06074325  1
  Zn  Zn134  1  0.30914078  0.56193634  0.56029075  1
  Zn  Zn135  1  0.81964919  0.06119028  0.06532969  1
  Zn  Zn136  1  0.80929959  0.06790904  0.55928813  1
  Zn  Zn137  1  0.80751472  0.56755519  0.06342427  1
  Zn  Zn138  1  0.81472633  0.56170991  0.56333271  1
  Zn  Zn139  1  0.43808110  0.44111097  0.18765364  1
  Zn  Zn140  1  0.43497813  0.43180196  0.69028746  1
  Zn  Zn141  1  0.43726088  0.93527227  0.18512907  1
  Zn  Zn142  1  0.44123705  0.94356691  0.68724090  1
  Zn  Zn143  1  0.93686590  0.43832387  0.18684210  1
  Zn  Zn144  1  0.93845473  0.43415617  0.68629168  1
  Zn  Zn145  1  0.94280711  0.94663502  0.18981678  1
  Zn  Zn146  1  0.94084477  0.93687727  0.68876687  1
  Zn  Zn147  1  0.05400542  0.05815718  0.31651756  1
  Zn  Zn148  1  0.06105917  0.06931537  0.82075134  1
  Zn  Zn149  1  0.06550113  0.56250376  0.31601815  1
  Zn  Zn150  1  0.05829266  0.56101292  0.80978950  1
  Zn  Zn151  1  0.56455652  0.06190552  0.31354490  1
  Zn  Zn152  1  0.56470958  0.05297145  0.81608953  1
  Zn  Zn153  1  0.55968590  0.56410257  0.30867014  1
  Zn  Zn154  1  0.55807781  0.55780528  0.80878238  1
  Zn  Zn155  1  0.43840165  0.18903289  0.44257296  1
  Zn  Zn156  1  0.43739968  0.18575743  0.93887615  1
  Zn  Zn157  1  0.43383062  0.69132740  0.43527195  1
  Zn  Zn158  1  0.43953578  0.68878765  0.93266656  1
  Zn  Zn159  1  0.94092813  0.18630640  0.43582281  1
  Zn  Zn160  1  0.93869141  0.18401714  0.94342313  1
  Zn  Zn161  1  0.93814056  0.68999319  0.44100165  1
  Zn  Zn162  1  0.90263946  0.67203721  0.95449808  1
  Zn  Zn163  1  0.05390777  0.30703926  0.06974220  1
  Zn  Zn164  1  0.08131143  0.27848651  0.57894852  1
  Zn  Zn165  1  0.06236051  0.81165254  0.06204647  1
  Zn  Zn166  1  0.05996981  0.81851513  0.56376520  1
  Zn  Zn167  1  0.56412339  0.31237304  0.05813804  1
  Zn  Zn168  1  0.56142289  0.30996477  0.56207457  1
  Zn  Zn169  1  0.56649760  0.81123700  0.05805865  1
  Zn  Zn170  1  0.56149503  0.81097271  0.56387651  1
  O  O171  1  0.11139438  0.12294862  0.12299509  1
  O  O172  1  0.10670168  0.16921245  0.61488368  1
  O  O173  1  0.11967443  0.61878431  0.11797416  1
  O  O174  1  0.11519828  0.61423869  0.62880893  1
  O  O175  1  0.61394360  0.12622327  0.11963454  1
  O  O176  1  0.62126460  0.11964875  0.61305202  1
  O  O177  1  0.62396121  0.61430428  0.12857397  1
  O  O178  1  0.61813241  0.61998562  0.62032261  1
  O  O179  1  0.38736324  0.38039520  0.37612337  1
  O  O180  1  0.38269458  0.38133142  0.88393086  1
  O  O181  1  0.38333986  0.88269540  0.37563852  1
  O  O182  1  0.37590331  0.88372510  0.88495401  1
  O  O183  1  0.87684481  0.37938603  0.38510309  1
  O  O184  1  0.87422103  0.38243322  0.88700173  1
  O  O185  1  0.87734666  0.88277608  0.38325059  1
  O  O186  1  0.88609527  0.88043176  0.87240444  1
  O  O187  1  0.25884918  0.00046941  0.36350701  1
  O  O188  1  0.26512445  -0.00110255  0.87844071  1
  O  O189  1  0.24779636  0.51621057  0.38601927  1
  O  O190  1  0.25261612  0.50308873  0.87133399  1
  O  O191  1  0.76131886  0.00470969  0.36930386  1
  O  O192  1  0.75687870  0.00436741  0.86318241  1
  O  O193  1  0.75049119  0.51270186  0.36973611  1
  O  O194  1  0.76121177  0.49514083  0.86757852  1
  O  O195  1  0.23468616  0.50650330  0.11982307  1
  O  O196  1  0.24113159  0.49261388  0.62657355  1
  O  O197  1  0.25721249  0.98882144  0.13668305  1
  O  O198  1  0.25329319  0.98904404  0.61924069  1
  O  O199  1  0.74285165  0.49698690  0.12702445  1
  O  O200  1  0.74448249  0.49270331  0.63102840  1
  O  O201  1  0.75411188  1.00043769  0.13922532  1
  O  O202  1  0.74795605  1.00373763  0.63666016  1
  O  O203  1  -0.01210177  0.38090671  0.26792892  1
  O  O204  1  -0.00257655  0.36379715  0.75621868  1
  O  O205  1  0.01066715  0.87264346  0.25167629  1
  O  O206  1  0.01296566  0.87394676  0.75571876  1
  O  O207  1  0.50820908  0.37578444  0.25777082  1
  O  O208  1  0.51242247  0.38379318  0.75946914  1
  O  O209  1  0.50501051  0.86947136  0.25513352  1
  O  O210  1  0.51165055  0.87459186  0.75041789  1
  O  O211  1  0.49328363  0.12249736  0.24108059  1
  O  O212  1  0.51025843  0.12175400  0.73984877  1
  O  O213  1  0.49013513  0.63496097  0.24839844  1
  O  O214  1  0.48896833  0.62309280  0.74019246  1
  O  O215  1  0.98349462  0.12018056  0.24153313  1
  O  O216  1  0.99220993  0.13579010  0.74922236  1
  O  O217  1  0.99244322  0.63080613  0.24993091  1
  O  O218  1  0.99287608  0.62516291  0.73703275  1
  O  O219  1  0.36876547  0.25377041  0.00678840  1
  O  O220  1  0.36897430  0.25185472  0.50847262  1
  O  O221  1  0.36571131  0.75835144  -0.00860544  1
  O  O222  1  0.36767620  0.75369200  0.51262577  1
  O  O223  1  0.86521456  0.25849681  -0.00446291  1
  O  O224  1  0.87976938  0.26052517  0.50789202  1
  O  O225  1  0.89549862  0.76268455  0.02522049  1
  O  O226  1  0.87421844  0.75959897  0.50855030  1
  O  O227  1  0.14710559  0.26481751  0.48640188  1
  O  O228  1  0.13104460  0.24751157  1.00194708  1
  O  O229  1  0.13159016  0.75663059  0.49229289  1
  O  O230  1  0.13023373  0.74401317  0.98908599  1
  O  O231  1  0.62657666  0.24867042  0.48684077  1
  O  O232  1  0.63181058  0.23581125  0.99757049  1
  O  O233  1  0.62671788  0.74386927  0.49295487  1
  O  O234  1  0.62273032  0.74554647  0.98402663  1
  O  O235  1  0.49637768  0.24171103  0.12444414  1
  O  O236  1  0.50706952  0.22924278  0.61915070  1
  O  O237  1  0.50534350  0.74911840  0.13653490  1
  O  O238  1  0.48799490  0.74358566  0.62639669  1
  O  O239  1  0.99003353  0.22904127  0.11936673  1
  O  O240  1  0.98139758  0.26208160  0.63798836  1
  O  O241  1  0.99899445  0.74397504  0.13624999  1
  O  O242  1  0.99283400  0.74220523  0.62616160  1
  O  O243  1  0.00095863  0.26169529  0.37633338  1
  O  O244  1  0.00263398  0.25080152  0.87202524  1
  O  O245  1  0.00891772  0.75129253  0.37116591  1
  O  O246  1  0.00923995  0.75970329  0.87267902  1
  O  O247  1  0.50992557  0.26245863  0.37526955  1
  O  O248  1  0.50349069  0.26233395  0.88323962  1
  O  O249  1  0.50386875  0.75737519  0.36519360  1
  O  O250  1  0.50963774  0.75198548  0.86904539  1
  O  O251  1  0.24921215  0.13790835  0.50187254  1
  O  O252  1  0.23535859  0.13558497  1.01614414  1
  O  O253  1  0.25412339  0.63989261  0.49357449  1
  O  O254  1  0.24524652  0.63117482  0.99239463  1
  O  O255  1  0.73172660  0.12702928  0.49754517  1
  O  O256  1  0.74521863  0.12763532  0.99854651  1
  O  O257  1  0.74515094  0.62522209  0.49199797  1
  O  O258  1  0.79282968  0.64495669  0.98768238  1
  O  O259  1  0.26520101  0.37192966  0.00147955  1
  O  O260  1  0.25633816  0.37166018  0.50522628  1
  O  O261  1  0.25423417  0.86805326  0.00503911  1
  O  O262  1  0.25198667  0.86609898  0.51208697  1
  O  O263  1  0.75385177  0.36598678  0.00261491  1
  O  O264  1  0.75655392  0.38230479  0.51133285  1
  O  O265  1  0.75684243  0.86152806  -0.00596798  1
  O  O266  1  0.76299616  0.87406009  0.49696199  1
  O  O267  1  0.12348492  0.50706271  0.23398917  1
  O  O268  1  0.12803147  0.49527493  0.74071456  1
  O  O269  1  0.13556606  0.98364345  0.25246234  1
  O  O270  1  0.12404614  0.99777839  0.75505897  1
  O  O271  1  0.62971719  0.49489028  0.24141414  1
  O  O272  1  0.63302522  0.49242787  0.74446584  1
  O  O273  1  0.64027681  0.99546235  0.25515464  1
  O  O274  1  0.63338317  0.98675044  0.74895273  1
  O  O275  1  0.37082702  0.00345178  0.25627413  1
  O  O276  1  0.37955947  0.00321719  0.76577641  1
  O  O277  1  0.38226854  0.51827891  0.25316555  1
  O  O278  1  0.36607636  0.50300003  0.75555001  1
  O  O279  1  0.86457792  0.00377024  0.25797690  1
  O  O280  1  0.86898656  0.00405245  0.75474621  1
  O  O281  1  0.86735665  0.51175292  0.25104819  1
  O  O282  1  0.86896872  0.50197433  0.75515631  1
  O  O283  1  0.10897793  0.38356054  0.37052767  1
  O  O284  1  0.11946532  0.36262091  0.87922804  1
  O  O285  1  0.12723724  0.86320083  0.36565807  1
  O  O286  1  0.12192108  0.87089093  0.86699515  1
  O  O287  1  0.62290325  0.36751510  0.37138581  1
  O  O288  1  0.61768819  0.37291487  0.86588325  1
  O  O289  1  0.61761238  0.87024560  0.36755807  1
  O  O290  1  0.62144900  0.86617246  0.86104582  1
  O  O291  1  0.38729463  0.13486126  0.12636254  1
  O  O292  1  0.39274268  0.12228822  0.63058502  1
  O  O293  1  0.37554235  0.62468985  0.13778355  1
  O  O294  1  0.37524936  0.63212346  0.62930861  1
  O  O295  1  0.87401856  0.12953422  0.13896955  1
  O  O296  1  0.87732153  0.13387974  0.63019198  1
  O  O297  1  0.88115380  0.63333030  0.13979179  1
  O  O298  1  0.88214334  0.62879412  0.63360692  1
  O  O299  1  0.26089735  0.26302398  0.11766504  1
  O  O300  1  0.25135187  0.26292225  0.61386311  1
  O  O301  1  0.24648937  0.75340154  0.10921841  1
  O  O302  1  0.25392671  0.75387400  0.62031080  1
  O  O303  1  0.74317489  0.25561096  0.11245361  1
  O  O304  1  0.76215126  0.25988288  0.62967210  1
  O  O305  1  0.76622373  0.74712466  0.12766596  1
  O  O306  1  0.76440806  0.74123796  0.62347403  1
  O  O307  1  0.26376526  0.24342659  0.38742461  1
  O  O308  1  0.23879025  0.25773429  0.89497582  1
  O  O309  1  0.24558226  0.74597627  0.38498994  1
  O  O310  1  0.24255207  0.74666740  0.88249657  1
  O  O311  1  0.73620675  0.25141805  0.37216715  1
  O  O312  1  0.74735293  0.24095333  0.88630956  1
  O  O313  1  0.74403308  0.74023870  0.37485346  1
  O  O314  1  0.73175530  0.74608362  0.86778963  1
  O  O315  1  0.01532028  0.12625646  0.00826216  1
  O  O316  1  -0.00544648  0.10728345  0.49999441  1
  O  O317  1  -0.00142606  0.61415990  0.00524046  1
  O  O318  1  -0.00851694  0.61619311  0.51329590  1
  O  O319  1  0.50886104  0.11790482  0.00532736  1
  O  O320  1  0.51890605  0.12791222  0.50098485  1
  O  O321  1  0.49027509  0.60960336  0.00025602  1
  O  O322  1  0.50399443  0.62033954  0.50303874  1
  O  O323  1  0.50153464  0.38424000  0.49353110  1
  O  O324  1  0.49338059  0.38335858  0.99189610  1
  O  O325  1  0.49804501  0.86923992  0.48632267  1
  O  O326  1  0.49253861  0.88058627  1.00051651  1
  O  O327  1  0.99102447  0.38420570  0.48902272  1
  O  O328  1  0.99080336  0.38416009  1.00402703  1
  O  O329  1  0.98900146  0.88598324  0.49923627  1
  O  O330  1  1.00405760  0.87787723  0.98726769  1
  O  O331  1  0.50604771  0.49020355  0.38248929  1
  O  O332  1  0.49419346  0.49127813  0.88044923  1
  O  O333  1  0.49244136  0.98936819  0.36711765  1
  O  O334  1  0.49347413  0.99587086  0.88841545  1
  O  O335  1  0.99775640  0.50647685  0.38889430  1
  O  O336  1  0.99028008  0.49730530  0.88340417  1
  O  O337  1  0.98727351  0.99593099  0.38300398  1
  O  O338  1  0.98922824  0.99200351  0.86798672  1
  O  O339  1  -0.01952388  0.02308118  0.11636565  1
  O  O340  1  0.00073039  -0.00092501  0.61038198  1
  O  O341  1  0.00639176  0.50597526  0.11864972  1
  O  O342  1  0.00548197  0.50282156  0.61766497  1
  O  O343  1  0.49289468  0.00746892  0.11153657  1
  O  O344  1  0.50631264  0.01366074  0.62205285  1
  O  O345  1  0.50906716  0.50152357  0.11559700  1
  O  O346  1  0.50386710  0.50385429  0.61733791  1
  O  O347  1  0.26205426  0.38027551  0.24029229  1
  O  O348  1  0.24626445  0.37703903  0.74075472  1
  O  O349  1  0.24891398  0.87622950  0.24161724  1
  O  O350  1  0.24134423  0.87442613  0.73715099  1
  O  O351  1  0.74644139  0.38309554  0.24351166  1
  O  O352  1  0.74527200  0.38418002  0.74199404  1
  O  O353  1  0.74189983  0.88852515  0.25536984  1
  O  O354  1  0.73935692  0.88089602  0.75211918  1
  O  O355  1  0.26867157  0.11325546  0.23631934  1
  O  O356  1  0.25939946  0.16183750  0.76332653  1
  O  O357  1  0.26365038  0.63360665  0.25847519  1
  O  O358  1  0.25248623  0.61566745  0.75467853  1
  O  O359  1  0.75767751  0.11540741  0.25262770  1
  O  O360  1  0.75486611  0.11788464  0.75405685  1
  O  O361  1  0.75616378  0.62290250  0.25694093  1
  O  O362  1  0.75838571  0.60933664  0.74308519  1
  O  O363  1  0.38211286  0.11807785  0.36424046  1
  O  O364  1  0.37975328  0.11119229  0.87724336  1
  O  O365  1  0.36694612  0.62464696  0.36679396  1
  O  O366  1  0.36773711  0.61804115  0.86814474  1
  O  O367  1  0.87421646  0.11936913  0.36536844  1
  O  O368  1  0.87073758  0.11735476  0.86990390  1
  O  O369  1  0.86801040  0.62830259  0.36656500  1
  O  O370  1  0.88558230  0.61372781  0.85611516  1
  O  O371  1  0.12862513  0.38779667  0.11966200  1
  O  O372  1  0.13224362  0.37925166  0.62720826  1
  O  O373  1  0.13901166  0.86877689  0.13028241  1
  O  O374  1  0.13699850  0.87355886  0.63428911  1
  O  O375  1  0.63097264  0.38317958  0.12753087  1
  O  O376  1  0.63101004  0.37881284  0.62961644  1
  O  O377  1  0.62149591  0.87358507  0.13801449  1
  O  O378  1  0.62404184  0.87106564  0.63853174  1
  O  O379  1  0.14405487  0.27303126  0.22931840  1
  O  O380  1  0.11178916  0.25176453  0.76585618  1
  O  O381  1  0.12319753  0.75859575  0.25513063  1
  O  O382  1  0.12616614  0.75255528  0.76169002  1
  O  O383  1  0.62384470  0.25567865  0.25969667  1
  O  O384  1  0.63405414  0.26191744  0.75038330  1
  O  O385  1  0.61881661  0.75816797  0.25547751  1
  O  O386  1  0.62231541  0.75653107  0.75332914  1
  O  O387  1  0.38152148  0.24129705  0.24172379  1
  O  O388  1  0.39070570  0.25454285  0.74365954  1
  O  O389  1  0.38432698  0.73956469  0.25367522  1
  O  O390  1  0.37131030  0.74584714  0.74042077  1
  O  O391  1  0.86640579  0.23685139  0.25359483  1
  O  O392  1  0.87730749  0.24465072  0.74791112  1
  O  O393  1  0.88113658  0.74775722  0.24528367  1
  O  O394  1  0.87573143  0.74161286  0.74503349  1
  O  O395  1  0.38830811  0.50348438  0.49537783  1
  O  O396  1  0.38018081  0.49208172  0.99657188  1
  O  O397  1  0.36976290  1.00038482  0.48485677  1
  O  O398  1  0.38101126  0.99367316  0.99376228  1
  O  O399  1  0.88263323  0.48997216  0.50152195  1
  O  O400  1  0.88006608  0.49435077  0.99328654  1
  O  O401  1  0.87603213  0.99550987  0.49443379  1
  O  O402  1  0.86908584  0.99864137  0.98401921  1
  O  O403  1  0.13218842  0.01399087  -0.00111708  1
  O  O404  1  0.11079217  -0.00494581  0.48834102  1
  O  O405  1  0.11547668  0.50571929  0.00416553  1
  O  O406  1  0.11607202  0.49632710  0.51261860  1
  O  O407  1  0.61950672  0.00819320  -0.00524562  1
  O  O408  1  0.62729721  0.00758840  0.49607062  1
  O  O409  1  0.61710723  0.49635931  0.00682718  1
  O  O410  1  0.61558794  0.50632003  0.50540189  1
  O  O411  1  0.38923759  0.36272127  0.11680225  1
  O  O412  1  0.36484989  0.37914498  0.61971044  1
  O  O413  1  0.36497271  0.87595708  0.11108897  1
  O  O414  1  0.36457137  0.87060738  0.62721457  1
  O  O415  1  0.86535118  0.38334885  0.11190137  1
  O  O416  1  0.86645239  0.37174168  0.61777307  1
  O  O417  1  0.87907885  0.86595107  0.13409482  1
  O  O418  1  0.87970519  0.86533275  0.61968484  1
  O  O419  1  0.13456825  0.12977688  0.33106587  1
  O  O420  1  0.11986309  0.13759163  0.89421378  1
  O  O421  1  0.13536410  0.63965591  0.36765023  1
  O  O422  1  0.12695233  0.63103862  0.87810155  1
  O  O423  1  0.62487912  0.13640427  0.38187254  1
  O  O424  1  0.63211041  0.12321450  0.88302104  1
  O  O425  1  0.63086693  0.63060010  0.37785571  1
  O  O426  1  0.62003897  0.63575698  0.86458650  1
