# generated using pymatgen
data_V85Zn86O256
_symmetry_space_group_name_H-M   'P 1'
_cell_length_a   16.94938356
_cell_length_b   16.94767153
_cell_length_c   16.92944036
_cell_angle_alpha   89.97695058
_cell_angle_beta   90.03008715
_cell_angle_gamma   90.01090549
_symmetry_Int_Tables_number   1
_chemical_formula_structural   V85Zn86O256
_chemical_formula_sum   'V85 Zn86 O256'
_cell_volume   4863.02435910
_cell_formula_units_Z   1
loop_
 _symmetry_equiv_pos_site_id
 _symmetry_equiv_pos_as_xyz
  1  'x, y, z'
loop_
 _atom_site_type_symbol
 _atom_site_label
 _atom_site_symmetry_multiplicity
 _atom_site_fract_x
 _atom_site_fract_y
 _atom_site_fract_z
 _atom_site_occupancy
  V  V0  1  0.62995138  0.62092542  -0.00174004  1
  V  V1  1  0.12369724  -0.00067188  0.12747623  1
  V  V2  1  0.13014100  0.87585385  0.74120180  1
  V  V3  1  0.87415047  0.87349690  0.00362096  1
  V  V4  1  0.36556473  0.75467697  0.09777993  1
  V  V5  1  0.49825713  0.12359547  0.62579623  1
  V  V6  1  0.87161013  0.37625985  0.51455241  1
  V  V7  1  0.49605884  0.50620212  0.00747289  1
  V  V8  1  0.49865953  0.50015536  0.49810514  1
  V  V9  1  0.62577048  0.63126953  0.49549932  1
  V  V10  1  0.75025935  0.61166453  0.37262529  1
  V  V11  1  0.86644769  0.12327778  0.25141963  1
  V  V12  1  0.75227017  0.74954411  0.00117288  1
  V  V13  1  0.00021070  0.75066601  0.75080073  1
  V  V14  1  0.63158388  0.25138933  0.37702903  1
  V  V15  1  0.62397104  -0.00973259  0.62599851  1
  V  V16  1  0.37918371  -0.00102645  0.37472103  1
  V  V17  1  0.50621634  0.87650033  0.88741569  1
  V  V18  1  0.24223359  0.49713273  0.75807595  1
  V  V19  1  0.89007026  0.88007507  0.50079751  1
  V  V20  1  0.62881446  0.75439675  0.87199839  1
  V  V21  1  0.87494362  0.62495657  0.75031941  1
  V  V22  1  0.74721087  0.25048024  -0.00096109  1
  V  V23  1  0.24435231  0.37555601  0.62596577  1
  V  V24  1  0.75655658  0.24984167  0.51714026  1
  V  V25  1  0.37583317  0.63813079  0.24655778  1
  V  V26  1  0.87763028  0.74760509  0.13089194  1
  V  V27  1  -0.00414349  0.13627092  0.62805041  1
  V  V28  1  0.87972362  0.37219273  -0.00335762  1
  V  V29  1  0.12619656  0.25161642  0.86341261  1
  V  V30  1  0.37652123  0.12179022  0.75436236  1
  V  V31  1  -0.00543615  0.37357958  0.37431937  1
  V  V32  1  0.32776435  -0.05665994  0.93358142  1
  V  V33  1  0.74947737  0.87870707  0.14386333  1
  V  V34  1  0.24737107  0.62600818  0.37509438  1
  V  V35  1  0.25106112  0.13284797  0.38090614  1
  V  V36  1  0.36720610  0.75029663  0.62597342  1
  V  V37  1  0.23085341  0.37828343  0.12861136  1
  V  V38  1  0.12251119  0.87692277  0.25744053  1
  V  V39  1  0.00534305  0.25056672  0.25158978  1
  V  V40  1  0.62619626  0.49799351  0.62360367  1
  V  V41  1  0.50040671  0.12398577  0.12453822  1
  V  V42  1  0.74993601  0.49705498  0.74379641  1
  V  V43  1  0.36867254  0.24869568  0.62059215  1
  V  V44  1  -0.00423141  0.49984354  0.49125534  1
  V  V45  1  0.00097245  0.62067089  0.62867341  1
  V  V46  1  0.00875802  0.37244345  0.85352744  1
  V  V47  1  0.11721345  -0.00110603  0.61739063  1
  V  V48  1  0.62531451  0.37365872  0.74630739  1
  V  V49  1  0.75087877  0.75512629  0.49247311  1
  V  V50  1  0.49697425  0.25137525  0.75265680  1
  V  V51  1  0.50036562  0.62598340  0.62467597  1
  V  V52  1  0.36777440  0.37196437  0.49643001  1
  V  V53  1  0.25458360  0.12827060  0.87842834  1
  V  V54  1  0.63057092  -0.00108376  0.13758414  1
  V  V55  1  -0.00162662  0.87516266  0.87341326  1
  V  V56  1  0.87559404  0.49683875  0.87496122  1
  V  V57  1  0.74583807  -0.00973769  0.74910465  1
  V  V58  1  0.74460558  0.12442567  0.87239219  1
  V  V59  1  0.62499810  0.12453321  0.50182724  1
  V  V60  1  0.49457458  0.38519937  0.87617675  1
  V  V61  1  0.52727852  0.65558767  0.14525798  1
  V  V62  1  0.87355015  0.00078275  0.87217101  1
  V  V63  1  0.75370623  0.37961768  0.12890442  1
  V  V64  1  0.11892277  0.75199821  0.37792019  1
  V  V65  1  -0.00277962  0.75129216  0.25258835  1
  V  V66  1  0.37897577  0.61551730  0.75787955  1
  V  V67  1  -0.00429447  0.00107677  0.00267545  1
  V  V68  1  0.25168704  0.00099766  0.25107346  1
  V  V69  1  0.25607505  -0.00285561  0.73779175  1
  V  V70  1  0.22876923  0.50035764  0.24709122  1
  V  V71  1  0.51059828  0.85971141  0.36508213  1
  V  V72  1  0.50536701  0.75762194  0.74790918  1
  V  V73  1  0.63176687  0.38393051  0.25340333  1
  V  V74  1  0.14057514  0.75066779  0.88052212  1
  V  V75  1  0.24918428  0.75206110  0.50301169  1
  V  V76  1  -0.00066162  0.12508183  0.12369069  1
  V  V77  1  0.12362667  0.62416119  0.50134656  1
  V  V78  1  0.87980156  -0.00804595  0.36946389  1
  V  V79  1  0.37516489  0.37710751  0.00580375  1
  V  V80  1  0.50232767  0.25268368  0.24960506  1
  V  V81  1  0.12008255  0.12974186  0.49673057  1
  V  V82  1  0.87685092  0.61033949  0.25545878  1
  V  V83  1  0.37292933  0.87598206  0.50322582  1
  V  V84  1  0.37240532  0.50044993  0.36884380  1
  Zn  Zn85  1  0.26071941  0.61836737  0.88896185  1
  Zn  Zn86  1  0.37404760  0.25302303  0.12800799  1
  Zn  Zn87  1  0.13295298  0.61456695  0.01931759  1
  Zn  Zn88  1  0.50039127  0.37526551  0.37470386  1
  Zn  Zn89  1  0.86969977  0.13295316  0.73339402  1
  Zn  Zn90  1  0.25351059  0.87681968  0.11741357  1
  Zn  Zn91  1  0.13085203  0.26106544  0.37536291  1
  Zn  Zn92  1  0.87510209  0.24642431  0.12477332  1
  Zn  Zn93  1  0.24934917  0.25281346  0.00274063  1
  Zn  Zn94  1  0.74963268  0.11923508  0.37316535  1
  Zn  Zn95  1  0.00863385  0.50147519  0.01280202  1
  Zn  Zn96  1  0.37601596  0.12761651  0.25241785  1
  Zn  Zn97  1  0.12146841  0.49257930  0.63006537  1
  Zn  Zn98  1  0.12312082  0.12889652  -0.00148498  1
  Zn  Zn99  1  0.50313181  -0.00177071  0.00077103  1
  Zn  Zn100  1  0.74798956  0.87128466  0.62279767  1
  Zn  Zn101  1  0.87300113  0.75196153  0.62365418  1
  Zn  Zn102  1  0.62433078  0.12265298  0.00138841  1
  Zn  Zn103  1  0.50286602  -0.00359001  0.49765988  1
  Zn  Zn104  1  0.62839379  0.49646381  0.12647232  1
  Zn  Zn105  1  0.62004153  0.25016371  0.87632934  1
  Zn  Zn106  1  0.75245354  0.62407951  0.87424995  1
  Zn  Zn107  1  0.18671075  0.18835036  0.18908817  1
  Zn  Zn108  1  0.18891179  0.18392358  0.68546242  1
  Zn  Zn109  1  0.19289364  0.69109862  0.18665150  1
  Zn  Zn110  1  0.18737406  0.68060740  0.69535920  1
  Zn  Zn111  1  0.68628122  0.19143661  0.18560235  1
  Zn  Zn112  1  0.68356733  0.18225768  0.69087399  1
  Zn  Zn113  1  0.69685441  0.68584688  0.18839495  1
  Zn  Zn114  1  0.68939121  0.68700337  0.68392899  1
  Zn  Zn115  1  0.31067606  0.31596327  0.30640270  1
  Zn  Zn116  1  0.31441967  0.31522801  0.81418733  1
  Zn  Zn117  1  0.31056199  0.81720804  0.31631435  1
  Zn  Zn118  1  0.31677549  0.81194583  0.80211247  1
  Zn  Zn119  1  0.81762907  0.31085850  0.31668508  1
  Zn  Zn120  1  0.80802103  0.31226718  0.80331563  1
  Zn  Zn121  1  0.81117850  0.81018335  0.32083112  1
  Zn  Zn122  1  0.81238586  0.81289882  0.81194889  1
  Zn  Zn123  1  0.18241594  0.43988366  0.43793243  1
  Zn  Zn124  1  0.18756701  0.43878803  0.93867380  1
  Zn  Zn125  1  0.18999306  0.93990969  0.43866492  1
  Zn  Zn126  1  0.16670455  0.94274816  0.93157115  1
  Zn  Zn127  1  0.69094194  0.43528310  0.44170070  1
  Zn  Zn128  1  0.68737182  0.43589519  0.93344030  1
  Zn  Zn129  1  0.69161098  0.93946574  0.43282949  1
  Zn  Zn130  1  0.68531646  0.93740944  0.94630525  1
  Zn  Zn131  1  0.31226051  0.06907128  0.07020596  1
  Zn  Zn132  1  0.30947397  0.06325229  0.55947238  1
  Zn  Zn133  1  0.31142574  0.56368902  0.06649314  1
  Zn  Zn134  1  0.31188047  0.56089409  0.56479916  1
  Zn  Zn135  1  0.81015336  0.06307089  0.06242649  1
  Zn  Zn136  1  0.81225510  0.05779906  0.55776655  1
  Zn  Zn137  1  0.82291595  0.55993211  0.06625694  1
  Zn  Zn138  1  0.81278431  0.56261732  0.56230109  1
  Zn  Zn139  1  0.44077936  0.44292902  0.18746490  1
  Zn  Zn140  1  0.43578569  0.43663560  0.68424661  1
  Zn  Zn141  1  0.43799683  0.93222731  0.18572516  1
  Zn  Zn142  1  0.43988103  0.93490585  0.68789864  1
  Zn  Zn143  1  0.93747094  0.43063418  0.18740792  1
  Zn  Zn144  1  0.93649999  0.43678183  0.68472185  1
  Zn  Zn145  1  0.93757254  0.93568625  0.19306904  1
  Zn  Zn146  1  0.93682151  0.94096162  0.68495107  1
  Zn  Zn147  1  0.05740085  0.06337896  0.31510816  1
  Zn  Zn148  1  0.06425058  0.06592672  0.80835589  1
  Zn  Zn149  1  0.05172096  0.57181950  0.17850076  1
  Zn  Zn150  1  0.05314305  0.57735703  0.85084005  1
  Zn  Zn151  1  0.56236572  0.06372648  0.31298072  1
  Zn  Zn152  1  0.56258573  0.05766213  0.81194704  1
  Zn  Zn153  1  0.56259834  0.56413805  0.31530028  1
  Zn  Zn154  1  0.56277575  0.56373519  0.81413261  1
  Zn  Zn155  1  0.43989781  0.18925511  0.43647016  1
  Zn  Zn156  1  0.43588525  0.19246990  0.94085762  1
  Zn  Zn157  1  0.43706355  0.68838896  0.43484503  1
  Zn  Zn158  1  0.44307114  0.68796393  0.93977320  1
  Zn  Zn159  1  0.93770361  0.18437349  0.43737757  1
  Zn  Zn160  1  0.91524550  0.20876228  0.89395628  1
  Zn  Zn161  1  0.93556351  0.68753089  0.43657473  1
  Zn  Zn162  1  0.94112056  0.68589829  0.94098369  1
  Zn  Zn163  1  0.06110275  0.30647726  0.05356054  1
  Zn  Zn164  1  0.06283376  0.30972939  0.55883030  1
  Zn  Zn165  1  0.06595785  0.80608983  0.06787517  1
  Zn  Zn166  1  0.06209937  0.81028245  0.56683113  1
  Zn  Zn167  1  0.56400437  0.31435474  0.06407615  1
  Zn  Zn168  1  0.55746649  0.31223456  0.56239070  1
  Zn  Zn169  1  0.57004297  0.80915011  0.07700880  1
  Zn  Zn170  1  0.55825131  0.81169336  0.55495210  1
  O  O171  1  0.11747071  0.11753714  0.12476130  1
  O  O172  1  0.12018557  0.11982684  0.61480511  1
  O  O173  1  0.11017384  0.65169223  0.12554736  1
  O  O174  1  0.11250221  0.62649619  0.62204926  1
  O  O175  1  0.62007067  0.11662461  0.12528134  1
  O  O176  1  0.61828950  0.11752603  0.61857689  1
  O  O177  1  0.63252555  0.61323860  0.11134314  1
  O  O178  1  0.61953545  0.61777718  0.61647955  1
  O  O179  1  0.37370441  0.38249613  0.37977096  1
  O  O180  1  0.38307127  0.37314704  0.89077044  1
  O  O181  1  0.38162303  0.88275684  0.38233968  1
  O  O182  1  0.38285536  0.87700242  0.87647426  1
  O  O183  1  0.88604692  0.36832731  0.39104695  1
  O  O184  1  0.88290303  0.37969790  0.87719086  1
  O  O185  1  0.87468246  0.88332311  0.38455161  1
  O  O186  1  0.87868157  0.88406372  0.87979881  1
  O  O187  1  0.26132865  0.00825215  0.37049783  1
  O  O188  1  0.25966807  0.00091938  0.87307982  1
  O  O189  1  0.25299192  0.50449799  0.36638190  1
  O  O190  1  0.25402145  0.49696989  0.86138092  1
  O  O191  1  0.76891874  0.00544178  0.38223247  1
  O  O192  1  0.75243970  0.00163162  0.86882541  1
  O  O193  1  0.75198144  0.51301422  0.38179108  1
  O  O194  1  0.75767334  0.49934809  0.86268156  1
  O  O195  1  0.25523219  0.48676012  0.13649220  1
  O  O196  1  0.24879786  0.49160877  0.63292425  1
  O  O197  1  0.24392704  0.99892968  0.13399533  1
  O  O198  1  0.23947229  1.00697822  0.63424140  1
  O  O199  1  0.75201908  0.48306621  0.11935833  1
  O  O200  1  0.74394941  0.50356472  0.63595581  1
  O  O201  1  0.73998046  0.99378575  0.12466336  1
  O  O202  1  0.74173325  0.99950246  0.63152602  1
  O  O203  1  -0.00856864  0.36354006  0.26120104  1
  O  O204  1  0.00032217  0.37110244  0.75538109  1
  O  O205  1  0.00874478  0.86246737  0.25011420  1
  O  O206  1  0.00569242  0.86920899  0.75174388  1
  O  O207  1  0.51097007  0.36930798  0.25166822  1
  O  O208  1  0.50101891  0.37303903  0.75823943  1
  O  O209  1  0.49664631  0.87792121  0.26682864  1
  O  O210  1  0.49609843  0.86101861  0.75890136  1
  O  O211  1  0.50151403  0.13453605  0.24155532  1
  O  O212  1  0.49545744  0.12970735  0.74601681  1
  O  O213  1  0.49191214  0.62038071  0.24248719  1
  O  O214  1  0.49518178  0.63185012  0.74563559  1
  O  O215  1  0.99114505  0.12791120  0.24038380  1
  O  O216  1  0.99988395  0.12033440  0.73150008  1
  O  O217  1  0.98261602  0.63748713  0.25446350  1
  O  O218  1  0.99636165  0.63141229  0.74833475  1
  O  O219  1  0.37005001  0.26160098  0.00636247  1
  O  O220  1  0.37889149  0.25946252  0.50727978  1
  O  O221  1  0.36494414  0.74932348  -0.00091897  1
  O  O222  1  0.37017562  0.75438888  0.50726694  1
  O  O223  1  0.86304414  0.25710214  -0.00782521  1
  O  O224  1  0.86122385  0.25325979  0.49944778  1
  O  O225  1  0.87332368  0.75121575  0.00858832  1
  O  O226  1  0.86940138  0.76175401  0.49879930  1
  O  O227  1  0.12727345  0.23391127  0.49627619  1
  O  O228  1  0.13216632  0.24627647  0.98748407  1
  O  O229  1  0.12940969  0.74783250  0.49681356  1
  O  O230  1  0.12183610  0.75671783  0.98043214  1
  O  O231  1  0.63254797  0.24713972  0.49676513  1
  O  O232  1  0.63594213  0.25093157  0.99775815  1
  O  O233  1  0.63139169  0.73650720  0.50482247  1
  O  O234  1  0.63323249  0.74100192  0.99525562  1
  O  O235  1  0.50423919  0.24350094  0.13443161  1
  O  O236  1  0.48842746  0.24484405  0.63109142  1
  O  O237  1  0.47754532  0.74561283  0.10618280  1
  O  O238  1  0.49546077  0.74515379  0.63140752  1
  O  O239  1  0.99830619  0.24159295  0.13020573  1
  O  O240  1  1.00338854  0.23503769  0.62288716  1
  O  O241  1  0.98423404  0.75715251  0.13369718  1
  O  O242  1  0.99818494  0.74246293  0.63718291  1
  O  O243  1  0.00149856  0.25457694  0.36922950  1
  O  O244  1  0.01236513  0.26672348  0.88094867  1
  O  O245  1  0.01195828  0.74648333  0.37039776  1
  O  O246  1  0.00575029  0.75655716  0.86278101  1
  O  O247  1  0.51362102  0.25197383  0.36980960  1
  O  O248  1  0.50063208  0.26250630  0.87068342  1
  O  O249  1  0.50197569  0.75939808  0.37576712  1
  O  O250  1  0.50937221  0.75544317  0.86873149  1
  O  O251  1  0.23929891  0.12325538  0.49052790  1
  O  O252  1  0.25167803  0.12369569  0.98787416  1
  O  O253  1  0.24540408  0.63127515  0.49700020  1
  O  O254  1  0.24642967  0.62302257  0.99974801  1
  O  O255  1  0.74156715  0.13608050  0.50194103  1
  O  O256  1  0.74742905  0.13338727  0.99307223  1
  O  O257  1  0.74578479  0.62900440  0.49165000  1
  O  O258  1  0.74707069  0.62902733  0.99798234  1
  O  O259  1  0.25846544  0.37844149  0.01410425  1
  O  O260  1  0.26184795  0.38274691  0.50654425  1
  O  O261  1  0.25874650  0.89405777  -0.00993989  1
  O  O262  1  0.26359327  0.86766173  0.49527094  1
  O  O263  1  0.75786796  0.36909739  0.00180275  1
  O  O264  1  0.76078377  0.36320859  0.50045686  1
  O  O265  1  0.75870190  0.86686279  0.00617074  1
  O  O266  1  0.75606831  0.86701885  0.50046913  1
  O  O267  1  0.13062301  0.51258643  0.24663930  1
  O  O268  1  0.14198691  0.50533011  0.74951812  1
  O  O269  1  0.12908833  0.99428854  0.24968123  1
  O  O270  1  0.13338192  0.99288494  0.74396733  1
  O  O271  1  0.62517154  0.48682264  0.25332116  1
  O  O272  1  0.63117404  0.49544784  0.74579092  1
  O  O273  1  0.62557654  1.00547633  0.23725021  1
  O  O274  1  0.63357493  1.00300923  0.73845839  1
  O  O275  1  0.36759669  0.00093159  0.25685978  1
  O  O276  1  0.36720897  0.00681086  0.74227021  1
  O  O277  1  0.37226409  0.50706364  0.26058936  1
  O  O278  1  0.37192852  0.51140951  0.74327538  1
  O  O279  1  0.87566321  0.00514511  0.26068482  1
  O  O280  1  0.86737901  0.00409921  0.75752640  1
  O  O281  1  0.87582007  0.51280767  0.25333900  1
  O  O282  1  0.86753584  0.50146032  0.75480666  1
  O  O283  1  0.10448896  0.37337888  0.38845339  1
  O  O284  1  0.11472796  0.36982273  0.87244084  1
  O  O285  1  0.13062689  0.86974175  0.36578345  1
  O  O286  1  0.11748224  0.86865523  0.86048723  1
  O  O287  1  0.62615601  0.36828788  0.37146493  1
  O  O288  1  0.61571520  0.37504094  0.86222414  1
  O  O289  1  0.60831663  0.88093511  0.38251262  1
  O  O290  1  0.62256248  0.86147444  0.87887629  1
  O  O291  1  0.38471400  0.13106242  0.13228586  1
  O  O292  1  0.37729008  0.13192191  0.62904522  1
  O  O293  1  0.37745242  0.64045885  0.13260931  1
  O  O294  1  0.38297373  0.63233584  0.62942457  1
  O  O295  1  0.88052075  0.12398899  0.13270046  1
  O  O296  1  0.89123686  0.11807649  0.61818507  1
  O  O297  1  0.86026278  0.63630657  0.14501000  1
  O  O298  1  0.88641517  0.62609366  0.63071737  1
  O  O299  1  0.25163752  0.26533724  0.12993080  1
  O  O300  1  0.26224647  0.25678068  0.63146985  1
  O  O301  1  0.26348506  0.75847451  0.12698078  1
  O  O302  1  0.26165866  0.74316238  0.62479986  1
  O  O303  1  0.75220666  0.25786265  0.11446220  1
  O  O304  1  0.74565413  0.24643298  0.61556023  1
  O  O305  1  0.76086085  0.75981303  0.12153137  1
  O  O306  1  0.75300472  0.74949788  0.61140997  1
  O  O307  1  0.24827180  0.23679149  0.36379258  1
  O  O308  1  0.24605267  0.24298926  0.87552214  1
  O  O309  1  0.24062769  0.74681786  0.38148890  1
  O  O310  1  0.24081520  0.76105775  0.87084837  1
  O  O311  1  0.73981668  0.24706972  0.38347962  1
  O  O312  1  0.74260218  0.23982060  0.88017961  1
  O  O313  1  0.75002305  0.73862662  0.38774507  1
  O  O314  1  0.74467299  0.74780485  0.87972159  1
  O  O315  1  -0.00432148  0.11820699  0.01592743  1
  O  O316  1  0.01338411  0.12514227  0.50716903  1
  O  O317  1  0.02007483  0.61163434  -0.03651725  1
  O  O318  1  0.00000597  0.61852381  0.50871948  1
  O  O319  1  0.50154345  0.12749613  0.01339133  1
  O  O320  1  0.51119789  0.12613045  0.50632274  1
  O  O321  1  0.51232872  0.62184535  0.00844980  1
  O  O322  1  0.50839078  0.62077464  0.50152707  1
  O  O323  1  0.48724284  0.38228366  0.49842688  1
  O  O324  1  0.49679569  0.38402968  0.99610222  1
  O  O325  1  0.48696274  0.87585780  0.49032651  1
  O  O326  1  0.50660789  0.87082362  0.99000405  1
  O  O327  1  0.98800347  0.37896910  0.50126209  1
  O  O328  1  0.98587025  0.37575665  0.99663571  1
  O  O329  1  0.98852172  0.86968362  0.50104853  1
  O  O330  1  0.99453434  0.88000403  0.99480187  1
  O  O331  1  0.48990509  0.49885290  0.38031308  1
  O  O332  1  0.50284342  0.49086334  0.88283733  1
  O  O333  1  0.48720155  1.00328304  0.37721956  1
  O  O334  1  0.50620244  0.98503295  0.87815520  1
  O  O335  1  0.99635904  0.49223072  0.39122247  1
  O  O336  1  0.99010023  0.48292547  0.86720250  1
  O  O337  1  0.98059262  1.00512507  0.37662261  1
  O  O338  1  0.99187686  0.99674338  0.87797418  1
  O  O339  1  0.00446974  0.00433452  0.12456064  1
  O  O340  1  0.01411923  0.00606632  0.62688256  1
  O  O341  1  -0.02333559  0.51076996  0.12178170  1
  O  O342  1  0.00253660  0.50636304  0.62042500  1
  O  O343  1  0.50890295  0.00633239  0.12595300  1
  O  O344  1  0.50647450  0.00579178  0.62253621  1
  O  O345  1  0.50820117  0.50985897  0.11909106  1
  O  O346  1  0.50379535  0.50683183  0.61745305  1
  O  O347  1  0.24716356  0.38499853  0.23899029  1
  O  O348  1  0.26187245  0.38936444  0.74076969  1
  O  O349  1  0.24331503  0.88896257  0.25270012  1
  O  O350  1  0.24309146  0.88577345  0.75120402  1
  O  O351  1  0.74499884  0.36471526  0.24167345  1
  O  O352  1  0.73764678  0.38275594  0.75137037  1
  O  O353  1  0.75014671  0.86805053  0.24293046  1
  O  O354  1  0.75393701  0.88593148  0.74481262  1
  O  O355  1  0.24993128  0.11406105  0.25704047  1
  O  O356  1  0.25453825  0.11424302  0.76071411  1
  O  O357  1  0.25763115  0.61793594  0.25475036  1
  O  O358  1  0.26242503  0.61108696  0.74970468  1
  O  O359  1  0.76312292  0.13307897  0.24966305  1
  O  O360  1  0.75050149  0.11392634  0.75764951  1
  O  O361  1  0.75791749  0.62881275  0.26511804  1
  O  O362  1  0.75738681  0.61702949  0.75072472  1
  O  O363  1  0.36840379  0.11929569  0.37577421  1
  O  O364  1  0.36805798  0.13122051  0.86699478  1
  O  O365  1  0.36786415  0.61802426  0.37088199  1
  O  O366  1  0.37682770  0.63235959  0.86173047  1
  O  O367  1  0.87327981  0.11742067  0.36768725  1
  O  O368  1  0.85984953  0.10676355  0.88542942  1
  O  O369  1  0.86419632  0.62824802  0.36533691  1
  O  O370  1  0.87483421  0.61389634  0.86756253  1
  O  O371  1  0.13302771  0.37250940  0.12134321  1
  O  O372  1  0.14075268  0.37199713  0.61747890  1
  O  O373  1  0.12967847  0.87958308  0.13694443  1
  O  O374  1  0.12319623  0.88210819  0.63322766  1
  O  O375  1  0.63444062  0.37526803  0.13513508  1
  O  O376  1  0.61334722  0.38197523  0.63796040  1
  O  O377  1  0.63533578  0.88999617  0.12386091  1
  O  O378  1  0.62326058  0.88703766  0.61626354  1
  O  O379  1  0.10937906  0.24153852  0.25544199  1
  O  O380  1  0.13167979  0.24399007  0.76315699  1
  O  O381  1  0.11984065  0.75806740  0.26055907  1
  O  O382  1  0.12018416  0.75971541  0.75186105  1
  O  O383  1  0.61938307  0.25690465  0.25890494  1
  O  O384  1  0.61635724  0.25754656  0.74976242  1
  O  O385  1  0.59412517  0.73179278  0.18462104  1
  O  O386  1  0.61779539  0.74203349  0.75889430  1
  O  O387  1  0.39173342  0.25229403  0.25239595  1
  O  O388  1  0.37977784  0.24403967  0.74286281  1
  O  O389  1  0.37043057  0.73811387  0.25792567  1
  O  O390  1  0.38405948  0.74191697  0.74119957  1
  O  O391  1  0.88550358  0.23923270  0.25003884  1
  O  O392  1  0.87901615  0.23161140  0.78513209  1
  O  O393  1  0.88221939  0.75145136  0.24807900  1
  O  O394  1  0.88325914  0.74510188  0.74915832  1
  O  O395  1  0.37710513  0.49623229  0.48816583  1
  O  O396  1  0.39000345  0.49667839  1.00658277  1
  O  O397  1  0.37533745  0.99219814  0.49453927  1
  O  O398  1  0.38062531  1.00097036  0.99938779  1
  O  O399  1  0.87860551  0.48464114  0.50788427  1
  O  O400  1  0.87270133  0.49211146  0.98522465  1
  O  O401  1  0.87589024  0.98552523  0.49367763  1
  O  O402  1  0.87724833  0.99199634  0.99469513  1
  O  O403  1  0.11291558  0.00542286  0.00726484  1
  O  O404  1  0.13167035  0.00985446  0.50814299  1
  O  O405  1  0.12142325  0.49995197  0.00093702  1
  O  O406  1  0.11514033  0.50872020  0.50596865  1
  O  O407  1  0.62205197  0.00433140  0.01346434  1
  O  O408  1  0.62578967  0.01064608  0.50630435  1
  O  O409  1  0.61699046  0.50594585  -0.00404010  1
  O  O410  1  0.62088095  0.50642932  0.50470360  1
  O  O411  1  0.37818193  0.37512180  0.11606556  1
  O  O412  1  0.36819668  0.36803585  0.61622009  1
  O  O413  1  0.37306478  0.85968122  0.12300092  1
  O  O414  1  0.38143071  0.86282447  0.61668488  1
  O  O415  1  0.86898069  0.36680213  0.11459388  1
  O  O416  1  0.87608795  0.36830380  0.61397936  1
  O  O417  1  0.86767474  0.87064358  0.12318852  1
  O  O418  1  0.87370527  0.87523819  0.61228794  1
  O  O419  1  0.13090225  0.12128878  0.38601007  1
  O  O420  1  0.13485080  0.12908177  0.87580591  1
  O  O421  1  0.13337557  0.63781288  0.38614819  1
  O  O422  1  0.14287592  0.64742259  0.85753879  1
  O  O423  1  0.62717752  0.13135781  0.38476550  1
  O  O424  1  0.63435437  0.12421908  0.87670145  1
  O  O425  1  0.63771879  0.62151025  0.38168259  1
  O  O426  1  0.62663068  0.63373399  0.88424735  1
