# generated using pymatgen
data_V85Zn86O256
_symmetry_space_group_name_H-M   'P 1'
_cell_length_a   16.94390909
_cell_length_b   16.94446035
_cell_length_c   16.92684042
_cell_angle_alpha   90.00071529
_cell_angle_beta   90.06287304
_cell_angle_gamma   90.01601332
_symmetry_Int_Tables_number   1
_chemical_formula_structural   V85Zn86O256
_chemical_formula_sum   'V85 Zn86 O256'
_cell_volume   4859.78410024
_cell_formula_units_Z   1
loop_
 _symmetry_equiv_pos_site_id
 _symmetry_equiv_pos_as_xyz
  1  'x, y, z'
loop_
 _atom_site_type_symbol
 _atom_site_label
 _atom_site_symmetry_multiplicity
 _atom_site_fract_x
 _atom_site_fract_y
 _atom_site_fract_z
 _atom_site_occupancy
  V  V0  1  0.25276148  0.86241223  0.62389414  1
  V  V1  1  0.49793891  0.74926163  0.24991847  1
  V  V2  1  0.62349114  0.37279220  0.75006403  1
  V  V3  1  0.62947385  0.62656716  0.50141323  1
  V  V4  1  0.37446478  0.50339266  0.87478351  1
  V  V5  1  0.37238574  0.63164956  0.74809824  1
  V  V6  1  0.87734900  0.00222436  0.88668734  1
  V  V7  1  0.01620844  0.87934778  0.37539390  1
  V  V8  1  0.37645748  -0.00040401  0.87981857  1
  V  V9  1  0.87666782  0.12335666  0.75883077  1
  V  V10  1  -0.00157507  0.62837906  0.62489203  1
  V  V11  1  0.87306989  0.86360495  0.00033765  1
  V  V12  1  0.62918428  0.74681021  0.37284835  1
  V  V13  1  0.11797877  -0.01109119  0.12024317  1
  V  V14  1  0.50179827  0.63303852  0.62741896  1
  V  V15  1  0.12876889  0.73290329  0.37467012  1
  V  V16  1  -0.00036446  0.50430495  -0.00475082  1
  V  V17  1  -0.00037524  0.37530522  0.87476551  1
  V  V18  1  0.38054857  0.12788525  0.24369612  1
  V  V19  1  0.87992290  0.38318353  0.49715641  1
  V  V20  1  0.24779068  0.36233192  0.11978673  1
  V  V21  1  0.36800513  0.75781620  0.12572571  1
  V  V22  1  0.36682682  0.62439249  0.24852295  1
  V  V23  1  0.88073214  0.13780230  0.24396143  1
  V  V24  1  0.74545277  0.00454543  0.74608109  1
  V  V25  1  0.24794068  0.24739145  0.49920718  1
  V  V26  1  0.50161529  0.49821443  0.50188389  1
  V  V27  1  0.62662604  0.50124810  0.62697285  1
  V  V28  1  0.37409241  0.37194720  0.49884686  1
  V  V29  1  0.64100652  0.63359610  -0.00918006  1
  V  V30  1  0.24508141  -0.00978275  0.24280323  1
  V  V31  1  0.62130173  0.88146869  0.74334723  1
  V  V32  1  0.25108971  0.13830423  0.88220601  1
  V  V33  1  0.36959890  0.37051257  -0.00121022  1
  V  V34  1  0.12454043  0.13357893  -0.00097043  1
  V  V35  1  0.75029014  0.24884305  0.50155832  1
  V  V36  1  0.24939741  0.12384774  0.37102424  1
  V  V37  1  0.01553119  0.74985234  0.75617569  1
  V  V38  1  0.12609786  0.37103783  0.75266717  1
  V  V39  1  0.37419944  0.12394037  0.74965388  1
  V  V40  1  0.76873970  0.62488554  0.37326483  1
  V  V41  1  0.76969832  0.50149590  0.25542076  1
  V  V42  1  0.50295575  0.00305833  0.01642180  1
  V  V43  1  0.74970617  0.12304323  0.37460614  1
  V  V44  1  0.50063848  -0.00344581  0.50141439  1
  V  V45  1  0.37215263  0.49749588  0.37352713  1
  V  V46  1  0.74943814  0.00051377  0.24424778  1
  V  V47  1  0.11314211  0.24866175  0.36842528  1
  V  V48  1  0.50560680  0.37068025  0.36677837  1
  V  V49  1  0.11783804  0.36876272  0.24575134  1
  V  V50  1  0.00540253  0.24552366  0.76083672  1
  V  V51  1  0.49946965  0.37638352  0.87472295  1
  V  V52  1  0.62154714  0.12299787  0.01907858  1
  V  V53  1  0.00067915  0.11849274  0.62519869  1
  V  V54  1  -0.00471795  0.62704387  0.13349457  1
  V  V55  1  0.74916323  0.86948823  0.12005208  1
  V  V56  1  0.75643132  0.49382844  0.75734496  1
  V  V57  1  0.37315839  0.86082598  0.50309866  1
  V  V58  1  0.50039936  0.24872658  0.74785344  1
  V  V59  1  0.62471654  0.24461895  0.87734975  1
  V  V60  1  0.24935480  0.50254186  0.75028758  1
  V  V61  1  0.49936594  0.62488942  0.12414750  1
  V  V62  1  0.88223645  -0.00172814  0.37797343  1
  V  V63  1  0.50656403  0.87467509  0.88063402  1
  V  V64  1  0.49973846  0.87371439  0.37646884  1
  V  V65  1  0.75302883  0.25209506  0.00440969  1
  V  V66  1  0.87676385  0.24753349  0.62771713  1
  V  V67  1  0.12816007  -0.00160275  0.62746439  1
  V  V68  1  0.00909306  0.87664005  0.87937408  1
  V  V69  1  0.50129086  0.75154318  0.75698127  1
  V  V70  1  0.24369108  0.75729537  0.00014474  1
  V  V71  1  0.75296879  0.37317965  0.13093875  1
  V  V72  1  0.50177550  0.11807570  0.62569923  1
  V  V73  1  0.24861992  0.37314262  0.62471803  1
  V  V74  1  0.62570727  0.49912553  0.13779461  1
  V  V75  1  0.62550251  0.11948789  0.50417078  1
  V  V76  1  0.62463895  0.87910012  0.24347809  1
  V  V77  1  0.11959111  0.12085453  0.49883021  1
  V  V78  1  0.74883995  0.37267152  0.62321309  1
  V  V79  1  0.12874985  0.50203264  0.12202350  1
  V  V80  1  0.24124712  0.63223520  0.87300098  1
  V  V81  1  0.50356473  0.50332280  0.00015933  1
  V  V82  1  0.84171666  0.65843158  0.76795974  1
  V  V83  1  0.12257100  0.50530007  0.61811719  1
  V  V84  1  0.87501389  0.75870883  0.62522734  1
  Zn  Zn85  1  -0.01171831  0.37769685  0.36116921  1
  Zn  Zn86  1  -0.00060489  0.51156240  0.48986605  1
  Zn  Zn87  1  0.37464092  0.24788818  0.62266820  1
  Zn  Zn88  1  0.75218592  0.75550067  0.50140161  1
  Zn  Zn89  1  -0.00168684  0.75914580  0.24928881  1
  Zn  Zn90  1  0.13198834  0.87412201  0.75508199  1
  Zn  Zn91  1  0.24751020  0.49749678  0.25009893  1
  Zn  Zn92  1  0.25163187  0.62461748  0.39230194  1
  Zn  Zn93  1  0.87865587  0.37148017  0.00451179  1
  Zn  Zn94  1  0.25065679  -0.00130166  0.75196969  1
  Zn  Zn95  1  0.12277778  0.63062590  -0.00345535  1
  Zn  Zn96  1  0.62492151  0.25147345  0.37433480  1
  Zn  Zn97  1  0.37559667  0.87644192  0.00447164  1
  Zn  Zn98  1  0.00109776  0.13060102  0.12788494  1
  Zn  Zn99  1  0.51194394  0.24741783  0.23462559  1
  Zn  Zn100  1  0.87385480  0.50423703  0.87564541  1
  Zn  Zn101  1  0.87534755  0.88427264  0.50310585  1
  Zn  Zn102  1  0.75127768  0.12514015  0.88010117  1
  Zn  Zn103  1  0.74644623  0.88128004  0.62159790  1
  Zn  Zn104  1  0.86659725  0.74079153  0.13008923  1
  Zn  Zn105  1  0.37241410  -0.00214569  0.37499991  1
  Zn  Zn106  1  0.37881703  0.24241751  0.11520960  1
  Zn  Zn107  1  0.18811796  0.18369144  0.18497339  1
  Zn  Zn108  1  0.18865975  0.18624300  0.69041899  1
  Zn  Zn109  1  0.18150371  0.69162501  0.18963752  1
  Zn  Zn110  1  0.18054363  0.68677762  0.55824422  1
  Zn  Zn111  1  0.68966333  0.19277182  0.19296253  1
  Zn  Zn112  1  0.68719724  0.18419505  0.68818530  1
  Zn  Zn113  1  0.68854627  0.68309177  0.18739370  1
  Zn  Zn114  1  0.68919481  0.69714753  0.70097191  1
  Zn  Zn115  1  0.30749304  0.30987157  0.30864837  1
  Zn  Zn116  1  0.31484583  0.31292222  0.81115739  1
  Zn  Zn117  1  0.30898897  0.81103915  0.31777422  1
  Zn  Zn118  1  0.31558068  0.81342373  0.81295850  1
  Zn  Zn119  1  0.80600965  0.31370431  0.31349857  1
  Zn  Zn120  1  0.81501299  0.31121564  0.81688788  1
  Zn  Zn121  1  0.81733582  0.81131208  0.30710504  1
  Zn  Zn122  1  0.81353336  0.82418991  0.80948775  1
  Zn  Zn123  1  0.18344474  0.43627827  0.43428442  1
  Zn  Zn124  1  0.18576498  0.43823141  0.93580137  1
  Zn  Zn125  1  0.19087499  0.94083848  0.44316169  1
  Zn  Zn126  1  0.19122319  0.94091974  0.94155958  1
  Zn  Zn127  1  0.69083876  0.44086047  0.43597387  1
  Zn  Zn128  1  0.68452229  0.43765346  0.94267007  1
  Zn  Zn129  1  0.68850528  0.93665013  0.43635473  1
  Zn  Zn130  1  0.68804166  0.94095271  0.93663149  1
  Zn  Zn131  1  0.30859931  0.05912712  0.06372043  1
  Zn  Zn132  1  0.31263563  0.05740172  0.56130404  1
  Zn  Zn133  1  0.31077002  0.56415742  0.05963328  1
  Zn  Zn134  1  0.31749546  0.55927827  0.56700791  1
  Zn  Zn135  1  0.80838614  0.06090100  0.06512665  1
  Zn  Zn136  1  0.81453497  0.06194164  0.56463973  1
  Zn  Zn137  1  0.81415599  0.55781659  0.06278715  1
  Zn  Zn138  1  0.81387526  0.56921213  0.57131970  1
  Zn  Zn139  1  0.43536033  0.43452724  0.18494029  1
  Zn  Zn140  1  0.43640013  0.43976878  0.68601036  1
  Zn  Zn141  1  0.43288356  0.93904365  0.19306420  1
  Zn  Zn142  1  0.43404322  0.93671796  0.68753846  1
  Zn  Zn143  1  0.93977163  0.43687617  0.18142920  1
  Zn  Zn144  1  0.93907233  0.43499510  0.68342847  1
  Zn  Zn145  1  0.93770499  0.93960732  0.18880709  1
  Zn  Zn146  1  0.93937708  0.93809353  0.69506338  1
  Zn  Zn147  1  0.06077033  0.06090968  0.30599661  1
  Zn  Zn148  1  0.06490511  0.05944937  0.81984004  1
  Zn  Zn149  1  0.05925068  0.55439043  0.31099018  1
  Zn  Zn150  1  0.06179142  0.56369469  0.80571996  1
  Zn  Zn151  1  0.56333616  0.06143422  0.31448155  1
  Zn  Zn152  1  0.56141039  0.06037019  0.81769082  1
  Zn  Zn153  1  0.55912591  0.56417506  0.31439491  1
  Zn  Zn154  1  0.56726563  0.56401345  0.81396032  1
  Zn  Zn155  1  0.43475870  0.18570517  0.43468973  1
  Zn  Zn156  1  0.44142872  0.18630580  0.94015207  1
  Zn  Zn157  1  0.43822970  0.68367867  0.43709797  1
  Zn  Zn158  1  0.43580373  0.68932882  0.93840698  1
  Zn  Zn159  1  0.93533415  0.18704954  0.43821878  1
  Zn  Zn160  1  0.95388374  0.19805340  0.96551996  1
  Zn  Zn161  1  0.94336919  0.69837803  0.44025843  1
  Zn  Zn162  1  0.93804608  0.68945122  0.93698567  1
  Zn  Zn163  1  0.06382554  0.30712138  0.05921420  1
  Zn  Zn164  1  0.06173194  0.30767803  0.56603673  1
  Zn  Zn165  1  0.05961094  0.81279202  0.05910652  1
  Zn  Zn166  1  0.05805980  0.81906206  0.55616203  1
  Zn  Zn167  1  0.56480821  0.31669122  0.06585711  1
  Zn  Zn168  1  0.56161824  0.30858488  0.55929221  1
  Zn  Zn169  1  0.56287792  0.80970968  0.06303138  1
  Zn  Zn170  1  0.56391478  0.81067352  0.56349957  1
  O  O171  1  0.12482754  0.12233459  0.11137738  1
  O  O172  1  0.12016835  0.12013436  0.61963426  1
  O  O173  1  0.11790376  0.61607297  0.12166728  1
  O  O174  1  0.11350901  0.61658683  0.62548648  1
  O  O175  1  0.62686134  0.12586172  0.11712094  1
  O  O176  1  0.61756569  0.12695222  0.61314008  1
  O  O177  1  0.61761891  0.61697988  0.11884183  1
  O  O178  1  0.62009808  0.62197637  0.62397521  1
  O  O179  1  0.37937395  0.37991006  0.37852104  1
  O  O180  1  0.37967785  0.38333463  0.87856609  1
  O  O181  1  0.38073112  0.87517457  0.38414333  1
  O  O182  1  0.38686778  0.88457718  0.87676475  1
  O  O183  1  0.87330353  0.36751473  0.39318746  1
  O  O184  1  0.88976247  0.37823325  0.87468111  1
  O  O185  1  0.87254217  0.89185453  0.37594316  1
  O  O186  1  0.87868377  0.88167740  0.88296365  1
  O  O187  1  0.24644137  0.01147310  0.36702037  1
  O  O188  1  0.26613448  0.00331463  0.87427216  1
  O  O189  1  0.26179668  0.49926434  0.37360269  1
  O  O190  1  0.25539097  0.50811773  0.86957392  1
  O  O191  1  0.75673842  0.00937533  0.36865988  1
  O  O192  1  0.75873573  0.00320259  0.86574092  1
  O  O193  1  0.74839080  0.50820171  0.36286606  1
  O  O194  1  0.75098549  0.48972627  0.86123043  1
  O  O195  1  0.23770333  0.49530219  0.12144942  1
  O  O196  1  0.24321294  0.49208034  0.63262310  1
  O  O197  1  0.24260743  0.99924552  0.13714429  1
  O  O198  1  0.24226213  0.99573297  0.62926070  1
  O  O199  1  0.74495254  0.49866489  0.13915424  1
  O  O200  1  0.74476936  0.48833546  0.63019787  1
  O  O201  1  0.75107498  0.98979282  0.13848151  1
  O  O202  1  0.75417108  1.00242577  0.64100724  1
  O  O203  1  0.01227236  0.37165736  0.24280568  1
  O  O204  1  0.00684396  0.36654722  0.75335860  1
  O  O205  1  -0.00432405  0.88036264  0.27020839  1
  O  O206  1  0.00589710  0.86573797  0.75817102  1
  O  O207  1  0.49374046  0.37482008  0.26495325  1
  O  O208  1  0.50356811  0.36959165  0.75411109  1
  O  O209  1  0.50576537  0.87056666  0.25600897  1
  O  O210  1  0.50205075  0.87149745  0.75649727  1
  O  O211  1  0.48315523  0.12224894  0.25820472  1
  O  O212  1  0.49557192  0.12721300  0.74341605  1
  O  O213  1  0.48856139  0.63013986  0.24548006  1
  O  O214  1  0.49790243  0.63240785  0.74753292  1
  O  O215  1  0.98545770  0.12863296  0.25007639  1
  O  O216  1  0.99816821  0.13031973  0.74931430  1
  O  O217  1  1.00326364  0.62065874  0.23419443  1
  O  O218  1  0.99976369  0.64019495  0.74441207  1
  O  O219  1  0.37970241  0.26696489  -0.00549571  1
  O  O220  1  0.36634791  0.25357952  0.50042563  1
  O  O221  1  0.36743863  0.75022076  0.01077851  1
  O  O222  1  0.38315530  0.76144245  0.49966224  1
  O  O223  1  0.85407327  0.25200799  -0.01387433  1
  O  O224  1  0.86812561  0.25319495  0.50925999  1
  O  O225  1  0.87238150  0.75986557  0.00346920  1
  O  O226  1  0.87514992  0.75405258  0.51572205  1
  O  O227  1  0.12971026  0.24052535  0.49466955  1
  O  O228  1  0.13171944  0.23319210  0.99475627  1
  O  O229  1  0.11855808  0.75117940  0.48367831  1
  O  O230  1  0.13988654  0.74964523  1.00194688  1
  O  O231  1  0.63197873  0.24008142  0.49605193  1
  O  O232  1  0.62925904  0.24098443  0.99516571  1
  O  O233  1  0.62714493  0.74446790  0.49118353  1
  O  O234  1  0.62161126  0.73210188  1.00503220  1
  O  O235  1  0.48987554  0.26231861  0.12502222  1
  O  O236  1  0.49824661  0.23693277  0.62939529  1
  O  O237  1  0.49045757  0.74398065  0.13164895  1
  O  O238  1  0.50252556  0.73744501  0.63209243  1
  O  O239  1  0.98568445  0.23017015  0.07609945  1
  O  O240  1  0.99745517  0.23835378  0.63829868  1
  O  O241  1  1.00455802  0.73417087  0.12370032  1
  O  O242  1  0.99733865  0.74770435  0.63283837  1
  O  O243  1  0.01092847  0.25539888  0.38055064  1
  O  O244  1  -0.00224594  0.25740495  0.86673842  1
  O  O245  1  0.01112073  0.76312223  0.37403567  1
  O  O246  1  -0.00199137  0.75850344  0.86321249  1
  O  O247  1  0.49778898  0.26517494  0.37833555  1
  O  O248  1  0.50627840  0.25506236  0.86889451  1
  O  O249  1  0.50745842  0.75310310  0.36900390  1
  O  O250  1  0.49433673  0.76170411  0.86993721  1
  O  O251  1  0.24357586  0.12804415  0.49228202  1
  O  O252  1  0.24915635  0.12407822  0.98797977  1
  O  O253  1  0.25424715  0.62311930  0.50478253  1
  O  O254  1  0.24929647  0.63387454  0.98920011  1
  O  O255  1  0.74265587  0.12580947  0.49642862  1
  O  O256  1  0.73733754  0.13118389  1.00144393  1
  O  O257  1  0.74534369  0.62565172  0.49302447  1
  O  O258  1  0.74045498  0.62135931  1.00369456  1
  O  O259  1  0.25814634  0.38095144  0.00514985  1
  O  O260  1  0.25423037  0.36799813  0.50347189  1
  O  O261  1  0.25646284  0.86072331  -0.00493314  1
  O  O262  1  0.26029601  0.88080741  0.51252695  1
  O  O263  1  0.75018621  0.36859598  0.00823458  1
  O  O264  1  0.75717302  0.37028351  0.50437082  1
  O  O265  1  0.75472677  0.88075511  0.00902831  1
  O  O266  1  0.75386013  0.87499068  0.50441147  1
  O  O267  1  0.12770280  0.48885990  0.23833126  1
  O  O268  1  0.13019894  0.49272235  0.73971751  1
  O  O269  1  0.13735451  1.00890638  0.23685161  1
  O  O270  1  0.12823350  0.99882732  0.73910909  1
  O  O271  1  0.62295156  0.50451939  0.23979032  1
  O  O272  1  0.63181487  0.49039646  0.74654487  1
  O  O273  1  0.63499741  0.98984405  0.25898848  1
  O  O274  1  0.63196763  0.99581471  0.75494065  1
  O  O275  1  0.36298715  0.00954769  0.25246435  1
  O  O276  1  0.37836063  0.01178168  0.75933101  1
  O  O277  1  0.37354442  0.50627241  0.25669474  1
  O  O278  1  0.37016848  0.50584893  0.75692128  1
  O  O279  1  0.86661320  0.00758434  0.26138033  1
  O  O280  1  0.86784583  0.00737837  0.75900289  1
  O  O281  1  0.86803057  0.49977481  0.25047495  1
  O  O282  1  0.86070582  0.49024204  0.74999505  1
  O  O283  1  0.12904785  0.36337614  0.36159141  1
  O  O284  1  0.11600148  0.38135868  0.86090760  1
  O  O285  1  0.11723690  0.88097407  0.37825350  1
  O  O286  1  0.11372636  0.88551230  0.87617330  1
  O  O287  1  0.60799593  0.37722030  0.38368154  1
  O  O288  1  0.61773814  0.36558121  0.87251903  1
  O  O289  1  0.62189392  0.86298667  0.36728293  1
  O  O290  1  0.61183713  0.88298498  0.86703817  1
  O  O291  1  0.36854609  0.12498409  0.13930907  1
  O  O292  1  0.38098709  0.12426802  0.63369856  1
  O  O293  1  0.37982966  0.62909222  0.13204920  1
  O  O294  1  0.38813755  0.61506938  0.64111823  1
  O  O295  1  0.87186622  0.11872849  0.14178959  1
  O  O296  1  0.88387901  0.12783353  0.63439277  1
  O  O297  1  0.89154802  0.62304223  0.11845541  1
  O  O298  1  0.87626761  0.63792856  0.64682915  1
  O  O299  1  0.25558207  0.25992233  0.12393096  1
  O  O300  1  0.25063899  0.25527288  0.61912599  1
  O  O301  1  0.25569759  0.74153109  0.11213397  1
  O  O302  1  0.24191243  0.76477814  0.62447578  1
  O  O303  1  0.74397813  0.26130357  0.11788979  1
  O  O304  1  0.75417881  0.25430298  0.62160377  1
  O  O305  1  0.74866868  0.76481296  0.13237991  1
  O  O306  1  0.76039298  0.75556063  0.62733950  1
  O  O307  1  0.24090170  0.23863269  0.37844767  1
  O  O308  1  0.25515029  0.23657399  0.87216515  1
  O  O309  1  0.23369969  0.74523671  0.37275802  1
  O  O310  1  0.25903983  0.74315329  0.88733581  1
  O  O311  1  0.75129988  0.23604422  0.38318524  1
  O  O312  1  0.73797740  0.25113388  0.88086714  1
  O  O313  1  0.74362136  0.74222037  0.37399848  1
  O  O314  1  0.76253122  0.72283206  0.80267432  1
  O  O315  1  0.02790482  0.11025037  -0.02470401  1
  O  O316  1  0.00807923  0.13186290  0.51224388  1
  O  O317  1  0.00386757  0.61923426  0.00239428  1
  O  O318  1  -0.01396464  0.62513530  0.51959746  1
  O  O319  1  0.51281671  0.11925814  0.00058747  1
  O  O320  1  0.50465566  0.11843407  0.50507678  1
  O  O321  1  0.49853358  0.61414014  0.00485575  1
  O  O322  1  0.50589314  0.61883585  0.50928446  1
  O  O323  1  0.49209169  0.37955239  0.49521652  1
  O  O324  1  0.49548716  0.38856091  0.99361400  1
  O  O325  1  0.49571344  0.88048445  0.49889245  1
  O  O326  1  0.50112106  0.88286457  0.99578686  1
  O  O327  1  0.98362534  0.37160561  0.50836645  1
  O  O328  1  1.00275279  0.38409124  0.98913488  1
  O  O329  1  0.99277993  0.87870218  0.48116087  1
  O  O330  1  0.98884698  0.87093610  0.98963302  1
  O  O331  1  0.49036755  0.49114350  0.37951044  1
  O  O332  1  0.49601885  0.49685398  0.88100897  1
  O  O333  1  0.49776461  0.99036984  0.38315780  1
  O  O334  1  0.49123921  0.99665643  0.88553075  1
  O  O335  1  1.00729985  0.48717698  0.38099209  1
  O  O336  1  1.00008268  0.49497420  0.87816520  1
  O  O337  1  0.99033796  0.99595937  0.37238367  1
  O  O338  1  0.98678355  0.98752838  0.86440213  1
  O  O339  1  0.01460150  0.00852383  0.13071259  1
  O  O340  1  0.00718842  0.01217557  0.63215439  1
  O  O341  1  0.00869292  0.50726125  0.11565394  1
  O  O342  1  0.00662345  0.51036722  0.62907024  1
  O  O343  1  0.49655385  -0.00560183  0.11555567  1
  O  O344  1  0.49633440  0.01100026  0.61958138  1
  O  O345  1  0.50634091  0.50223902  0.11868441  1
  O  O346  1  0.50831720  0.50826439  0.62275118  1
  O  O347  1  0.24118952  0.37582809  0.23737255  1
  O  O348  1  0.24366575  0.37891176  0.74671219  1
  O  O349  1  0.25365289  0.89259597  0.25723779  1
  O  O350  1  0.25130973  0.87678142  0.73890414  1
  O  O351  1  0.75118866  0.39029236  0.24720198  1
  O  O352  1  0.74400387  0.37777932  0.74426361  1
  O  O353  1  0.74209134  0.88294621  0.24678539  1
  O  O354  1  0.73740918  0.88748537  0.74957299  1
  O  O355  1  0.25686739  0.11896390  0.25619633  1
  O  O356  1  0.25969701  0.12327450  0.75994715  1
  O  O357  1  0.26051708  0.62203122  0.24974192  1
  O  O358  1  0.26141250  0.62058944  0.75744766  1
  O  O359  1  0.75570625  0.11802391  0.25835280  1
  O  O360  1  0.75717201  0.12200238  0.75532541  1
  O  O361  1  0.74810602  0.61121496  0.25866680  1
  O  O362  1  0.74818462  0.59686917  0.73570854  1
  O  O363  1  0.36427220  0.12162779  0.36774804  1
  O  O364  1  0.37013973  0.12074333  0.87119373  1
  O  O365  1  0.37554159  0.61517301  0.36720546  1
  O  O366  1  0.37118155  0.62035472  0.86618603  1
  O  O367  1  0.86990126  0.11821434  0.36798363  1
  O  O368  1  0.87577876  0.11800048  0.87259053  1
  O  O369  1  0.86721869  0.63168841  0.38269055  1
  O  O370  1  0.87951392  0.62314948  0.85850356  1
  O  O371  1  0.13018654  0.37738644  0.12489037  1
  O  O372  1  0.12810940  0.37843714  0.63545073  1
  O  O373  1  0.11850022  0.88938778  0.12186180  1
  O  O374  1  0.13425387  0.88407015  0.62132167  1
  O  O375  1  0.63864666  0.38965925  0.11855865  1
  O  O376  1  0.62867463  0.37793809  0.62928918  1
  O  O377  1  0.62890764  0.87136335  0.13768294  1
  O  O378  1  0.62175022  0.87549533  0.63912742  1
  O  O379  1  0.12895871  0.25380747  0.25683087  1
  O  O380  1  0.11730341  0.25796800  0.74725008  1
  O  O381  1  0.11741558  0.74848172  0.26679372  1
  O  O382  1  0.11353458  0.75432010  0.74895872  1
  O  O383  1  0.62096278  0.24321394  0.26250866  1
  O  O384  1  0.61980271  0.25340599  0.75698752  1
  O  O385  1  0.61913622  0.75396334  0.25602975  1
  O  O386  1  0.60812752  0.76217064  0.75100191  1
  O  O387  1  0.37472376  0.23437935  0.25075694  1
  O  O388  1  0.38237914  0.23883413  0.74903513  1
  O  O389  1  0.37557504  0.74281996  0.24607433  1
  O  O390  1  0.38657026  0.74193400  0.75185320  1
  O  O391  1  0.86764317  0.23600574  0.25411483  1
  O  O392  1  0.88245162  0.24211692  0.74763082  1
  O  O393  1  0.88422969  0.75298240  0.24209136  1
  O  O394  1  0.89162462  0.75840435  0.74028854  1
  O  O395  1  0.38318029  0.49277672  0.49279726  1
  O  O396  1  0.38220392  0.49452547  0.99359545  1
  O  O397  1  0.38721804  0.99382955  0.49776494  1
  O  O398  1  0.38308443  0.99903039  0.99669083  1
  O  O399  1  0.87502897  0.48519325  0.51212007  1
  O  O400  1  0.88753812  0.49690804  0.99548969  1
  O  O401  1  0.87238117  1.00758530  0.48185202  1
  O  O402  1  0.86847143  0.99506260  0.98977415  1
  O  O403  1  0.13949190  0.00826169  0.01753274  1
  O  O404  1  0.12817244  0.01382531  0.51094549  1
  O  O405  1  0.11531440  0.50237437  0.00428329  1
  O  O406  1  0.12097969  0.48868205  0.51539756  1
  O  O407  1  0.61909182  0.01648489  -0.00351875  1
  O  O408  1  0.61145706  0.00503168  0.49699459  1
  O  O409  1  0.61791645  0.50836797  0.00877170  1
  O  O410  1  0.62094475  0.50637736  0.50626184  1
  O  O411  1  0.36251914  0.38026994  0.11431173  1
  O  O412  1  0.36796669  0.37348878  0.61805842  1
  O  O413  1  0.37610831  0.86078425  0.12819574  1
  O  O414  1  0.36169191  0.87765315  0.61963409  1
  O  O415  1  0.85950743  0.38137549  0.12169963  1
  O  O416  1  0.86836548  0.36557063  0.61942002  1
  O  O417  1  0.86738081  0.87887700  0.11505047  1
  O  O418  1  0.87543064  0.87285132  0.62474245  1
  O  O419  1  0.12670566  0.12873563  0.38095020  1
  O  O420  1  0.14662626  0.11519828  0.88014427  1
  O  O421  1  0.12611996  0.63009040  0.37442480  1
  O  O422  1  0.13865586  0.62203123  0.87200365  1
  O  O423  1  0.63335424  0.12143964  0.38800590  1
  O  O424  1  0.62470795  0.13707712  0.87870457  1
  O  O425  1  0.62679082  0.63497327  0.37950093  1
  O  O426  1  0.62528541  0.62076069  0.89149969  1
