# generated using pymatgen
data_V85Zn86O256
_symmetry_space_group_name_H-M   'P 1'
_cell_length_a   16.94369664
_cell_length_b   16.94529185
_cell_length_c   16.94804856
_cell_angle_alpha   90.03714466
_cell_angle_beta   90.08416390
_cell_angle_gamma   89.97243251
_symmetry_Int_Tables_number   1
_chemical_formula_structural   V85Zn86O256
_chemical_formula_sum   'V85 Zn86 O256'
_cell_volume   4866.04712112
_cell_formula_units_Z   1
loop_
 _symmetry_equiv_pos_site_id
 _symmetry_equiv_pos_as_xyz
  1  'x, y, z'
loop_
 _atom_site_type_symbol
 _atom_site_label
 _atom_site_symmetry_multiplicity
 _atom_site_fract_x
 _atom_site_fract_y
 _atom_site_fract_z
 _atom_site_occupancy
  V  V0  1  -0.00205806  0.87010388  0.86251699  1
  V  V1  1  0.69850285  0.43888533  0.19157054  1
  V  V2  1  0.74787003  0.00185413  0.75104623  1
  V  V3  1  0.75416982  0.86330461  0.12691714  1
  V  V4  1  0.37525343  0.25217153  0.12600207  1
  V  V5  1  0.11470970  0.36949237  0.25723283  1
  V  V6  1  0.61964915  0.38133068  0.74759716  1
  V  V7  1  0.24902043  0.87550322  0.12362808  1
  V  V8  1  0.86230221  0.50871755  0.37606015  1
  V  V9  1  0.62545898  0.12781893  -0.00004849  1
  V  V10  1  0.49618725  0.24763011  0.74916846  1
  V  V11  1  0.25451566  0.87615852  0.63472103  1
  V  V12  1  0.38067249  0.13052481  0.25116533  1
  V  V13  1  0.61866568  0.25300789  0.36186075  1
  V  V14  1  0.87481985  0.38050341  -0.00231858  1
  V  V15  1  0.62282635  0.87260771  0.25099016  1
  V  V16  1  0.87715404  0.86680303  0.00366207  1
  V  V17  1  0.74143308  0.38165697  0.62524849  1
  V  V18  1  0.36861203  0.62775067  0.25579719  1
  V  V19  1  -0.00103152  -0.00029052  -0.00288023  1
  V  V20  1  0.87301179  0.37679111  0.50010244  1
  V  V21  1  0.12030688  0.74546479  0.86363814  1
  V  V22  1  0.24651536  0.37433414  0.62731709  1
  V  V23  1  0.37455067  0.75213744  0.11743260  1
  V  V24  1  0.13146178  0.62382858  0.49151638  1
  V  V25  1  0.37560349  0.37295503  0.50042148  1
  V  V26  1  0.37509631  0.00020115  0.37247362  1
  V  V27  1  0.24276780  0.50545889  0.25827706  1
  V  V28  1  0.49244701  0.38378857  0.88385503  1
  V  V29  1  0.25235686  0.50481488  0.75555621  1
  V  V30  1  0.87374018  0.49519877  0.87239564  1
  V  V31  1  0.87388765  0.25362434  0.12628468  1
  V  V32  1  0.49426164  0.00626839  0.50631744  1
  V  V33  1  0.74363680  0.62833759  0.87374947  1
  V  V34  1  0.25048109  0.10645678  0.87077462  1
  V  V35  1  0.87740768  0.12826230  0.75151784  1
  V  V36  1  0.74748590  0.12222668  0.37726905  1
  V  V37  1  -0.01313700  0.62975324  0.12570328  1
  V  V38  1  0.74916931  0.25688754  0.00234828  1
  V  V39  1  0.62495597  0.87007265  0.75765877  1
  V  V40  1  0.62884494  0.61473548  0.49027365  1
  V  V41  1  0.00835196  0.25658713  0.76163257  1
  V  V42  1  0.86510220  0.63075500  0.25537942  1
  V  V43  1  0.62527200  0.00052406  0.12609571  1
  V  V44  1  0.23949046  0.13155426  0.37216822  1
  V  V45  1  0.50212790  0.13306489  0.12594878  1
  V  V46  1  0.74945995  0.12790733  0.87633063  1
  V  V47  1  0.87486714  -0.00032000  0.87609580  1
  V  V48  1  0.37667204  0.50222441  0.37696709  1
  V  V49  1  0.75025224  -0.00199572  0.25100577  1
  V  V50  1  0.37390427  0.11358645  0.75421261  1
  V  V51  1  0.12481073  0.12985599  -0.00666685  1
  V  V52  1  0.23553283  0.24919621  0.49496334  1
  V  V53  1  0.61869212  0.00639256  0.62695163  1
  V  V54  1  0.88431955  0.88238292  0.50172772  1
  V  V55  1  0.37565222  0.61958569  0.75954673  1
  V  V56  1  0.87307629  0.12519474  0.24975030  1
  V  V57  1  0.24702383  0.74601523  -0.00873061  1
  V  V58  1  0.74042896  0.74846065  -0.00529000  1
  V  V59  1  -0.00349884  0.75318446  0.25098949  1
  V  V60  1  0.74850889  0.87619330  0.62519629  1
  V  V61  1  0.00746326  0.12555996  0.61273486  1
  V  V62  1  0.00062561  0.50148402  0.49894380  1
  V  V63  1  0.37266265  0.23504804  0.62418060  1
  V  V64  1  0.88006160  0.62620444  0.75010290  1
  V  V65  1  0.38156550  0.74193354  0.62453922  1
  V  V66  1  0.87442779  0.25153165  0.62764617  1
  V  V67  1  0.24581253  0.37420065  0.12789058  1
  V  V68  1  0.49468384  -0.00054297  -0.00598557  1
  V  V69  1  0.24982096  0.25304307  -0.01090241  1
  V  V70  1  0.74719864  0.74966864  0.49477262  1
  V  V71  1  0.50674033  0.74504565  0.76070908  1
  V  V72  1  0.05623091  0.44295997  -0.05866009  1
  V  V73  1  0.51084267  0.61362192  0.62579592  1
  V  V74  1  0.87733514  0.75144259  0.62865562  1
  V  V75  1  0.11734587  0.62926255  -0.00131266  1
  V  V76  1  0.12554600  0.87733859  0.25112586  1
  V  V77  1  0.00170425  0.12369205  0.12583698  1
  V  V78  1  0.49966845  0.74444870  0.24914878  1
  V  V79  1  0.74286849  0.24918974  0.50181240  1
  V  V80  1  0.49769349  0.61078575  0.11574626  1
  V  V81  1  0.00342756  0.63090378  0.62417582  1
  V  V82  1  0.11057522  0.50077206  0.13067121  1
  V  V83  1  0.25571923  0.74479074  0.49245969  1
  V  V84  1  0.37830945  0.87170073  0.49925873  1
  Zn  Zn85  1  0.11827059  0.00005964  0.62372617  1
  Zn  Zn86  1  0.50702194  0.49229216  0.50261216  1
  Zn  Zn87  1  0.12952875  0.74834301  0.37327018  1
  Zn  Zn88  1  0.49435066  0.36094814  0.36148377  1
  Zn  Zn89  1  0.12650640  0.50016947  0.62475232  1
  Zn  Zn90  1  0.13323081  0.88192508  0.75304976  1
  Zn  Zn91  1  0.60995012  0.61718842  -0.00718461  1
  Zn  Zn92  1  0.36665415  0.88258160  -0.00978467  1
  Zn  Zn93  1  -0.00143135  0.37180724  0.37890990  1
  Zn  Zn94  1  0.38226594  0.38772777  0.00733300  1
  Zn  Zn95  1  0.61781257  0.12551012  0.50381779  1
  Zn  Zn96  1  0.50145650  0.87374087  0.37562178  1
  Zn  Zn97  1  0.25124169  0.00214733  0.24717457  1
  Zn  Zn98  1  0.74637055  0.50313209  0.74500683  1
  Zn  Zn99  1  0.12421562  0.37794057  0.76119356  1
  Zn  Zn100  1  0.00448960  0.24238077  0.25969718  1
  Zn  Zn101  1  0.49888899  0.86988183  0.87790510  1
  Zn  Zn102  1  0.62834130  0.74423282  0.37196445  1
  Zn  Zn103  1  0.12704207  0.00072988  0.12282356  1
  Zn  Zn104  1  0.00771021  0.87975037  0.38218313  1
  Zn  Zn105  1  0.62109245  0.25377720  0.87590125  1
  Zn  Zn106  1  0.88364463  0.00507690  0.38206884  1
  Zn  Zn107  1  0.18961646  0.18768975  0.18637690  1
  Zn  Zn108  1  0.18669898  0.18825287  0.69177357  1
  Zn  Zn109  1  0.18255108  0.68934209  0.18535879  1
  Zn  Zn110  1  0.19148229  0.68818210  0.68199537  1
  Zn  Zn111  1  0.69027727  0.19239525  0.18685411  1
  Zn  Zn112  1  0.68405294  0.19128571  0.68996914  1
  Zn  Zn113  1  0.68047920  0.67878220  0.18491317  1
  Zn  Zn114  1  0.69005569  0.68718213  0.68381690  1
  Zn  Zn115  1  0.30907536  0.31473543  0.31105351  1
  Zn  Zn116  1  0.31504973  0.31477828  0.81132581  1
  Zn  Zn117  1  0.31300850  0.81400974  0.31128259  1
  Zn  Zn118  1  0.32189256  0.80620037  0.81684058  1
  Zn  Zn119  1  0.81445031  0.31371085  0.31536505  1
  Zn  Zn120  1  0.81063171  0.31454861  0.81247924  1
  Zn  Zn121  1  0.81456112  0.81228045  0.31662234  1
  Zn  Zn122  1  0.81298848  0.81156782  0.81201159  1
  Zn  Zn123  1  0.18884500  0.43736407  0.43781925  1
  Zn  Zn124  1  0.23604482  0.46547264  0.95701870  1
  Zn  Zn125  1  0.18789002  0.93762409  0.44021314  1
  Zn  Zn126  1  0.18163818  0.93462575  0.93806171  1
  Zn  Zn127  1  0.68723730  0.43429746  0.43050870  1
  Zn  Zn128  1  0.68164263  0.43973449  0.93454082  1
  Zn  Zn129  1  0.68611579  0.93666710  0.43964754  1
  Zn  Zn130  1  0.68558730  0.93844780  0.93939416  1
  Zn  Zn131  1  0.31238159  0.06509310  0.06155134  1
  Zn  Zn132  1  0.27678049  0.04688242  0.54674877  1
  Zn  Zn133  1  0.30162943  0.56897205  0.07826663  1
  Zn  Zn134  1  0.31391543  0.56052154  0.56662576  1
  Zn  Zn135  1  0.81170266  0.06052727  0.06327019  1
  Zn  Zn136  1  0.81094145  0.06496311  0.56634371  1
  Zn  Zn137  1  0.76950735  0.54052207  0.05000367  1
  Zn  Zn138  1  0.81094053  0.56483496  0.56133411  1
  Zn  Zn139  1  0.43342267  0.43488936  0.19021657  1
  Zn  Zn140  1  0.43356601  0.43380140  0.68646247  1
  Zn  Zn141  1  0.43825826  0.93917642  0.18399916  1
  Zn  Zn142  1  0.43732090  0.93212280  0.68909001  1
  Zn  Zn143  1  0.90457536  0.45434506  0.17537153  1
  Zn  Zn144  1  0.93864369  0.43791900  0.68647261  1
  Zn  Zn145  1  0.93703306  0.93911278  0.18915120  1
  Zn  Zn146  1  0.93879039  0.94358580  0.68587265  1
  Zn  Zn147  1  0.06015095  0.05574368  0.31440742  1
  Zn  Zn148  1  0.06631147  0.06219141  0.80522324  1
  Zn  Zn149  1  0.05360801  0.56316074  0.31453761  1
  Zn  Zn150  1  0.06752762  0.56749566  0.80499707  1
  Zn  Zn151  1  0.56057705  0.06409116  0.31433825  1
  Zn  Zn152  1  0.56137021  0.06580905  0.81215695  1
  Zn  Zn153  1  0.55038966  0.52100190  0.28735165  1
  Zn  Zn154  1  0.56296891  0.55911009  0.81158838  1
  Zn  Zn155  1  0.43324053  0.18642348  0.44012693  1
  Zn  Zn156  1  0.43436780  0.19092341  0.93575580  1
  Zn  Zn157  1  0.44450878  0.68148804  0.43530496  1
  Zn  Zn158  1  0.42330601  0.55960470  0.94104760  1
  Zn  Zn159  1  0.93474128  0.19203515  0.43630892  1
  Zn  Zn160  1  0.93690049  0.19005159  0.93794444  1
  Zn  Zn161  1  0.94063704  0.69372268  0.43715884  1
  Zn  Zn162  1  0.93534364  0.68687121  0.93786368  1
  Zn  Zn163  1  0.06407036  0.30643473  0.06974208  1
  Zn  Zn164  1  0.06055996  0.31217014  0.56618133  1
  Zn  Zn165  1  0.06044004  0.81097571  0.06379453  1
  Zn  Zn166  1  0.06930061  0.80924981  0.56521207  1
  Zn  Zn167  1  0.56866151  0.32081599  0.06950684  1
  Zn  Zn168  1  0.55746696  0.30991003  0.56403486  1
  Zn  Zn169  1  0.56305500  0.80963011  0.06354299  1
  Zn  Zn170  1  0.56294296  0.81267058  0.56577413  1
  O  O171  1  0.11748192  0.12303696  0.11843937  1
  O  O172  1  0.10957381  0.13231681  0.62657421  1
  O  O173  1  0.11354870  0.61744170  0.12070487  1
  O  O174  1  0.11693671  0.62538979  0.61558277  1
  O  O175  1  0.61838062  0.12409786  0.12105355  1
  O  O176  1  0.62943027  0.11048010  0.62668009  1
  O  O177  1  0.59987198  0.63133760  0.12025896  1
  O  O178  1  0.61622639  0.62658358  0.61844558  1
  O  O179  1  0.37566418  0.38178194  0.38152292  1
  O  O180  1  0.38903768  0.37456056  0.87978745  1
  O  O181  1  0.37666937  0.88402006  0.37899117  1
  O  O182  1  0.38509263  0.86993230  0.88040349  1
  O  O183  1  0.87372819  0.39005170  0.38361691  1
  O  O184  1  0.87503371  0.38741027  0.87757398  1
  O  O185  1  0.87434145  0.87510708  0.39483538  1
  O  O186  1  0.88043327  0.87957314  0.88164082  1
  O  O187  1  0.26360187  0.00970907  0.37152285  1
  O  O188  1  0.25047286  0.00811814  0.87922700  1
  O  O189  1  0.25699833  0.49777964  0.36458222  1
  O  O190  1  0.24527708  0.50773048  0.85434152  1
  O  O191  1  0.74957831  0.00793533  0.37073528  1
  O  O192  1  0.75400427  0.00699422  0.87102164  1
  O  O193  1  0.76373849  0.50613424  0.38441267  1
  O  O194  1  0.76093288  0.50805206  0.86648925  1
  O  O195  1  0.23212648  0.49565751  0.13813037  1
  O  O196  1  0.24947543  0.48907749  0.63114239  1
  O  O197  1  0.25098275  0.98817796  0.12332575  1
  O  O198  1  0.27607510  0.97385258  0.63755643  1
  O  O199  1  0.78490031  0.47895744  0.14374922  1
  O  O200  1  0.75734339  0.48500072  0.62616200  1
  O  O201  1  0.74303598  0.99155319  0.13056470  1
  O  O202  1  0.74337086  0.99535628  0.63317032  1
  O  O203  1  0.01260034  0.37830878  0.24847826  1
  O  O204  1  0.00330886  0.36209043  0.74401182  1
  O  O205  1  0.00844659  0.86925646  0.24678290  1
  O  O206  1  -0.00420232  0.87559688  0.76043469  1
  O  O207  1  0.51193444  0.41246917  0.26309841  1
  O  O208  1  0.50145325  0.36943312  0.75820048  1
  O  O209  1  0.50774869  0.86659109  0.24761610  1
  O  O210  1  0.50937272  0.86294810  0.74848253  1
  O  O211  1  0.48952102  0.12211278  0.24066276  1
  O  O212  1  0.49121409  0.14020937  0.75918652  1
  O  O213  1  0.48926475  0.62778217  0.24006794  1
  O  O214  1  0.49784801  0.62613526  0.74222110  1
  O  O215  1  0.99272589  0.12284173  0.24110951  1
  O  O216  1  0.99301759  0.13887315  0.74560901  1
  O  O217  1  0.99527699  0.63613501  0.24625901  1
  O  O218  1  0.98870760  0.62202334  0.73945277  1
  O  O219  1  0.36685000  0.25078187  0.01178665  1
  O  O220  1  0.36937102  0.25664133  0.50766817  1
  O  O221  1  0.36167214  0.74896831  0.01370796  1
  O  O222  1  0.37564122  0.74930436  0.50469657  1
  O  O223  1  0.87071141  0.25931740  0.00377020  1
  O  O224  1  0.86047894  0.25469990  0.50832358  1
  O  O225  1  0.86818740  0.76375618  -0.00259067  1
  O  O226  1  0.86857445  0.75672860  0.51075525  1
  O  O227  1  0.13645070  0.25573091  0.50063897  1
  O  O228  1  0.13314179  0.23714997  1.00540757  1
  O  O229  1  0.13763368  0.74193171  0.49859501  1
  O  O230  1  0.12794268  0.74451515  0.99339498  1
  O  O231  1  0.63383397  0.24456109  0.50322511  1
  O  O232  1  0.63424764  0.24694720  1.00099328  1
  O  O233  1  0.63222574  0.74483965  0.49952409  1
  O  O234  1  0.63688935  0.74448366  1.00108125  1
  O  O235  1  0.49422067  0.24061227  0.11778757  1
  O  O236  1  0.48581319  0.25372091  0.63593967  1
  O  O237  1  0.48935755  0.74842877  0.13276938  1
  O  O238  1  0.49427312  0.73957086  0.62914865  1
  O  O239  1  0.99313870  0.23622634  0.12810906  1
  O  O240  1  0.99030795  0.24430188  0.63194677  1
  O  O241  1  1.00389977  0.74142334  0.13649902  1
  O  O242  1  0.99323149  0.73879461  0.61972506  1
  O  O243  1  -0.01012826  0.25914405  0.36976908  1
  O  O244  1  -0.00560813  0.25050341  0.85989605  1
  O  O245  1  0.00674371  0.75907933  0.36755957  1
  O  O246  1  0.00690791  0.75915604  0.87961227  1
  O  O247  1  0.51369010  0.24415219  0.37869596  1
  O  O248  1  0.49916583  0.26163462  0.86820046  1
  O  O249  1  0.49970632  0.75068079  0.35917442  1
  O  O250  1  0.50704044  0.74613037  0.85908110  1
  O  O251  1  0.26197596  0.13961413  0.48191973  1
  O  O252  1  0.24469790  0.12955020  0.98971506  1
  O  O253  1  0.24290745  0.63098139  0.50698806  1
  O  O254  1  0.22989655  0.63529283  1.01160709  1
  O  O255  1  0.74722391  0.13122904  0.49368086  1
  O  O256  1  0.74704163  0.13335478  0.99530532  1
  O  O257  1  0.73547329  0.63393730  0.50989496  1
  O  O258  1  0.76621766  0.63906145  0.98707207  1
  O  O259  1  0.24751010  0.36589104  0.01129415  1
  O  O260  1  0.25775778  0.36884702  0.50508912  1
  O  O261  1  0.24682025  0.86622298  0.00705341  1
  O  O262  1  0.26214182  0.86267303  0.51084433  1
  O  O263  1  0.76026209  0.36288748  -0.00950563  1
  O  O264  1  0.75208504  0.36755847  0.50667225  1
  O  O265  1  0.75443956  0.86867671  0.00592039  1
  O  O266  1  0.75525043  0.86862571  0.50815455  1
  O  O267  1  0.12536601  0.49648583  0.24681738  1
  O  O268  1  0.13581683  0.49886764  0.74321029  1
  O  O269  1  0.12859698  0.98836696  0.24365528  1
  O  O270  1  0.12226259  0.99409531  0.73826069  1
  O  O271  1  0.65035795  0.51895682  0.23472923  1
  O  O272  1  0.62588585  0.48603019  0.74869299  1
  O  O273  1  0.62854414  0.99253761  0.24609343  1
  O  O274  1  0.62788070  0.99517705  0.74516924  1
  O  O275  1  0.37556497  0.00813393  0.25589819  1
  O  O276  1  0.39112712  0.01563171  0.75126906  1
  O  O277  1  0.36167292  0.50875428  0.25594485  1
  O  O278  1  0.36294170  0.50475611  0.74443823  1
  O  O279  1  0.86562036  0.00679692  0.25165978  1
  O  O280  1  0.86787120  0.00743163  0.75609262  1
  O  O281  1  0.88413754  0.51449491  0.27022956  1
  O  O282  1  0.87514596  0.50712669  0.75600229  1
  O  O283  1  0.12231395  0.38212490  0.36016801  1
  O  O284  1  0.11985008  0.39265314  0.88503515  1
  O  O285  1  0.13021781  0.87366628  0.36563116  1
  O  O286  1  0.11517151  0.86562174  0.87265090  1
  O  O287  1  0.61979829  0.35496922  0.38538820  1
  O  O288  1  0.61280331  0.37486758  0.86754485  1
  O  O289  1  0.62438670  0.87271842  0.36181849  1
  O  O290  1  0.62265795  0.88040866  0.86153686  1
  O  O291  1  0.38138739  0.13225555  0.13045282  1
  O  O292  1  0.36103476  0.13417409  0.63472943  1
  O  O293  1  0.37946156  0.63422700  0.13455308  1
  O  O294  1  0.38669058  0.62943958  0.62850168  1
  O  O295  1  0.88123466  0.13285825  0.12654038  1
  O  O296  1  0.87718784  0.13724384  0.63126709  1
  O  O297  1  0.88627872  0.61925872  0.13688538  1
  O  O298  1  0.88028741  0.63254934  0.62965920  1
  O  O299  1  0.25730630  0.25362275  0.11742833  1
  O  O300  1  0.25353996  0.25529024  0.61876125  1
  O  O301  1  0.25279962  0.75974726  0.11997519  1
  O  O302  1  0.26482485  0.75103632  0.61524507  1
  O  O303  1  0.76150720  0.24534799  0.11409129  1
  O  O304  1  0.75511668  0.25619243  0.62069932  1
  O  O305  1  0.74566184  0.75986775  0.11767445  1
  O  O306  1  0.75834998  0.75708805  0.61738536  1
  O  O307  1  0.25267323  0.24316291  0.38041131  1
  O  O308  1  0.25378724  0.25127912  0.88747803  1
  O  O309  1  0.25315056  0.75227825  0.38854028  1
  O  O310  1  0.24019279  0.75130367  0.88706541  1
  O  O311  1  0.74048779  0.24321560  0.38377756  1
  O  O312  1  0.74881578  0.24353798  0.88250526  1
  O  O313  1  0.74912723  0.75330439  0.39083081  1
  O  O314  1  0.75513347  0.74210651  0.88191434  1
  O  O315  1  0.00712841  0.12310168  0.00346800  1
  O  O316  1  -0.00725545  0.13285192  0.51494215  1
  O  O317  1  0.00703357  0.63165414  0.01108366  1
  O  O318  1  0.00688016  0.62080942  0.50550817  1
  O  O319  1  0.50405997  0.11857385  0.00535167  1
  O  O320  1  0.49753093  0.11065456  0.50010740  1
  O  O321  1  0.49166181  0.62463429  0.01039027  1
  O  O322  1  0.51452349  0.62329180  0.50831468  1
  O  O323  1  0.48581640  0.37488174  0.49878616  1
  O  O324  1  0.50049697  0.37226825  0.98807626  1
  O  O325  1  0.49452629  0.88225606  0.49770650  1
  O  O326  1  0.50589589  0.89069633  1.00355769  1
  O  O327  1  0.99098005  0.38469446  0.50562332  1
  O  O328  1  0.99972165  0.37563260  0.99641631  1
  O  O329  1  0.98727369  0.86969625  0.50703985  1
  O  O330  1  0.99227305  0.87973609  0.99552705  1
  O  O331  1  0.48221576  0.51049701  0.38366588  1
  O  O332  1  0.49837895  0.49024654  0.87868990  1
  O  O333  1  0.48942524  0.99921315  0.38161411  1
  O  O334  1  0.50779956  1.00228077  0.89274091  1
  O  O335  1  0.99363348  0.49734770  0.38984315  1
  O  O336  1  0.99779373  0.50098753  0.87853920  1
  O  O337  1  0.99592019  0.99259021  0.37708883  1
  O  O338  1  0.99436501  0.99329042  0.87941639  1
  O  O339  1  -0.00229414  0.01144202  0.11697142  1
  O  O340  1  -0.00382138  0.02063208  0.62487737  1
  O  O341  1  0.00577832  0.50747548  0.13116012  1
  O  O342  1  -0.00173807  0.51149998  0.61455241  1
  O  O343  1  0.50660279  0.01229339  0.11853305  1
  O  O344  1  0.50689086  -0.00667705  0.61782316  1
  O  O345  1  0.48665929  0.51236181  0.11962144  1
  O  O346  1  0.49371856  0.50928726  0.62149354  1
  O  O347  1  0.23842541  0.38416768  0.24600298  1
  O  O348  1  0.24856366  0.38416909  0.74506286  1
  O  O349  1  0.24369293  0.87555009  0.24083059  1
  O  O350  1  0.25365731  0.85597548  0.73681080  1
  O  O351  1  0.73900045  0.38015771  0.26375905  1
  O  O352  1  0.73843990  0.37288113  0.74192821  1
  O  O353  1  0.74580124  0.87588698  0.24394738  1
  O  O354  1  0.74447341  0.88055460  0.74549826  1
  O  O355  1  0.26288044  0.12543114  0.25349207  1
  O  O356  1  0.25560939  0.12833138  0.76479776  1
  O  O357  1  0.25502937  0.61771778  0.24263228  1
  O  O358  1  0.26063950  0.61263132  0.73673881  1
  O  O359  1  0.75328244  0.11982357  0.25692740  1
  O  O360  1  0.75567439  0.12364295  0.75710658  1
  O  O361  1  0.76647567  0.64319033  0.24854398  1
  O  O362  1  0.76197930  0.62551411  0.75409289  1
  O  O363  1  0.37317624  0.12090266  0.36451003  1
  O  O364  1  0.35946803  0.12864359  0.86996871  1
  O  O365  1  0.37375487  0.62150377  0.36283265  1
  O  O366  1  0.37874440  0.62632509  0.85877737  1
  O  O367  1  0.86070716  0.12529012  0.37126941  1
  O  O368  1  0.86900562  0.12004627  0.87215686  1
  O  O369  1  0.88007917  0.61767931  0.37253732  1
  O  O370  1  0.87419875  0.61639010  0.86628005  1
  O  O371  1  0.12516862  0.38371068  0.13334614  1
  O  O372  1  0.13768573  0.37541608  0.62656962  1
  O  O373  1  0.13228506  0.87586361  0.13102279  1
  O  O374  1  0.14429525  0.86953182  0.62773152  1
  O  O375  1  0.63918818  0.38257660  0.13024422  1
  O  O376  1  0.63116020  0.36914698  0.63197131  1
  O  O377  1  0.63224080  0.87773019  0.13547220  1
  O  O378  1  0.63032970  0.88518672  0.63390893  1
  O  O379  1  0.12355353  0.26621562  0.24178753  1
  O  O380  1  0.11293481  0.25564638  0.75285542  1
  O  O381  1  0.11868246  0.76010433  0.25198874  1
  O  O382  1  0.12893886  0.74654417  0.76150447  1
  O  O383  1  0.62524263  0.24683746  0.26318873  1
  O  O384  1  0.61313699  0.25944120  0.75104791  1
  O  O385  1  0.61627868  0.75426037  0.24978793  1
  O  O386  1  0.61982846  0.75930356  0.74054475  1
  O  O387  1  0.37242022  0.24573643  0.23681546  1
  O  O388  1  0.37886193  0.24468083  0.74319970  1
  O  O389  1  0.37837483  0.74473336  0.24213607  1
  O  O390  1  0.38513817  0.73777479  0.74087938  1
  O  O391  1  0.87187372  0.24411021  0.24034831  1
  O  O392  1  0.87988790  0.24875789  0.74319457  1
  O  O393  1  0.88846188  0.74731784  0.25719793  1
  O  O394  1  0.87183934  0.74389456  0.73636667  1
  O  O395  1  0.37026075  0.49084124  0.49200331  1
  O  O396  1  0.34469918  0.49942401  0.99796138  1
  O  O397  1  0.37776931  0.99306801  0.49305840  1
  O  O398  1  0.39143485  1.00075743  1.00710960  1
  O  O399  1  0.88111275  0.50063079  0.49356602  1
  O  O400  1  0.86889089  0.48615525  0.99238619  1
  O  O401  1  0.86748751  0.98458737  0.50497748  1
  O  O402  1  0.87805376  0.99170293  0.99363350  1
  O  O403  1  0.11717881  0.01061925  0.00134842  1
  O  O404  1  0.16853013  0.00738081  0.52295312  1
  O  O405  1  0.12281879  0.50343078  0.00401516  1
  O  O406  1  0.11877978  0.50544250  0.50268220  1
  O  O407  1  0.62023686  0.00844067  0.00826739  1
  O  O408  1  0.61467847  -0.00019954  0.50863352  1
  O  O409  1  0.66295641  0.51722114  0.01026328  1
  O  O410  1  0.62638480  0.51008681  0.49635483  1
  O  O411  1  0.36762998  0.36848623  0.12513326  1
  O  O412  1  0.36354637  0.36632958  0.61843138  1
  O  O413  1  0.36728022  0.86851941  0.12120635  1
  O  O414  1  0.37492314  0.85837769  0.62135446  1
  O  O415  1  0.88886266  0.36000431  0.11256229  1
  O  O416  1  0.86787241  0.36541881  0.62119161  1
  O  O417  1  0.86490205  0.88167338  0.11602657  1
  O  O418  1  0.87140131  0.87002891  0.61985359  1
  O  O419  1  0.14125874  0.12268619  0.36138463  1
  O  O420  1  0.13811058  0.12244344  0.88122541  1
  O  O421  1  0.12107129  0.62518362  0.38785146  1
  O  O422  1  0.11508770  0.63294825  0.88589773  1
  O  O423  1  0.63281016  0.13280027  0.37797287  1
  O  O424  1  0.63231606  0.12971144  0.88187926  1
  O  O425  1  0.62113986  0.62625607  0.39119840  1
  O  O426  1  0.63978008  0.62107777  0.87275573  1
