# generated using pymatgen
data_V85Zn86O256
_symmetry_space_group_name_H-M   'P 1'
_cell_length_a   16.97606785
_cell_length_b   16.99317780
_cell_length_c   17.00295522
_cell_angle_alpha   90.10692446
_cell_angle_beta   89.89853597
_cell_angle_gamma   90.00131076
_symmetry_Int_Tables_number   1
_chemical_formula_structural   V85Zn86O256
_chemical_formula_sum   'V85 Zn86 O256'
_cell_volume   4904.95105057
_cell_formula_units_Z   1
loop_
 _symmetry_equiv_pos_site_id
 _symmetry_equiv_pos_as_xyz
  1  'x, y, z'
loop_
 _atom_site_type_symbol
 _atom_site_label
 _atom_site_symmetry_multiplicity
 _atom_site_fract_x
 _atom_site_fract_y
 _atom_site_fract_z
 _atom_site_occupancy
  V  V0  1  0.75186514  0.12548765  0.37623718  1
  V  V1  1  0.37560691  -0.00614890  0.87785136  1
  V  V2  1  0.24731704  0.63192982  0.87076154  1
  V  V3  1  0.86757602  0.51301291  0.87243213  1
  V  V4  1  0.49232185  0.22900754  0.25545424  1
  V  V5  1  0.75238807  0.25408711  0.50072037  1
  V  V6  1  0.00463562  0.75372865  0.25427058  1
  V  V7  1  -0.00065936  0.37795930  0.87222483  1
  V  V8  1  0.37539054  0.12619978  0.75061236  1
  V  V9  1  0.87662751  0.75194785  0.12527420  1
  V  V10  1  0.88427892  -0.00052247  0.37811830  1
  V  V11  1  -0.00008512  0.62460147  0.62980890  1
  V  V12  1  0.12401221  0.63263322  -0.00462388  1
  V  V13  1  0.37934338  0.37831074  0.48289423  1
  V  V14  1  0.24979982  0.37661535  0.62531282  1
  V  V15  1  0.75380878  -0.00108751  0.24858207  1
  V  V16  1  0.38813169  0.73504163  0.11997607  1
  V  V17  1  0.75432888  0.51187684  0.74375472  1
  V  V18  1  0.49727566  -0.00036662  0.00181522  1
  V  V19  1  0.62494616  0.12385878  0.50217435  1
  V  V20  1  0.87278264  0.37722525  -0.00116273  1
  V  V21  1  0.39848203  0.62309866  0.74739355  1
  V  V22  1  0.62362364  0.87163319  0.75045869  1
  V  V23  1  0.74922910  0.38167588  0.12887818  1
  V  V24  1  0.50196797  0.37903300  0.87976900  1
  V  V25  1  0.12110643  0.12980384  -0.00699583  1
  V  V26  1  0.38534479  0.73967892  0.63052559  1
  V  V27  1  -0.00056938  0.50587920  0.49972653  1
  V  V28  1  0.61891988  0.12787168  0.00354732  1
  V  V29  1  0.63836147  0.37180768  0.74703540  1
  V  V30  1  0.87483131  0.74620909  0.63125172  1
  V  V31  1  0.37552778  0.25596017  0.62563204  1
  V  V32  1  0.62425954  0.25056236  0.88055822  1
  V  V33  1  0.87365953  0.62580980  0.24806053  1
  V  V34  1  -0.00714407  0.13197382  0.11981839  1
  V  V35  1  0.61945083  0.76160169  0.36807999  1
  V  V36  1  0.25399076  0.75395955  0.00569893  1
  V  V37  1  0.24983666  0.50314702  0.74963518  1
  V  V38  1  0.87634247  0.12402586  0.74787231  1
  V  V39  1  0.50131837  0.87001952  0.87647492  1
  V  V40  1  0.50145369  0.25278866  0.75067841  1
  V  V41  1  0.87638894  0.25158047  0.62258642  1
  V  V42  1  0.00248389  0.25112352  0.74917208  1
  V  V43  1  0.62320743  -0.00201168  0.62404532  1
  V  V44  1  0.38080821  0.24383323  0.12801961  1
  V  V45  1  0.13615919  0.74840360  0.37746716  1
  V  V46  1  0.12692555  -0.00061716  0.13631353  1
  V  V47  1  -0.00071731  0.37797437  0.37315200  1
  V  V48  1  0.37970149  0.50090389  0.87834591  1
  V  V49  1  0.25121430  0.25534297  0.00221302  1
  V  V50  1  0.00186391  0.25278699  0.24864437  1
  V  V51  1  -0.00040177  0.50309542  -0.00086621  1
  V  V52  1  0.74740838  0.25133999  0.00462123  1
  V  V53  1  0.00271174  0.74690940  0.75622990  1
  V  V54  1  0.87395180  0.87621870  0.00277861  1
  V  V55  1  0.13089253  0.25116253  0.37429411  1
  V  V56  1  0.62514600  0.61915132  0.01392453  1
  V  V57  1  0.60599176  0.37675831  0.25338100  1
  V  V58  1  0.38378103  0.62359696  0.26055651  1
  V  V59  1  0.50182247  0.12853636  0.62472465  1
  V  V60  1  0.62553518  0.00365551  0.12404329  1
  V  V61  1  0.62734321  0.74114911  0.87297839  1
  V  V62  1  0.12883777  0.50284721  0.12381995  1
  V  V63  1  0.25222441  0.12519618  0.87553809  1
  V  V64  1  0.87549528  0.37461140  0.50239012  1
  V  V65  1  0.87382907  -0.00098184  0.87386584  1
  V  V66  1  0.01090091  0.12337299  0.62249631  1
  V  V67  1  0.74911732  0.00098655  0.75066364  1
  V  V68  1  0.87480686  0.87120838  0.50256060  1
  V  V69  1  0.12464490  -0.01249933  0.63199709  1
  V  V70  1  0.87655354  0.12812956  0.25096667  1
  V  V71  1  0.73799158  0.50169706  0.24594286  1
  V  V72  1  0.24817143  0.50931275  0.26793305  1
  V  V73  1  0.75008920  0.74626567  -0.00468100  1
  V  V74  1  0.13090211  0.86690171  0.76447795  1
  V  V75  1  -0.00041431  0.00058773  -0.00542021  1
  V  V76  1  0.86915807  0.50184764  0.37617638  1
  V  V77  1  0.74241695  0.62934888  0.37758830  1
  V  V78  1  0.74863125  0.12604148  0.87588572  1
  V  V79  1  0.47521662  0.87919753  0.36144216  1
  V  V80  1  0.14154909  0.08975513  0.46375692  1
  V  V81  1  0.25336683  -0.00604079  0.74259738  1
  V  V82  1  0.29249231  0.92286522  0.15894682  1
  V  V83  1  0.37391769  0.87937145  0.52732793  1
  V  V84  1  0.73833709  0.74706899  0.50414415  1
  Zn  Zn85  1  0.12503334  0.37963968  0.24724420  1
  Zn  Zn86  1  0.50302249  0.50075294  0.50071285  1
  Zn  Zn87  1  0.44800760  0.02973457  0.45857071  1
  Zn  Zn88  1  -0.00274766  -0.00519488  0.50732148  1
  Zn  Zn89  1  0.62381162  0.87650862  0.24681921  1
  Zn  Zn90  1  0.00344088  0.87212763  0.37622242  1
  Zn  Zn91  1  0.13990269  0.61884738  0.49444378  1
  Zn  Zn92  1  0.12436400  0.37773159  0.74873452  1
  Zn  Zn93  1  0.12600232  0.50260239  0.62436008  1
  Zn  Zn94  1  0.62344238  0.51283510  0.61851891  1
  Zn  Zn95  1  0.61480299  0.24934738  0.37773924  1
  Zn  Zn96  1  0.75036659  0.87573983  0.12489605  1
  Zn  Zn97  1  0.24841783  0.37510258  0.12944867  1
  Zn  Zn98  1  0.37599041  0.38134495  0.00751858  1
  Zn  Zn99  1  0.00088643  0.62677465  0.12510852  1
  Zn  Zn100  1  0.25340906  0.74535119  0.51288115  1
  Zn  Zn101  1  0.87313373  0.25595776  0.12662630  1
  Zn  Zn102  1  0.12801121  0.25611867  0.87304833  1
  Zn  Zn103  1  0.00361754  0.86832097  0.87795136  1
  Zn  Zn104  1  0.48153581  0.53212618  0.04372319  1
  Zn  Zn105  1  0.75022820  0.87493939  0.62755373  1
  Zn  Zn106  1  0.24319348  0.25060176  0.49825944  1
  Zn  Zn107  1  0.18456828  0.17955895  0.18061169  1
  Zn  Zn108  1  0.18907909  0.18753061  0.69019478  1
  Zn  Zn109  1  0.18674059  0.68707455  0.18704043  1
  Zn  Zn110  1  0.18995906  0.68858280  0.68047507  1
  Zn  Zn111  1  0.68245844  0.19128187  0.18728875  1
  Zn  Zn112  1  0.68959540  0.19172685  0.68699169  1
  Zn  Zn113  1  0.68853929  0.69135073  0.18684048  1
  Zn  Zn114  1  0.68741735  0.68771636  0.68990523  1
  Zn  Zn115  1  0.30839421  0.31498081  0.30440089  1
  Zn  Zn116  1  0.31293766  0.31599832  0.81327171  1
  Zn  Zn117  1  0.30393859  0.80336461  0.29366419  1
  Zn  Zn118  1  0.31762975  0.80893355  0.80764617  1
  Zn  Zn119  1  0.81129745  0.31444459  0.31500412  1
  Zn  Zn120  1  0.81540155  0.31183260  0.81470478  1
  Zn  Zn121  1  0.81364396  0.81386421  0.31456189  1
  Zn  Zn122  1  0.81266551  0.81246462  0.81365973  1
  Zn  Zn123  1  0.18509223  0.43371154  0.44045904  1
  Zn  Zn124  1  0.18754259  0.44223620  0.93681360  1
  Zn  Zn125  1  0.18991940  0.91967625  0.43956295  1
  Zn  Zn126  1  0.19113913  0.94050527  0.94720772  1
  Zn  Zn127  1  0.65352363  0.45463836  0.41657684  1
  Zn  Zn128  1  0.68814042  0.43986108  0.93747180  1
  Zn  Zn129  1  0.69184617  0.93828380  0.44130949  1
  Zn  Zn130  1  0.68702815  0.93564528  0.93770934  1
  Zn  Zn131  1  0.31285026  0.06628347  0.06443636  1
  Zn  Zn132  1  0.31480659  0.07959801  0.54482651  1
  Zn  Zn133  1  0.30731775  0.56811205  0.06310065  1
  Zn  Zn134  1  0.31851104  0.56031474  0.55944137  1
  Zn  Zn135  1  0.81064118  0.06398614  0.06154517  1
  Zn  Zn136  1  0.81279525  0.06413361  0.56407477  1
  Zn  Zn137  1  0.80902176  0.56526244  0.06131814  1
  Zn  Zn138  1  0.80936562  0.56661690  0.56426978  1
  Zn  Zn139  1  0.42603321  0.43814773  0.19588343  1
  Zn  Zn140  1  0.44473366  0.44038961  0.68455100  1
  Zn  Zn141  1  0.45027992  0.92875599  0.17821037  1
  Zn  Zn142  1  0.44390924  0.93866753  0.68863372  1
  Zn  Zn143  1  0.93607441  0.44174383  0.18623865  1
  Zn  Zn144  1  0.93369085  0.43896345  0.68747965  1
  Zn  Zn145  1  0.95809855  0.94799177  0.19478965  1
  Zn  Zn146  1  0.94009139  0.93094059  0.69026805  1
  Zn  Zn147  1  0.14200858  0.04753021  0.29889935  1
  Zn  Zn148  1  0.06371976  0.06165652  0.81013302  1
  Zn  Zn149  1  0.06255224  0.56890807  0.31322221  1
  Zn  Zn150  1  0.06348208  0.56371709  0.81109973  1
  Zn  Zn151  1  0.56606076  0.05972523  0.31267748  1
  Zn  Zn152  1  0.56129747  0.06272745  0.81333636  1
  Zn  Zn153  1  0.53619349  0.58526061  0.35760579  1
  Zn  Zn154  1  0.57225087  0.55543884  0.81725212  1
  Zn  Zn155  1  0.42724099  0.19704776  0.43783184  1
  Zn  Zn156  1  0.43668974  0.18871676  0.93997210  1
  Zn  Zn157  1  0.42899971  0.69836908  0.43654914  1
  Zn  Zn158  1  0.44036137  0.68741377  0.93508182  1
  Zn  Zn159  1  0.95087420  0.18257864  0.43854929  1
  Zn  Zn160  1  0.93318364  0.19289029  0.93341594  1
  Zn  Zn161  1  0.93476558  0.68759666  0.43780861  1
  Zn  Zn162  1  0.93665798  0.68788187  0.93744474  1
  Zn  Zn163  1  0.06324153  0.31746415  0.06071770  1
  Zn  Zn164  1  0.06364333  0.31638919  0.56092892  1
  Zn  Zn165  1  0.06335371  0.81366183  0.06421762  1
  Zn  Zn166  1  0.06393631  0.80945360  0.56286351  1
  Zn  Zn167  1  0.54035812  0.35405371  0.08760684  1
  Zn  Zn168  1  0.58105497  0.34247893  0.54621024  1
  Zn  Zn169  1  0.56547560  0.81635114  0.05878202  1
  Zn  Zn170  1  0.55822076  0.67408430  0.55576432  1
  O  O171  1  0.10485306  0.12509383  0.10518690  1
  O  O172  1  0.11313563  0.11139416  0.64388803  1
  O  O173  1  0.12224783  0.61909351  0.11425062  1
  O  O174  1  0.11079576  0.62452142  0.62012115  1
  O  O175  1  0.63162641  0.11426872  0.11569686  1
  O  O176  1  0.62366812  0.12257397  0.61939966  1
  O  O177  1  0.62703570  0.62940780  0.11304489  1
  O  O178  1  0.63943278  0.62520219  0.61319264  1
  O  O179  1  0.36677157  0.37077254  0.38497634  1
  O  O180  1  0.38189938  0.38877312  0.87393287  1
  O  O181  1  0.37705384  0.87516816  0.34940613  1
  O  O182  1  0.38588312  0.88607895  0.86638638  1
  O  O183  1  0.88069329  0.38339295  0.38063523  1
  O  O184  1  0.88422661  0.38123522  0.88031816  1
  O  O185  1  0.87259952  0.88321401  0.38608425  1
  O  O186  1  0.87710040  0.88156348  0.88627969  1
  O  O187  1  0.19690744  0.02365660  0.39395820  1
  O  O188  1  0.26003980  0.00511109  0.87348860  1
  O  O189  1  0.23693011  0.50521102  0.36548020  1
  O  O190  1  0.25986380  0.50764728  0.86969965  1
  O  O191  1  0.75854654  0.01017291  0.36954514  1
  O  O192  1  0.75385825  0.00615194  0.86951615  1
  O  O193  1  0.74824920  0.51155586  0.36736683  1
  O  O194  1  0.76343871  0.49497657  0.86790020  1
  O  O195  1  0.23624811  0.49904123  0.12136013  1
  O  O196  1  0.25194186  0.49245305  0.63472697  1
  O  O197  1  0.23923691  0.97954590  0.08427077  1
  O  O198  1  0.24070394  1.00626941  0.64080259  1
  O  O199  1  0.75413433  0.49188973  0.13204875  1
  O  O200  1  0.75723429  0.49942224  0.64153473  1
  O  O201  1  0.74668529  1.00065698  0.13349322  1
  O  O202  1  0.74275833  1.00341689  0.63535979  1
  O  O203  1  -0.00095685  0.36934979  0.25344054  1
  O  O204  1  -0.00041309  0.37089549  0.75647812  1
  O  O205  1  -0.01610756  0.85548365  0.25505240  1
  O  O206  1  0.01013623  0.86600924  0.75587705  1
  O  O207  1  0.50592201  0.37008123  0.25719608  1
  O  O208  1  0.51159759  0.37068484  0.76158431  1
  O  O209  1  0.50663993  0.87560060  0.25964734  1
  O  O210  1  0.51672688  0.88362104  0.76137194  1
  O  O211  1  0.49829105  0.13068960  0.25011791  1
  O  O212  1  0.49533211  0.13227800  0.74561367  1
  O  O213  1  0.48387323  0.61470187  0.25859544  1
  O  O214  1  0.49591460  0.61765080  0.75529019  1
  O  O215  1  0.99145059  0.13820415  0.23300975  1
  O  O216  1  0.99323874  0.13069028  0.74571387  1
  O  O217  1  0.98800682  0.63352318  0.24842965  1
  O  O218  1  1.00346883  0.63280371  0.74174350  1
  O  O219  1  0.36767607  0.25224495  0.00906419  1
  O  O220  1  0.36151404  0.26142819  0.51222128  1
  O  O221  1  0.36401682  0.73663391  0.00805836  1
  O  O222  1  0.37496767  0.75815389  0.51688440  1
  O  O223  1  0.86573859  0.26003365  -0.00012348  1
  O  O224  1  0.87703419  0.24974357  0.50621037  1
  O  O225  1  0.86963704  0.75695107  0.00299099  1
  O  O226  1  0.86890286  0.75599550  0.51000817  1
  O  O227  1  0.12384413  0.25851969  0.48314165  1
  O  O228  1  0.13040179  0.24600252  0.99538932  1
  O  O229  1  0.13131600  0.75031009  0.49138934  1
  O  O230  1  0.13373326  0.73970031  1.00464282  1
  O  O231  1  0.63664125  0.24513534  0.49719441  1
  O  O232  1  0.62954835  0.24150424  0.99645895  1
  O  O233  1  0.63647458  0.75273550  0.48906806  1
  O  O234  1  0.63377199  0.74516388  0.99406962  1
  O  O235  1  0.48689376  0.25601845  0.13540137  1
  O  O236  1  0.49085016  0.24573497  0.63351680  1
  O  O237  1  0.48535155  0.75482498  0.11416220  1
  O  O238  1  0.48691308  0.73836547  0.62274772  1
  O  O239  1  0.99653338  0.24883602  0.12861837  1
  O  O240  1  0.99894592  0.24186855  0.62852868  1
  O  O241  1  0.99410247  0.74845590  0.13227037  1
  O  O242  1  0.99414015  0.74384004  0.63313856  1
  O  O243  1  0.00333701  0.25861404  0.36506766  1
  O  O244  1  -0.00098746  0.26133770  0.86718006  1
  O  O245  1  0.00017766  0.75028079  0.36795669  1
  O  O246  1  -0.00591616  0.74896429  0.86047059  1
  O  O247  1  0.49633195  0.24244088  0.36081839  1
  O  O248  1  0.50525267  0.25380101  0.86824786  1
  O  O249  1  0.51311545  0.76843464  0.37667246  1
  O  O250  1  0.50893266  0.76304127  0.88105652  1
  O  O251  1  0.21493475  0.13372053  0.51984625  1
  O  O252  1  0.23954522  0.13633209  0.99577932  1
  O  O253  1  0.25140893  0.63003877  0.50855232  1
  O  O254  1  0.24160591  0.63064634  0.98988704  1
  O  O255  1  0.74497798  0.13065524  0.49372846  1
  O  O256  1  0.74085674  0.12961012  0.99492157  1
  O  O257  1  0.75937963  0.63554376  0.48728012  1
  O  O258  1  0.74101751  0.63693637  1.00161059  1
  O  O259  1  0.24953763  0.36286653  -0.00386212  1
  O  O260  1  0.25781651  0.37522293  0.51059572  1
  O  O261  1  0.24922366  0.85061753  -0.01333371  1
  O  O262  1  0.27425508  0.86880368  0.49545354  1
  O  O263  1  0.75105858  0.37284230  0.00985621  1
  O  O264  1  0.76390822  0.35515210  0.49147626  1
  O  O265  1  0.75855871  0.86939364  0.00182358  1
  O  O266  1  0.75976383  0.86603359  0.50405934  1
  O  O267  1  0.13133714  0.50580004  0.24139211  1
  O  O268  1  0.13544993  0.49856872  0.74685532  1
  O  O269  1  0.07162015  0.99377002  0.22690813  1
  O  O270  1  0.13334771  0.98982888  0.75027043  1
  O  O271  1  0.63711546  0.48578125  0.24942181  1
  O  O272  1  0.64027675  0.48745852  0.75036189  1
  O  O273  1  0.63626594  1.00140670  0.24091491  1
  O  O274  1  0.63353854  0.99766564  0.74743630  1
  O  O275  1  0.35462125  -0.00844000  0.19751708  1
  O  O276  1  0.36973180  0.00474732  0.75522987  1
  O  O277  1  0.35867951  0.51164414  0.25039012  1
  O  O278  1  0.37127358  0.50919374  0.75658740  1
  O  O279  1  0.87292325  0.00856819  0.25763071  1
  O  O280  1  0.86935361  0.00335333  0.75413299  1
  O  O281  1  0.86921349  0.51249477  0.25545211  1
  O  O282  1  0.86422124  0.49445873  0.76170051  1
  O  O283  1  0.11566974  0.36886882  0.36879063  1
  O  O284  1  0.11025647  0.37916806  0.87480443  1
  O  O285  1  0.11825990  0.85589165  0.37718899  1
  O  O286  1  0.12414115  0.88044092  0.86726215  1
  O  O287  1  0.64833128  0.35800871  0.34716149  1
  O  O288  1  0.62047316  0.37026785  0.87085251  1
  O  O289  1  0.63203681  0.86669403  0.37439128  1
  O  O290  1  0.61990441  0.86845752  0.87007799  1
  O  O291  1  0.37091663  0.14450159  0.12052049  1
  O  O292  1  0.37749765  0.13929843  0.63082519  1
  O  O293  1  0.38346044  0.62797033  0.12574640  1
  O  O294  1  0.37824685  0.62439035  0.64240951  1
  O  O295  1  0.88154882  0.13039018  0.12558213  1
  O  O296  1  0.89018745  0.13103701  0.62640734  1
  O  O297  1  0.87563880  0.63176884  0.13198335  1
  O  O298  1  0.88664872  0.63543863  0.62204206  1
  O  O299  1  0.25304569  0.25066280  0.11893582  1
  O  O300  1  0.25622860  0.25947145  0.62999864  1
  O  O301  1  0.25700016  0.74160656  0.10973523  1
  O  O302  1  0.27290615  0.74712959  0.63244303  1
  O  O303  1  0.75276022  0.25818443  0.12134616  1
  O  O304  1  0.76592742  0.23896482  0.61418657  1
  O  O305  1  0.75860609  0.75563786  0.11589172  1
  O  O306  1  0.75904818  0.75180136  0.61980158  1
  O  O307  1  0.23419075  0.25035169  0.36825469  1
  O  O308  1  0.25150029  0.24375194  0.88240474  1
  O  O309  1  0.23682292  0.75121013  0.37102121  1
  O  O310  1  0.26140061  0.73454346  0.88047317  1
  O  O311  1  0.75690872  0.23452801  0.38052753  1
  O  O312  1  0.74536520  0.24548906  0.88343784  1
  O  O313  1  0.74642401  0.74712456  0.38322538  1
  O  O314  1  0.74294261  0.75638670  0.88667054  1
  O  O315  1  0.00175945  0.12365224  -0.00266265  1
  O  O316  1  0.02125555  0.11682103  0.50803824  1
  O  O317  1  0.00742418  0.62110341  -0.00083012  1
  O  O318  1  -0.00518003  0.61330574  0.50576130  1
  O  O319  1  0.51352076  0.11793602  -0.00724704  1
  O  O320  1  0.51656368  0.12685394  0.50606587  1
  O  O321  1  0.51783914  0.62684564  -0.00352764  1
  O  O322  1  0.50269979  0.62142125  0.47234047  1
  O  O323  1  0.47771620  0.35749477  0.50008024  1
  O  O324  1  0.49589083  0.36391331  0.98217423  1
  O  O325  1  0.46593170  0.87896739  0.47649649  1
  O  O326  1  0.50728210  0.88925980  0.98855737  1
  O  O327  1  0.99362274  0.38668520  0.49537946  1
  O  O328  1  0.99372496  0.38351539  0.99189577  1
  O  O329  1  0.98570731  0.87363117  0.50173113  1
  O  O330  1  0.99403278  0.88415510  0.99632668  1
  O  O331  1  0.54342241  0.48205881  0.39289685  1
  O  O332  1  0.49409704  0.49189991  0.87421301  1
  O  O333  1  0.50342408  0.98351692  0.37169178  1
  O  O334  1  0.49470044  0.99405762  0.88087376  1
  O  O335  1  0.99254783  0.49819991  0.38154120  1
  O  O336  1  0.98874724  0.49577439  0.87649801  1
  O  O337  1  0.98640155  0.99565116  0.38077254  1
  O  O338  1  0.99300623  1.00210536  0.88307213  1
  O  O339  1  -0.00549557  0.01469374  0.10486368  1
  O  O340  1  0.00648810  0.00585813  0.62954552  1
  O  O341  1  0.00882066  0.50336474  0.11734565  1
  O  O342  1  -0.00265453  0.50734645  0.61869311  1
  O  O343  1  0.51162272  -0.00129746  0.11156418  1
  O  O344  1  0.51663419  0.01154994  0.63412074  1
  O  O345  1  0.50552602  0.45957712  0.12015162  1
  O  O346  1  0.50842176  0.49765632  0.61687477  1
  O  O347  1  0.24577705  0.39455487  0.24865367  1
  O  O348  1  0.24939646  0.38760697  0.74704709  1
  O  O349  1  0.24131579  0.87961702  0.23344456  1
  O  O350  1  0.24478490  0.88279928  0.75781351  1
  O  O351  1  0.76493554  0.38793641  0.23976957  1
  O  O352  1  0.74161364  0.37871704  0.75851682  1
  O  O353  1  0.75492069  0.89100650  0.24881258  1
  O  O354  1  0.74200916  0.88528509  0.75293602  1
  O  O355  1  0.19895899  0.06758569  0.20184209  1
  O  O356  1  0.25581837  0.11699109  0.75850500  1
  O  O357  1  0.25431078  0.61163271  0.24305390  1
  O  O358  1  0.25101468  0.61467915  0.75585347  1
  O  O359  1  0.75556390  0.11918003  0.25668491  1
  O  O360  1  0.75682869  0.12074520  0.75507631  1
  O  O361  1  0.75468147  0.61898087  0.25309701  1
  O  O362  1  0.74820070  0.60966236  0.75460350  1
  O  O363  1  0.36612543  0.10536057  0.44280581  1
  O  O364  1  0.37351905  0.11540324  0.86919611  1
  O  O365  1  0.36872613  0.64055152  0.35744203  1
  O  O366  1  0.37351939  0.61641439  0.86482803  1
  O  O367  1  0.87283319  0.11781313  0.37363954  1
  O  O368  1  0.86790006  0.11980738  0.86835992  1
  O  O369  1  0.86349284  0.62215404  0.36649092  1
  O  O370  1  0.87520782  0.61101301  0.87735557  1
  O  O371  1  0.12634292  0.38693618  0.12629931  1
  O  O372  1  0.13798092  0.37714556  0.62669386  1
  O  O373  1  0.11679023  0.90067371  0.11555818  1
  O  O374  1  0.11929417  0.88355912  0.63861204  1
  O  O375  1  0.63992053  0.36485564  0.14735902  1
  O  O376  1  0.62965877  0.35132037  0.65095517  1
  O  O377  1  0.62987327  0.88905141  0.12484843  1
  O  O378  1  0.63056517  0.88761081  0.63716709  1
  O  O379  1  0.11391628  0.25001859  0.25080528  1
  O  O380  1  0.11667571  0.25426024  0.75384781  1
  O  O381  1  0.11489649  0.74218451  0.25999021  1
  O  O382  1  0.11779326  0.75784045  0.74568041  1
  O  O383  1  0.60416556  0.25108369  0.24908674  1
  O  O384  1  0.62566944  0.25464653  0.76394723  1
  O  O385  1  0.63586568  0.75898748  0.26404199  1
  O  O386  1  0.63480676  0.76159964  0.76012650  1
  O  O387  1  0.38253826  0.24992699  0.24177844  1
  O  O388  1  0.37976004  0.24547843  0.74690703  1
  O  O389  1  0.36764253  0.73203350  0.22889374  1
  O  O390  1  0.38051803  0.73041427  0.74841219  1
  O  O391  1  0.88516622  0.24626915  0.25024567  1
  O  O392  1  0.88110104  0.24442729  0.74181260  1
  O  O393  1  0.87401099  0.73955872  0.24545533  1
  O  O394  1  0.88258785  0.75854715  0.73791805  1
  O  O395  1  0.37971831  0.48082470  0.50402044  1
  O  O396  1  0.37643439  0.50209614  0.99246510  1
  O  O397  1  0.37791341  0.98215248  0.54358918  1
  O  O398  1  0.38704313  1.00866502  0.99012177  1
  O  O399  1  0.87720425  0.49476451  0.49469671  1
  O  O400  1  0.87700153  0.49734305  0.98904241  1
  O  O401  1  0.87264708  0.99219715  0.49514068  1
  O  O402  1  0.87834507  0.99451901  0.99406252  1
  O  O403  1  0.11399476  0.01224421  0.00100523  1
  O  O404  1  0.11984144  -0.00934126  0.51691503  1
  O  O405  1  0.11935080  0.51005288  0.00445760  1
  O  O406  1  0.11280962  0.50044664  0.50312533  1
  O  O407  1  0.62181234  0.00817706  0.00461367  1
  O  O408  1  0.63486111  0.01011325  0.51225319  1
  O  O409  1  0.63182377  0.51934620  -0.00388995  1
  O  O410  1  0.62982386  0.44545704  0.52487059  1
  O  O411  1  0.36533264  0.36121763  0.12389496  1
  O  O412  1  0.36607480  0.36521121  0.63457019  1
  O  O413  1  0.36709647  0.85635222  0.12515581  1
  O  O414  1  0.38635453  0.85811935  0.63086324  1
  O  O415  1  0.86752586  0.37777600  0.11538363  1
  O  O416  1  0.88320694  0.35923466  0.61884337  1
  O  O417  1  0.87852021  0.87382590  0.11206896  1
  O  O418  1  0.87206806  0.86871853  0.61923581  1
  O  O419  1  0.10651788  0.13994852  0.37202854  1
  O  O420  1  0.12882603  0.12704195  0.88242623  1
  O  O421  1  0.11442408  0.64263267  0.38207522  1
  O  O422  1  0.13544598  0.61928565  0.88334966  1
  O  O423  1  0.63485946  0.12521331  0.38358312  1
  O  O424  1  0.63087087  0.12982625  0.88199138  1
  O  O425  1  0.63758854  0.64578456  0.36655907  1
  O  O426  1  0.62358518  0.63898278  0.87785736  1
