# generated using pymatgen
data_V85Zn86O256
_symmetry_space_group_name_H-M   'P 1'
_cell_length_a   16.92095020
_cell_length_b   16.91730569
_cell_length_c   16.92033931
_cell_angle_alpha   89.96850499
_cell_angle_beta   89.99159377
_cell_angle_gamma   90.02063987
_symmetry_Int_Tables_number   1
_chemical_formula_structural   V85Zn86O256
_chemical_formula_sum   'V85 Zn86 O256'
_cell_volume   4843.56256281
_cell_formula_units_Z   1
loop_
 _symmetry_equiv_pos_site_id
 _symmetry_equiv_pos_as_xyz
  1  'x, y, z'
loop_
 _atom_site_type_symbol
 _atom_site_label
 _atom_site_symmetry_multiplicity
 _atom_site_fract_x
 _atom_site_fract_y
 _atom_site_fract_z
 _atom_site_occupancy
  V  V0  1  0.62462877  0.37576078  0.74739894  1
  V  V1  1  0.37111485  0.24851909  0.62149543  1
  V  V2  1  0.75086499  0.87773243  0.12653203  1
  V  V3  1  0.75180460  0.61970246  0.87673920  1
  V  V4  1  0.00657738  0.74772611  0.25232298  1
  V  V5  1  0.12091161  0.00852516  0.12217088  1
  V  V6  1  0.62306741  0.24624411  0.87716676  1
  V  V7  1  0.74666962  0.63008967  0.38862693  1
  V  V8  1  0.62701501  0.25068702  0.38076808  1
  V  V9  1  0.62604699  0.75706713  0.86082670  1
  V  V10  1  0.25949143  0.87260753  0.12151555  1
  V  V11  1  0.49147453  -0.00883712  0.00074130  1
  V  V12  1  0.00065589  0.62239112  0.62381589  1
  V  V13  1  0.37442548  0.50192087  0.37353760  1
  V  V14  1  0.39359787  0.62725622  0.74745308  1
  V  V15  1  0.00274028  0.87158178  0.37692128  1
  V  V16  1  0.89381483  0.25153459  0.12792658  1
  V  V17  1  0.38625361  0.74570842  0.62649802  1
  V  V18  1  0.62380920  0.00179996  0.12585890  1
  V  V19  1  0.13020129  0.74869338  0.87639523  1
  V  V20  1  0.87537385  0.62462866  0.24907050  1
  V  V21  1  0.62278392  0.50046734  0.12288753  1
  V  V22  1  -0.00027634  0.36323256  0.36980859  1
  V  V23  1  0.76745581  0.12295514  0.87391245  1
  V  V24  1  0.37187009  0.37331640  0.49663722  1
  V  V25  1  0.24159180  0.62683087  0.37109512  1
  V  V26  1  0.49533203  0.37735986  0.87800081  1
  V  V27  1  0.00108597  0.49570893  0.49826906  1
  V  V28  1  0.86655455  0.87342061  0.49721157  1
  V  V29  1  0.75159181  0.00337195  0.25545633  1
  V  V30  1  0.12184310  0.00083251  0.62480033  1
  V  V31  1  0.37098535  0.13112411  0.24871313  1
  V  V32  1  0.13664759  0.25143959  0.37624631  1
  V  V33  1  0.62130406  0.86921193  0.25389975  1
  V  V34  1  0.87562170  0.88422161  -0.00315450  1
  V  V35  1  0.87787463  0.37846775  -0.01303084  1
  V  V36  1  0.49976102  -0.00087761  0.50201444  1
  V  V37  1  0.74768891  0.25212470  0.00749582  1
  V  V38  1  0.12781363  0.36968162  0.24463381  1
  V  V39  1  0.74828884  0.50161662  0.25008415  1
  V  V40  1  0.24977334  0.87148177  0.62670487  1
  V  V41  1  0.24885231  0.50969680  0.74980165  1
  V  V42  1  0.12013192  0.37443064  0.75400680  1
  V  V43  1  0.87633638  0.49773631  0.37320887  1
  V  V44  1  0.12569405  0.87320085  0.24977199  1
  V  V45  1  0.37794598  0.64101614  0.24861886  1
  V  V46  1  0.49854028  0.87317419  0.86263951  1
  V  V47  1  0.87680779  0.75077574  0.12399445  1
  V  V48  1  0.87403249  0.74969206  0.61971773  1
  V  V49  1  0.75555830  0.49558304  0.75096178  1
  V  V50  1  -0.00187186  0.88094831  0.87489607  1
  V  V51  1  0.37422103  0.12357069  0.75440931  1
  V  V52  1  0.24752746  0.37229332  0.62386753  1
  V  V53  1  -0.00202853  0.49770479  -0.01308825  1
  V  V54  1  0.86854419  0.24079077  0.62108945  1
  V  V55  1  0.88755986  0.12966721  0.24635498  1
  V  V56  1  0.37075649  0.50357582  0.87563077  1
  V  V57  1  0.49439432  0.12804519  0.12361645  1
  V  V58  1  0.13163003  0.62570419  -0.00313564  1
  V  V59  1  0.25474698  0.25725475  0.01049461  1
  V  V60  1  0.00081387  0.01220543  0.00207420  1
  V  V61  1  0.49963900  0.37643830  0.37767962  1
  V  V62  1  -0.00612193  0.24590420  0.75200492  1
  V  V63  1  0.74835580  0.37223649  0.61506010  1
  V  V64  1  0.62787986  0.11920968  0.50126468  1
  V  V65  1  0.49756057  0.25233099  0.24776733  1
  V  V66  1  0.24107744  0.74891141  0.49754750  1
  V  V67  1  0.87874202  0.62233225  0.75733531  1
  V  V68  1  0.74888922  0.75126880  -0.00051797  1
  V  V69  1  0.49718774  0.24991911  0.75091307  1
  V  V70  1  0.26259553  0.75090237  0.00044000  1
  V  V71  1  0.00197364  0.62299840  0.12246420  1
  V  V72  1  0.12163820  0.25058192  0.88060199  1
  V  V73  1  0.24449599  0.12628825  0.88436885  1
  V  V74  1  0.74667611  0.87609822  0.63543085  1
  V  V75  1  0.50433169  0.51496533  0.50765116  1
  V  V76  1  0.49708396  0.86597097  0.37091228  1
  V  V77  1  0.12478176  0.87502163  0.75221747  1
  V  V78  1  0.24831351  0.00021269  0.75422244  1
  V  V79  1  0.37241669  0.87540926  0.50106792  1
  V  V80  1  0.12787396  0.13083144  0.50208308  1
  V  V81  1  0.13253753  0.49561606  0.12272230  1
  V  V82  1  0.37232796  0.00312071  0.37488144  1
  V  V83  1  0.75394862  0.13011209  0.37696414  1
  V  V84  1  0.49893941  0.64122702  0.12813853  1
  Zn  Zn85  1  0.25226367  0.13011910  0.37981901  1
  Zn  Zn86  1  0.37045705  -0.00864233  0.88027650  1
  Zn  Zn87  1  0.25554014  0.49608292  0.24347709  1
  Zn  Zn88  1  0.37321540  0.37857724  0.01673400  1
  Zn  Zn89  1  0.87175613  0.36932443  0.49702869  1
  Zn  Zn90  1  0.62245263  0.62670569  -0.00083079  1
  Zn  Zn91  1  0.62498600  0.51640662  0.62440816  1
  Zn  Zn92  1  0.00130788  0.75000304  0.75102451  1
  Zn  Zn93  1  0.62662776  0.37360132  0.24978489  1
  Zn  Zn94  1  0.49818390  0.50382918  0.00135015  1
  Zn  Zn95  1  0.12116025  0.62674101  0.49427241  1
  Zn  Zn96  1  -0.00668545  0.12000721  0.62848991  1
  Zn  Zn97  1  0.87894571  0.00136510  0.37410426  1
  Zn  Zn98  1  0.50116681  0.12300109  0.62715653  1
  Zn  Zn99  1  0.24823588  0.00265363  0.24860484  1
  Zn  Zn100  1  0.00067165  -0.00149639  0.49928344  1
  Zn  Zn101  1  0.61800982  0.73770778  0.37429770  1
  Zn  Zn102  1  0.75191458  0.37694225  0.12559512  1
  Zn  Zn103  1  0.62363796  0.12468889  0.00053480  1
  Zn  Zn104  1  0.75760429  0.00393443  0.75748435  1
  Zn  Zn105  1  0.12487246  0.49839527  0.62294665  1
  Zn  Zn106  1  0.61920701  -0.01032171  0.63654011  1
  Zn  Zn107  1  0.17950498  0.18634608  0.19241935  1
  Zn  Zn108  1  0.18634366  0.18777519  0.69092887  1
  Zn  Zn109  1  0.19062354  0.68696213  0.18460766  1
  Zn  Zn110  1  0.18655856  0.68828669  0.68513658  1
  Zn  Zn111  1  0.68553236  0.18730379  0.19061787  1
  Zn  Zn112  1  0.68701935  0.18344888  0.69032420  1
  Zn  Zn113  1  0.68651145  0.68717754  0.18880328  1
  Zn  Zn114  1  0.69571348  0.68803687  0.68666381  1
  Zn  Zn115  1  0.31020351  0.31400664  0.18961761  1
  Zn  Zn116  1  0.30830350  0.31413828  0.81330005  1
  Zn  Zn117  1  0.30773671  0.81419109  0.31362848  1
  Zn  Zn118  1  0.31515430  0.80774190  0.81355903  1
  Zn  Zn119  1  0.81249821  0.31200402  0.30974663  1
  Zn  Zn120  1  0.81015463  0.30620321  0.81082131  1
  Zn  Zn121  1  0.81329362  0.81174509  0.31273705  1
  Zn  Zn122  1  0.81729273  0.81081238  0.81178720  1
  Zn  Zn123  1  0.18814705  0.43683318  0.43513431  1
  Zn  Zn124  1  0.18870982  0.43641428  0.93518938  1
  Zn  Zn125  1  0.18595447  0.93832156  0.43641347  1
  Zn  Zn126  1  0.18639650  0.93672595  0.94212116  1
  Zn  Zn127  1  0.68451814  0.44201663  0.43622759  1
  Zn  Zn128  1  0.68619294  0.43606353  0.93868502  1
  Zn  Zn129  1  0.64707302  0.87875675  0.48458563  1
  Zn  Zn130  1  0.68396894  0.94020907  0.93747914  1
  Zn  Zn131  1  0.30967414  0.06255517  0.06342996  1
  Zn  Zn132  1  0.30768189  0.06329353  0.56431002  1
  Zn  Zn133  1  0.31623753  0.56647381  0.06186054  1
  Zn  Zn134  1  0.31260644  0.56267397  0.56239279  1
  Zn  Zn135  1  0.81329554  0.06836822  0.06253600  1
  Zn  Zn136  1  0.81251356  0.05644595  0.55890346  1
  Zn  Zn137  1  0.81351190  0.56095652  0.06135582  1
  Zn  Zn138  1  0.81591100  0.55701538  0.56561111  1
  Zn  Zn139  1  0.44280176  0.44424577  0.19114855  1
  Zn  Zn140  1  0.43624241  0.43822685  0.68691172  1
  Zn  Zn141  1  0.43680412  0.94081549  0.19032420  1
  Zn  Zn142  1  0.43616251  0.93663233  0.68808400  1
  Zn  Zn143  1  0.94224105  0.43573892  0.18326541  1
  Zn  Zn144  1  0.93512352  0.43219634  0.68749278  1
  Zn  Zn145  1  0.93864682  0.93936513  0.18764260  1
  Zn  Zn146  1  0.92996255  0.94113877  0.69270303  1
  Zn  Zn147  1  0.06532266  0.06059197  0.31383935  1
  Zn  Zn148  1  0.05751130  0.06473580  0.81449962  1
  Zn  Zn149  1  0.06359436  0.55584731  0.30927993  1
  Zn  Zn150  1  0.06657006  0.56313213  0.81240279  1
  Zn  Zn151  1  0.56130886  0.06078720  0.31405298  1
  Zn  Zn152  1  0.56648812  0.05731982  0.81066909  1
  Zn  Zn153  1  0.56141216  0.56341055  0.31065917  1
  Zn  Zn154  1  0.56815221  0.56207146  0.81328997  1
  Zn  Zn155  1  0.43811815  0.18854329  0.43749125  1
  Zn  Zn156  1  0.43387495  0.18656890  0.94001404  1
  Zn  Zn157  1  0.42785392  0.69002571  0.43648466  1
  Zn  Zn158  1  0.44284192  0.68611167  0.93315031  1
  Zn  Zn159  1  0.94063480  0.18470385  0.44311429  1
  Zn  Zn160  1  0.94109377  0.19669532  0.94183424  1
  Zn  Zn161  1  0.93596976  0.68715541  0.43599075  1
  Zn  Zn162  1  0.94063007  0.69096658  0.93752387  1
  Zn  Zn163  1  0.06559452  0.31530772  0.05596572  1
  Zn  Zn164  1  0.05821923  0.30991550  0.56334897  1
  Zn  Zn165  1  0.06536152  0.81530014  0.06285024  1
  Zn  Zn166  1  0.05934556  0.81207219  0.56364978  1
  Zn  Zn167  1  0.55973917  0.31676313  0.06397160  1
  Zn  Zn168  1  0.55961172  0.31250890  0.56209515  1
  Zn  Zn169  1  0.56457004  0.81598696  0.05879557  1
  Zn  Zn170  1  0.57467085  0.70027325  0.55698439  1
  O  O171  1  0.12685749  0.10744307  0.12902496  1
  O  O172  1  0.12588347  0.11701632  0.62076597  1
  O  O173  1  0.11966963  0.61971863  0.11686129  1
  O  O174  1  0.11067358  0.62215617  0.62433893  1
  O  O175  1  0.61349346  0.11768203  0.12725126  1
  O  O176  1  0.62582815  0.12827976  0.60903682  1
  O  O177  1  0.61552156  0.62163556  0.12554175  1
  O  O178  1  0.62824153  0.62930840  0.62320857  1
  O  O179  1  0.38086430  0.38658756  0.38490576  1
  O  O180  1  0.38358482  0.38436165  0.87045892  1
  O  O181  1  0.37769965  0.88402725  0.37781667  1
  O  O182  1  0.39250566  0.87277872  0.87099320  1
  O  O183  1  0.88173413  0.37902463  0.37481499  1
  O  O184  1  0.87141467  0.36737201  0.88816592  1
  O  O185  1  0.88242700  0.87430451  0.38099792  1
  O  O186  1  0.88492555  0.86780454  0.88634386  1
  O  O187  1  0.26189448  0.00085831  0.37310607  1
  O  O188  1  0.24961539  0.00740787  0.87459522  1
  O  O189  1  0.25896696  0.50836642  0.37466946  1
  O  O190  1  0.26237680  0.49459945  0.86507932  1
  O  O191  1  0.75361885  0.00945818  0.35960957  1
  O  O192  1  0.74556727  0.02058755  0.88435266  1
  O  O193  1  0.75582365  0.50671667  0.36831192  1
  O  O194  1  0.74411399  0.51259487  0.86973756  1
  O  O195  1  0.23658743  0.50641245  0.12233780  1
  O  O196  1  0.24932361  0.48989072  0.63149750  1
  O  O197  1  0.23902893  0.99018979  0.12324698  1
  O  O198  1  0.23970299  0.99256646  0.63180247  1
  O  O199  1  0.73977020  0.50335958  0.13183499  1
  O  O200  1  0.74833665  0.49039116  0.63332799  1
  O  O201  1  0.74223346  0.99968061  0.13204023  1
  O  O202  1  0.75515188  0.98263773  0.62476204  1
  O  O203  1  0.01182891  0.38360527  0.26047881  1
  O  O204  1  0.01347752  0.36695280  0.74332956  1
  O  O205  1  0.00538770  0.86649198  0.25375496  1
  O  O206  1  0.00727163  0.87307071  0.75900932  1
  O  O207  1  0.50286434  0.36748534  0.25945456  1
  O  O208  1  0.50382792  0.37138541  0.75754899  1
  O  O209  1  0.50966312  0.88314163  0.25708024  1
  O  O210  1  0.50507637  0.88168463  0.76340010  1
  O  O211  1  0.49382442  0.13165864  0.24524186  1
  O  O212  1  0.48952893  0.12952689  0.75051274  1
  O  O213  1  0.49408613  0.62651026  0.23943424  1
  O  O214  1  0.49192898  0.62085132  0.74699879  1
  O  O215  1  0.98629679  0.12016512  0.25444355  1
  O  O216  1  1.00629862  0.14098072  0.74584603  1
  O  O217  1  0.99687941  0.63062199  0.24548253  1
  O  O218  1  0.99311434  0.62233578  0.74343328  1
  O  O219  1  0.35882579  0.25420215  -0.00322887  1
  O  O220  1  0.37918154  0.25927500  0.50946946  1
  O  O221  1  0.36137323  0.74139521  -0.00804035  1
  O  O222  1  0.36347249  0.75616584  0.50759205  1
  O  O223  1  0.86912389  0.25792882  0.01183284  1
  O  O224  1  0.87788253  0.25210458  0.51611897  1
  O  O225  1  0.86665202  0.75847564  0.00411077  1
  O  O226  1  0.88211118  0.75741413  0.50900678  1
  O  O227  1  0.11876124  0.24186999  0.49251556  1
  O  O228  1  0.13621138  0.25418882  0.98919492  1
  O  O229  1  0.13652671  0.74775986  0.50502181  1
  O  O230  1  0.13044467  0.74339836  0.99509408  1
  O  O231  1  0.61489079  0.23912883  0.48728684  1
  O  O232  1  0.63110344  0.25300330  0.99442796  1
  O  O233  1  0.61746428  0.76858143  0.48199603  1
  O  O234  1  0.64005902  0.75045271  0.99612184  1
  O  O235  1  0.50725397  0.24261630  0.13837622  1
  O  O236  1  0.48759503  0.24768993  0.63189204  1
  O  O237  1  0.50642710  0.74020792  0.12402404  1
  O  O238  1  0.48450679  0.75150449  0.61670296  1
  O  O239  1  0.99196391  0.24990367  0.11979828  1
  O  O240  1  0.98649884  0.24852653  0.63266233  1
  O  O241  1  0.99598497  0.74409945  0.12943039  1
  O  O242  1  0.99274211  0.74034013  0.62805911  1
  O  O243  1  0.00304436  0.26097894  0.37896724  1
  O  O244  1  0.01051075  0.24903272  0.86795760  1
  O  O245  1  -0.00279972  0.75888828  0.36469271  1
  O  O246  1  0.01170602  0.76197711  0.87683961  1
  O  O247  1  0.50458503  0.25400695  0.36563228  1
  O  O248  1  0.50286306  0.25785998  0.87233892  1
  O  O249  1  0.49166505  0.76309391  0.37178360  1
  O  O250  1  0.51544754  0.76073498  0.87854038  1
  O  O251  1  0.23448066  0.12144465  0.49856884  1
  O  O252  1  0.25492694  0.13547622  0.99049646  1
  O  O253  1  0.24796872  0.63110567  0.49182599  1
  O  O254  1  0.23841995  0.63402556  1.00586144  1
  O  O255  1  0.74291359  0.11634368  0.48541009  1
  O  O256  1  0.74589485  0.13590388  0.99407814  1
  O  O257  1  0.75696767  0.61851265  0.48699983  1
  O  O258  1  0.75249848  0.63338108  0.99219597  1
  O  O259  1  0.25211537  0.36128780  -0.00235723  1
  O  O260  1  0.26301042  0.38354827  0.50874076  1
  O  O261  1  0.24745616  0.86774148  0.01298777  1
  O  O262  1  0.25339252  0.86858389  0.50411926  1
  O  O263  1  0.75840498  0.36983313  0.00267081  1
  O  O264  1  0.74826178  0.38043125  0.51165725  1
  O  O265  1  0.75683999  0.87169497  0.00444612  1
  O  O266  1  0.76459802  0.87496696  0.50705625  1
  O  O267  1  0.12834659  0.49290070  0.23837962  1
  O  O268  1  0.13173046  0.49246942  0.74829045  1
  O  O269  1  0.12586813  0.99201975  0.23992813  1
  O  O270  1  0.12964361  0.99636919  0.74494659  1
  O  O271  1  0.63312034  0.49937946  0.24390703  1
  O  O272  1  0.63664630  0.49450088  0.74729626  1
  O  O273  1  0.63109627  0.99635256  0.24187913  1
  O  O274  1  0.64292776  1.01418268  0.74355669  1
  O  O275  1  0.37387398  0.01281733  0.25806062  1
  O  O276  1  0.36702903  0.00773177  0.75318876  1
  O  O277  1  0.37621039  0.50867532  0.26408397  1
  O  O278  1  0.36951663  0.51026630  0.75226604  1
  O  O279  1  0.86710400  0.00954574  0.24672980  1
  O  O280  1  0.86939979  0.00226938  0.75789175  1
  O  O281  1  0.86972319  0.50464816  0.25156444  1
  O  O282  1  0.86409373  0.50516750  0.74755477  1
  O  O283  1  0.11873332  0.36932562  0.36943730  1
  O  O284  1  0.13082547  0.36548543  0.86441896  1
  O  O285  1  0.11966717  0.87780300  0.35994798  1
  O  O286  1  0.11938522  0.87003065  0.87131366  1
  O  O287  1  0.61934893  0.36658119  0.37570150  1
  O  O288  1  0.61697482  0.36654738  0.86985608  1
  O  O289  1  0.61021633  0.88494782  0.36674965  1
  O  O290  1  0.62067918  0.86380025  0.87810138  1
  O  O291  1  0.38604892  0.11966813  0.13323579  1
  O  O292  1  0.37128634  0.13209768  0.63551608  1
  O  O293  1  0.39010629  0.62077379  0.13406281  1
  O  O294  1  0.37007588  0.63053000  0.63835790  1
  O  O295  1  0.87068961  0.14271246  0.13134817  1
  O  O296  1  0.87157670  0.13654216  0.62067114  1
  O  O297  1  0.88146445  0.63012325  0.12943072  1
  O  O298  1  0.88329530  0.62865810  0.63228109  1
  O  O299  1  0.24468316  0.24605480  0.11411413  1
  O  O300  1  0.26003281  0.26034557  0.63191402  1
  O  O301  1  0.24592825  0.76382448  0.11688255  1
  O  O302  1  0.25532314  0.75488084  0.61875956  1
  O  O303  1  0.74723719  0.25213542  0.11532879  1
  O  O304  1  0.76101293  0.25643475  0.63267654  1
  O  O305  1  0.75498463  0.75547167  0.11842384  1
  O  O306  1  0.76655458  0.76008395  0.62849963  1
  O  O307  1  0.23559307  0.25105462  0.37790749  1
  O  O308  1  0.24285334  0.24392538  0.88125295  1
  O  O309  1  0.25418879  0.74061195  0.38506049  1
  O  O310  1  0.23770279  0.75917749  0.88479639  1
  O  O311  1  0.74067436  0.24223188  0.37046840  1
  O  O312  1  0.74192291  0.24525881  0.88739283  1
  O  O313  1  0.75423453  0.73172688  0.37046921  1
  O  O314  1  0.74385739  0.74456759  0.88033736  1
  O  O315  1  -0.00536648  0.11155144  -0.00316954  1
  O  O316  1  0.01141428  0.11864968  0.50641025  1
  O  O317  1  0.00825342  0.62103947  0.00428630  1
  O  O318  1  -0.00025408  0.61714273  0.50588807  1
  O  O319  1  0.50102317  0.12074343  0.00922137  1
  O  O320  1  0.50570917  0.11353477  0.49916160  1
  O  O321  1  0.50145438  0.62508954  0.01317837  1
  O  O322  1  0.49621521  0.61783249  0.49728811  1
  O  O323  1  0.48880503  0.38211170  0.49674801  1
  O  O324  1  0.49511905  0.37787328  0.98929627  1
  O  O325  1  0.48844121  0.88931824  0.48810778  1
  O  O326  1  0.50415762  0.88404038  0.99097672  1
  O  O327  1  0.99876463  0.38150850  0.49059610  1
  O  O328  1  0.99025934  0.38438406  1.00115130  1
  O  O329  1  0.99469655  0.87351117  0.49039193  1
  O  O330  1  0.99264498  0.88080497  0.99522388  1
  O  O331  1  0.49449191  0.49827873  0.38410181  1
  O  O332  1  0.49323172  0.49370601  0.87492280  1
  O  O333  1  0.48714890  0.99756934  0.38000717  1
  O  O334  1  0.50284128  0.98816162  0.88294442  1
  O  O335  1  0.99476451  0.49339815  0.38063349  1
  O  O336  1  1.00252651  0.50458874  0.88744291  1
  O  O337  1  0.99909281  0.98403019  0.37251042  1
  O  O338  1  1.00894359  0.98798443  0.88597904  1
  O  O339  1  0.01247870  -0.00634946  0.11767485  1
  O  O340  1  0.01290297  -0.00251299  0.62675312  1
  O  O341  1  0.01050520  0.50721749  0.11638424  1
  O  O342  1  -0.00169763  0.50452307  0.61676973  1
  O  O343  1  0.50550895  0.00570781  0.11979729  1
  O  O344  1  0.50010684  0.00206173  0.61696779  1
  O  O345  1  0.51346192  0.50971740  0.12592195  1
  O  O346  1  0.49909437  0.49815329  0.61033200  1
  O  O347  1  0.23401185  0.37789466  0.25042320  1
  O  O348  1  0.24210711  0.38289771  0.74202435  1
  O  O349  1  0.24180675  0.87620759  0.24077833  1
  O  O350  1  0.24481305  0.88001174  0.74799134  1
  O  O351  1  0.74970451  0.38955838  0.24898714  1
  O  O352  1  0.74534204  0.38081668  0.74603936  1
  O  O353  1  0.74596805  0.88481791  0.24623736  1
  O  O354  1  0.75444848  0.87257034  0.73838879  1
  O  O355  1  0.25780894  0.12398763  0.25323295  1
  O  O356  1  0.25558097  0.12053229  0.75999047  1
  O  O357  1  0.25768917  0.62282136  0.25450393  1
  O  O358  1  0.24906554  0.61164601  0.74598878  1
  O  O359  1  0.75607402  0.12163273  0.25771086  1
  O  O360  1  0.75163463  0.13741744  0.77252974  1
  O  O361  1  0.75657616  0.61545671  0.25250868  1
  O  O362  1  0.76026078  0.61752115  0.75728174  1
  O  O363  1  0.37348184  0.12042684  0.36899090  1
  O  O364  1  0.36696046  0.12423435  0.86550260  1
  O  O365  1  0.36636276  0.62007881  0.36776005  1
  O  O366  1  0.38074763  0.61756633  0.85936597  1
  O  O367  1  0.86863280  0.12760806  0.36876635  1
  O  O368  1  0.86527891  0.13263906  0.88313606  1
  O  O369  1  0.86839303  0.61767273  0.36778657  1
  O  O370  1  0.86843639  0.63188654  0.86568883  1
  O  O371  1  0.11873744  0.38345792  0.13154347  1
  O  O372  1  0.13338660  0.37383706  0.62968926  1
  O  O373  1  0.13079937  0.88123349  0.13504432  1
  O  O374  1  0.12923049  0.87984656  0.63205961  1
  O  O375  1  0.62758554  0.38565561  0.12845928  1
  O  O376  1  0.63198075  0.37146417  0.63211914  1
  O  O377  1  0.63043494  0.88247757  0.13358175  1
  O  O378  1  0.64677445  0.87242378  0.61486656  1
  O  O379  1  0.12222845  0.25798684  0.25983803  1
  O  O380  1  0.12019328  0.25757751  0.75747604  1
  O  O381  1  0.11349073  0.75520370  0.24307800  1
  O  O382  1  0.12464005  0.75472864  0.75902087  1
  O  O383  1  0.61673445  0.24930755  0.26253058  1
  O  O384  1  0.61698584  0.25449791  0.75762901  1
  O  O385  1  0.63260511  0.76535089  0.25655794  1
  O  O386  1  0.63257678  0.75126484  0.76323662  1
  O  O387  1  0.38175876  0.23930004  0.24972767  1
  O  O388  1  0.37760867  0.24394338  0.74528316  1
  O  O389  1  0.37059872  0.74031680  0.25170602  1
  O  O390  1  0.37167132  0.73430949  0.74381838  1
  O  O391  1  0.87366210  0.24642125  0.23540452  1
  O  O392  1  0.88429219  0.25675727  0.73887605  1
  O  O393  1  0.88559808  0.74587917  0.24322846  1
  O  O394  1  0.88007596  0.73825844  0.74333130  1
  O  O395  1  0.38422884  0.49784954  0.49314798  1
  O  O396  1  0.37591656  0.50002490  0.98892107  1
  O  O397  1  0.37741762  0.99767172  0.49508067  1
  O  O398  1  0.38701890  1.00524758  0.99803747  1
  O  O399  1  0.88594928  0.49555567  0.49335396  1
  O  O400  1  0.88360307  0.48922424  1.00547788  1
  O  O401  1  0.88148811  0.98906294  0.49505931  1
  O  O402  1  0.88171510  0.98990701  1.01002182  1
  O  O403  1  0.11626141  -0.00490203  0.01370447  1
  O  O404  1  0.12336516  0.00410034  0.50916511  1
  O  O405  1  0.12151607  0.50633685  0.00235553  1
  O  O406  1  0.11301881  0.50146319  0.50028441  1
  O  O407  1  0.61783275  0.00163012  0.01368624  1
  O  O408  1  0.61385184  0.00083763  0.50460396  1
  O  O409  1  0.62384737  0.50470205  0.00817308  1
  O  O410  1  0.60701342  0.49714237  0.50169486  1
  O  O411  1  0.37579408  0.38104275  0.12986201  1
  O  O412  1  0.36831122  0.36840599  0.62005162  1
  O  O413  1  0.35821110  0.88183062  0.13105634  1
  O  O414  1  0.36807703  0.86834558  0.62157614  1
  O  O415  1  0.87395265  0.36314997  0.12084269  1
  O  O416  1  0.86429894  0.36609088  0.62223940  1
  O  O417  1  0.86945329  0.87004818  0.11934308  1
  O  O418  1  0.87613311  0.86605984  0.61704355  1
  O  O419  1  0.12460401  0.13301065  0.38213571  1
  O  O420  1  0.13459812  0.13556798  0.87018714  1
  O  O421  1  0.13748384  0.62034885  0.37230816  1
  O  O422  1  0.12175858  0.63570848  0.88411118  1
  O  O423  1  0.63077312  0.12811146  0.38328955  1
  O  O424  1  0.61987997  0.14020745  0.87949887  1
  O  O425  1  0.64145592  0.62197673  0.37095999  1
  O  O426  1  0.63277297  0.63759819  0.87713713  1
