# generated using pymatgen
data_V85Zn86O256
_symmetry_space_group_name_H-M   'P 1'
_cell_length_a   16.95951519
_cell_length_b   16.97153131
_cell_length_c   16.97019308
_cell_angle_alpha   89.91023136
_cell_angle_beta   89.98221942
_cell_angle_gamma   90.02351108
_symmetry_Int_Tables_number   1
_chemical_formula_structural   V85Zn86O256
_chemical_formula_sum   'V85 Zn86 O256'
_cell_volume   4884.50609631
_cell_formula_units_Z   1
loop_
 _symmetry_equiv_pos_site_id
 _symmetry_equiv_pos_as_xyz
  1  'x, y, z'
loop_
 _atom_site_type_symbol
 _atom_site_label
 _atom_site_symmetry_multiplicity
 _atom_site_fract_x
 _atom_site_fract_y
 _atom_site_fract_z
 _atom_site_occupancy
  V  V0  1  0.12390776  0.25479197  0.87295789  1
  V  V1  1  0.87650691  0.49989666  0.37968982  1
  V  V2  1  0.49038687  0.61311585  0.63238321  1
  V  V3  1  0.01113107  0.61928357  0.62507843  1
  V  V4  1  0.63914500  0.49542469  0.62405838  1
  V  V5  1  0.74842718  0.62347891  0.37775529  1
  V  V6  1  0.74386140  0.25509572  0.50731089  1
  V  V7  1  0.37878382  0.25675630  0.12621839  1
  V  V8  1  0.88028924  0.63423172  0.25495046  1
  V  V9  1  0.01641244  0.00855779  0.51136620  1
  V  V10  1  0.50202439  0.13079031  0.12733832  1
  V  V11  1  0.62468083  0.50097331  0.13085376  1
  V  V12  1  -0.00043631  0.87339056  0.87423674  1
  V  V13  1  0.25361912  0.37943143  0.11798749  1
  V  V14  1  0.12638718  0.24754997  0.37673273  1
  V  V15  1  0.37063319  0.37552747  0.50092009  1
  V  V16  1  0.01405572  0.50193804  0.50378786  1
  V  V17  1  0.75431243  0.74987677  -0.00200436  1
  V  V18  1  0.88703689  0.24095350  0.62646117  1
  V  V19  1  0.49158511  0.87555422  0.38591732  1
  V  V20  1  0.62189597  0.74852236  0.37777973  1
  V  V21  1  0.12287443  0.61858354  -0.00189528  1
  V  V22  1  0.62551680  0.24900887  0.87403296  1
  V  V23  1  0.62534061  0.00076515  0.12588201  1
  V  V24  1  0.37657125  0.75619399  0.62755369  1
  V  V25  1  0.61351794  0.61835106  0.50100174  1
  V  V26  1  0.63624944  0.37194793  0.73991737  1
  V  V27  1  -0.00030534  0.74787230  0.75005156  1
  V  V28  1  0.62567091  0.62563510  0.00216010  1
  V  V29  1  0.49222117  0.75238921  0.24847222  1
  V  V30  1  0.00701540  0.00399876  0.00722339  1
  V  V31  1  0.24212977  0.00004213  0.23958784  1
  V  V32  1  0.11450002  0.38580842  0.74960924  1
  V  V33  1  0.12144155  0.74703204  0.37807752  1
  V  V34  1  0.74979289  0.87649928  0.12556628  1
  V  V35  1  0.49578390  0.62838770  0.12600210  1
  V  V36  1  0.50063083  0.87434633  0.87562261  1
  V  V37  1  0.38158038  0.49979431  0.37772713  1
  V  V38  1  0.62005492  0.87395138  0.74809331  1
  V  V39  1  0.00279489  0.22216292  0.74472079  1
  V  V40  1  0.61617403  0.00462649  0.61739907  1
  V  V41  1  0.75490518  0.25081650  -0.00335519  1
  V  V42  1  0.25587471  0.25201125  -0.00339518  1
  V  V43  1  0.11602966  0.87388481  0.24245864  1
  V  V44  1  -0.00035756  0.87058503  0.37445806  1
  V  V45  1  0.37499098  0.12067792  0.74354949  1
  V  V46  1  0.87549126  0.00111988  0.38060229  1
  V  V47  1  0.75223769  0.12642030  0.87033581  1
  V  V48  1  0.62796341  0.74832669  0.87348589  1
  V  V49  1  0.74285008  0.12528411  0.38287153  1
  V  V50  1  0.24857111  0.50107670  0.25069970  1
  V  V51  1  0.26382973  0.62147810  0.87381059  1
  V  V52  1  0.75042874  0.49953247  0.25483602  1
  V  V53  1  0.75256042  -0.00043539  0.74782314  1
  V  V54  1  0.87608233  0.87578383  -0.00126729  1
  V  V55  1  0.49506683  0.36400797  0.37195580  1
  V  V56  1  0.87725088  0.00866495  0.87215538  1
  V  V57  1  0.87308374  0.74753077  0.62948737  1
  V  V58  1  0.86595713  0.60828250  0.75319757  1
  V  V59  1  0.12844165  0.74623635  0.87414995  1
  V  V60  1  0.50049841  0.25135271  0.74988362  1
  V  V61  1  0.25337801  0.75813711  0.50068948  1
  V  V62  1  0.37713449  0.12416537  0.24752154  1
  V  V63  1  0.24420228  0.38753973  0.62385800  1
  V  V64  1  0.13423944  0.88365789  0.74728640  1
  V  V65  1  0.75395596  0.37377850  0.12687156  1
  V  V66  1  -0.00873526  0.49097599  -0.00944691  1
  V  V67  1  0.00059657  0.63015199  0.12734375  1
  V  V68  1  0.24510652  0.12734238  0.36475638  1
  V  V69  1  0.87628074  0.87476620  0.50372984  1
  V  V70  1  0.23300867  0.22207472  0.53096576  1
  V  V71  1  0.62132417  0.36346692  0.25455958  1
  V  V72  1  0.62286102  0.87426039  0.25115022  1
  V  V73  1  0.87441635  0.12580705  0.25089730  1
  V  V74  1  0.26924664  0.50179676  0.75453644  1
  V  V75  1  0.12247233  0.37530133  0.24717404  1
  V  V76  1  -0.00305437  0.37399954  0.37818737  1
  V  V77  1  0.25136148  0.86623455  0.12618490  1
  V  V78  1  0.37599414  0.86612104  0.00593248  1
  V  V79  1  0.25400125  0.11641287  0.87702410  1
  V  V80  1  0.37192992  0.62734923  0.24990092  1
  V  V81  1  0.74793352  0.74764489  0.50297517  1
  V  V82  1  0.24429311  0.62238668  0.38500207  1
  V  V83  1  0.49736342  0.00113921  0.00034509  1
  V  V84  1  0.87976301  0.25153906  0.12167653  1
  Zn  Zn85  1  0.48445367  0.38017723  0.87781404  1
  Zn  Zn86  1  0.00561247  0.11741713  0.13113748  1
  Zn  Zn87  1  0.37760535  0.25683746  0.62616255  1
  Zn  Zn88  1  0.36399995  -0.00854819  0.38140843  1
  Zn  Zn89  1  0.81894708  0.43189483  -0.04629317  1
  Zn  Zn90  1  0.74935802  -0.00018700  0.25279879  1
  Zn  Zn91  1  0.12044785  0.49983960  0.12427679  1
  Zn  Zn92  1  0.50684819  0.13778281  0.61028762  1
  Zn  Zn93  1  0.49247153  0.01765911  0.49268429  1
  Zn  Zn94  1  0.37292275  -0.00400581  0.87164226  1
  Zn  Zn95  1  0.87263053  0.37751070  0.51385070  1
  Zn  Zn96  1  0.88008170  0.75416737  0.13085747  1
  Zn  Zn97  1  0.23400638  0.89631045  0.61060007  1
  Zn  Zn98  1  0.25265782  0.74581415  0.00331981  1
  Zn  Zn99  1  0.12836567  0.12424350  0.00545126  1
  Zn  Zn100  1  0.62676579  0.12361297  -0.00037202  1
  Zn  Zn101  1  0.49361286  0.74279059  0.75371734  1
  Zn  Zn102  1  0.48225378  0.49586956  -0.00549891  1
  Zn  Zn103  1  0.61221446  0.23677729  0.38285472  1
  Zn  Zn104  1  -0.00194413  0.24988494  0.25063204  1
  Zn  Zn105  1  0.74715975  0.87514611  0.62458468  1
  Zn  Zn106  1  0.75188208  0.60115917  0.87701575  1
  Zn  Zn107  1  0.18414088  0.19167298  0.18274283  1
  Zn  Zn108  1  0.19406729  0.18902225  0.69634934  1
  Zn  Zn109  1  0.18236479  0.68992422  0.19228439  1
  Zn  Zn110  1  0.19426063  0.68911237  0.69072939  1
  Zn  Zn111  1  0.69071670  0.18668367  0.19024415  1
  Zn  Zn112  1  0.69236406  0.18543694  0.68640852  1
  Zn  Zn113  1  0.68789372  0.69054353  0.18969067  1
  Zn  Zn114  1  0.68587243  0.68285831  0.68739144  1
  Zn  Zn115  1  0.31180253  0.31182383  0.30593147  1
  Zn  Zn116  1  0.30947643  0.30974179  0.80726740  1
  Zn  Zn117  1  0.30812570  0.81108609  0.31147829  1
  Zn  Zn118  1  0.31494041  0.80951161  0.81228818  1
  Zn  Zn119  1  0.81110073  0.30908290  0.31587458  1
  Zn  Zn120  1  0.79988097  0.42617845  0.79974482  1
  Zn  Zn121  1  0.80957819  0.81341830  0.31618237  1
  Zn  Zn122  1  0.81166810  0.81460199  0.81193599  1
  Zn  Zn123  1  0.18724307  0.43493636  0.43572206  1
  Zn  Zn124  1  0.31298681  0.43790930  0.93745718  1
  Zn  Zn125  1  0.18495835  0.93914061  0.43028128  1
  Zn  Zn126  1  0.18772865  0.93293540  0.93695577  1
  Zn  Zn127  1  0.68398501  0.43379390  0.44058368  1
  Zn  Zn128  1  0.63483433  0.44471820  0.92838479  1
  Zn  Zn129  1  0.68728209  0.93497140  0.43858119  1
  Zn  Zn130  1  0.68658194  0.93851614  0.93738163  1
  Zn  Zn131  1  0.31276870  0.06072573  0.06255824  1
  Zn  Zn132  1  0.29972107  0.06101119  0.55594952  1
  Zn  Zn133  1  0.30920000  0.56952621  0.06783859  1
  Zn  Zn134  1  0.31033824  0.56137564  0.56199159  1
  Zn  Zn135  1  0.81655064  0.06393200  0.05965343  1
  Zn  Zn136  1  0.81104215  0.06416786  0.56354332  1
  Zn  Zn137  1  0.81202815  0.56840849  0.07102164  1
  Zn  Zn138  1  0.81685298  0.56365203  0.56115445  1
  Zn  Zn139  1  0.43826916  0.44103187  0.18718862  1
  Zn  Zn140  1  0.44413443  0.43347880  0.68648348  1
  Zn  Zn141  1  0.43398078  0.94017040  0.18900043  1
  Zn  Zn142  1  0.40217856  0.96244178  0.65347417  1
  Zn  Zn143  1  0.93718145  0.44374723  0.18710233  1
  Zn  Zn144  1  0.93934806  0.43108790  0.68331874  1
  Zn  Zn145  1  0.93437436  0.93652480  0.19028497  1
  Zn  Zn146  1  0.94042488  0.93703492  0.68818120  1
  Zn  Zn147  1  0.06010413  0.05879262  0.31457970  1
  Zn  Zn148  1  0.06854516  0.06090803  0.82247603  1
  Zn  Zn149  1  0.06155729  0.56189928  0.31379436  1
  Zn  Zn150  1  0.06070595  0.56291112  0.81436160  1
  Zn  Zn151  1  0.56006237  0.05958464  0.31078629  1
  Zn  Zn152  1  0.56071279  0.06310613  0.80807098  1
  Zn  Zn153  1  0.56020541  0.55941455  0.31272278  1
  Zn  Zn154  1  0.56756152  0.56051219  0.80705416  1
  Zn  Zn155  1  0.42327508  0.18817567  0.44258111  1
  Zn  Zn156  1  0.43640662  0.19106569  0.93687781  1
  Zn  Zn157  1  0.43390328  0.68736241  0.43984510  1
  Zn  Zn158  1  0.44116235  0.68747947  0.94006092  1
  Zn  Zn159  1  0.93576317  0.18613973  0.44272479  1
  Zn  Zn160  1  0.91926106  0.28237036  0.90373191  1
  Zn  Zn161  1  0.93976356  0.68661999  0.44334622  1
  Zn  Zn162  1  0.93651818  0.68294391  0.93566637  1
  Zn  Zn163  1  0.06584149  0.31296970  0.05813707  1
  Zn  Zn164  1  0.06225095  0.31353276  0.56599519  1
  Zn  Zn165  1  0.06247774  0.80971316  0.06041409  1
  Zn  Zn166  1  0.06230327  0.81082938  0.56121130  1
  Zn  Zn167  1  0.56679857  0.31206578  0.06139384  1
  Zn  Zn168  1  0.55827505  0.31534283  0.55725934  1
  Zn  Zn169  1  0.56284360  0.81125031  0.06379443  1
  Zn  Zn170  1  0.55870054  0.80859550  0.56769023  1
  O  O171  1  0.11643902  0.13342191  0.11858864  1
  O  O172  1  0.20370659  0.14114535  0.59502387  1
  O  O173  1  0.11845577  0.62640853  0.11854908  1
  O  O174  1  0.10868862  0.63118650  0.63411886  1
  O  O175  1  0.61846884  0.12098818  0.12593766  1
  O  O176  1  0.62364162  0.10725145  0.63229927  1
  O  O177  1  0.61942079  0.62401881  0.12234368  1
  O  O178  1  0.61740182  0.61394100  0.61969964  1
  O  O179  1  0.37606817  0.37996469  0.37626252  1
  O  O180  1  0.37310752  0.36426844  0.87962194  1
  O  O181  1  0.38837662  0.87288835  0.36868440  1
  O  O182  1  0.38246886  0.87609532  0.88215149  1
  O  O183  1  0.88804660  0.37897411  0.37255707  1
  O  O184  1  0.86763472  0.37202050  0.87226211  1
  O  O185  1  0.88067102  0.88054648  0.38020930  1
  O  O186  1  0.88037884  0.88128819  0.88008535  1
  O  O187  1  0.24700873  0.00806225  0.35914912  1
  O  O188  1  0.25303122  0.01200496  0.88354756  1
  O  O189  1  0.25369569  0.50619960  0.36891330  1
  O  O190  1  0.25196717  0.50642874  0.86229892  1
  O  O191  1  0.75741615  0.00631664  0.37714614  1
  O  O192  1  0.75433003  0.00410614  0.86868607  1
  O  O193  1  0.75548170  0.50476408  0.37484606  1
  O  O194  1  0.74007186  0.48679784  0.88333279  1
  O  O195  1  0.24416754  0.49458091  0.13335190  1
  O  O196  1  0.25149718  0.49671881  0.63881519  1
  O  O197  1  0.25153531  0.99034056  0.13425059  1
  O  O198  1  0.29057721  0.98579561  0.63781316  1
  O  O199  1  0.74715581  0.49193759  0.13469186  1
  O  O200  1  0.73810024  0.50262506  0.61985346  1
  O  O201  1  0.74501719  0.99308211  0.12493787  1
  O  O202  1  0.74121139  0.99722344  0.63268596  1
  O  O203  1  0.00655102  0.37667089  0.25757006  1
  O  O204  1  0.01434569  0.36944475  0.74661915  1
  O  O205  1  0.00562245  0.87783149  0.25940319  1
  O  O206  1  0.00669636  0.86549411  0.75615560  1
  O  O207  1  0.51025224  0.38156379  0.25791888  1
  O  O208  1  0.50824467  0.36334547  0.75293134  1
  O  O209  1  0.50370158  0.86758843  0.25374077  1
  O  O210  1  0.51353327  0.86944258  0.75965666  1
  O  O211  1  0.49222873  0.11882296  0.23618220  1
  O  O212  1  0.49406720  0.13807121  0.74833020  1
  O  O213  1  0.49421647  0.63265114  0.24688146  1
  O  O214  1  0.50496415  0.62522176  0.73543509  1
  O  O215  1  0.98675848  0.12553951  0.25149673  1
  O  O216  1  1.01139234  0.12372527  0.74405657  1
  O  O217  1  0.99074907  0.62018270  0.24350301  1
  O  O218  1  0.98867776  0.62674157  0.74265990  1
  O  O219  1  0.36364726  0.24587420  0.01111482  1
  O  O220  1  0.34923873  0.25850335  0.50428216  1
  O  O221  1  0.37524963  0.76249915  0.00022978  1
  O  O222  1  0.36333912  0.74228252  0.51008552  1
  O  O223  1  0.86331307  0.24848539  0.00573659  1
  O  O224  1  0.87108547  0.25271092  0.50960060  1
  O  O225  1  0.86820655  0.75610222  0.00069720  1
  O  O226  1  0.87017791  0.75169101  0.51265387  1
  O  O227  1  0.13752980  0.25676888  0.49186012  1
  O  O228  1  0.13647714  0.25209735  0.98978545  1
  O  O229  1  0.13227004  0.75259583  0.48678116  1
  O  O230  1  0.12454590  0.74135253  0.98778120  1
  O  O231  1  0.63878384  0.25561913  0.49796067  1
  O  O232  1  0.63767249  0.24478065  0.99172557  1
  O  O233  1  0.62814149  0.74045588  0.49742722  1
  O  O234  1  0.63226576  0.74234946  0.99705720  1
  O  O235  1  0.49292029  0.24223875  0.11786921  1
  O  O236  1  0.49801900  0.25335550  0.63379630  1
  O  O237  1  0.50600059  0.73880308  0.13544515  1
  O  O238  1  0.49175838  0.73428232  0.62590760  1
  O  O239  1  0.98561207  0.25544200  0.12305003  1
  O  O240  1  0.99978905  0.24098826  0.63077823  1
  O  O241  1  0.99781184  0.73620157  0.12180236  1
  O  O242  1  0.99171518  0.73927768  0.62838725  1
  O  O243  1  0.00788128  0.25749300  0.37689334  1
  O  O244  1  0.01086857  0.23804904  0.85788353  1
  O  O245  1  0.00507769  0.76134995  0.38323903  1
  O  O246  1  0.00624806  0.75235836  0.86945827  1
  O  O247  1  0.49474528  0.26094838  0.37210426  1
  O  O248  1  0.51109632  0.24923032  0.86977622  1
  O  O249  1  0.50249563  0.75717582  0.36985085  1
  O  O250  1  0.50995658  0.75451348  0.87431805  1
  O  O251  1  0.26516143  0.13076795  0.46847292  1
  O  O252  1  0.25148012  0.13308687  0.99488334  1
  O  O253  1  0.25003809  0.63071468  0.48858102  1
  O  O254  1  0.23904834  0.62675805  0.99368439  1
  O  O255  1  0.75389110  0.13635983  0.49084158  1
  O  O256  1  0.74901805  0.12875408  0.98969497  1
  O  O257  1  0.74188112  0.62942926  0.49515522  1
  O  O258  1  0.74673036  0.63528930  0.99970721  1
  O  O259  1  0.24798866  0.36882128  0.01271701  1
  O  O260  1  0.25222767  0.37886089  0.51119008  1
  O  O261  1  0.25730251  0.87311351  0.00847681  1
  O  O262  1  0.24400472  0.86315123  0.49746712  1
  O  O263  1  0.74458031  0.36443562  0.01522413  1
  O  O264  1  0.75652897  0.35862250  0.49092817  1
  O  O265  1  0.75520883  0.87050152  0.00577902  1
  O  O266  1  0.75774909  0.86513958  0.50098198  1
  O  O267  1  0.12898082  0.48882013  0.25077982  1
  O  O268  1  0.12460875  0.48681659  0.75649216  1
  O  O269  1  0.13005901  0.98762096  0.25291179  1
  O  O270  1  0.12161957  0.98168863  0.75683180  1
  O  O271  1  0.63219257  0.49417537  0.24810089  1
  O  O272  1  0.62617321  0.48873772  0.73352054  1
  O  O273  1  0.62719596  0.99175393  0.24258805  1
  O  O274  1  0.63077616  0.99137439  0.74328255  1
  O  O275  1  0.36462042  0.00849035  0.25336926  1
  O  O276  1  0.39536870  0.01988461  0.75719612  1
  O  O277  1  0.36696202  0.50614550  0.25754716  1
  O  O278  1  0.36763307  0.49654452  0.74994103  1
  O  O279  1  0.87309325  0.00517803  0.26370281  1
  O  O280  1  0.86114474  -0.01099280  0.75717089  1
  O  O281  1  0.86912741  0.51026969  0.25994576  1
  O  O282  1  0.87205102  0.50527512  0.74475018  1
  O  O283  1  0.11591499  0.36899010  0.36819454  1
  O  O284  1  0.13196054  0.35729545  0.85667733  1
  O  O285  1  0.11545423  0.86915737  0.36673321  1
  O  O286  1  0.11990561  0.86488440  0.86903722  1
  O  O287  1  0.61114702  0.37498515  0.37081606  1
  O  O288  1  0.63445522  0.35427757  0.85670647  1
  O  O289  1  0.61659727  0.86832495  0.36934749  1
  O  O290  1  0.62056107  0.86787556  0.87157646  1
  O  O291  1  0.38168063  0.13059207  0.13076184  1
  O  O292  1  0.37837441  0.13231155  0.63871008  1
  O  O293  1  0.38421764  0.62550937  0.13719098  1
  O  O294  1  0.38800185  0.62688929  0.61926385  1
  O  O295  1  0.87739652  0.13296427  0.13321541  1
  O  O296  1  0.86885752  0.14052951  0.62429581  1
  O  O297  1  0.88098444  0.63031702  0.13851090  1
  O  O298  1  0.87926031  0.62976760  0.63706398  1
  O  O299  1  0.25744985  0.25956062  0.11781028  1
  O  O300  1  0.25504895  0.27409772  0.63186954  1
  O  O301  1  0.24721230  0.76189801  0.12558597  1
  O  O302  1  0.26160645  0.74891624  0.61764897  1
  O  O303  1  0.75895775  0.25378050  0.12000313  1
  O  O304  1  0.75624902  0.24420916  0.61032565  1
  O  O305  1  0.74987522  0.75840590  0.11466939  1
  O  O306  1  0.75648924  0.74933946  0.62126791  1
  O  O307  1  0.23583770  0.24498949  0.36360058  1
  O  O308  1  0.24514465  0.24113021  0.88186968  1
  O  O309  1  0.24483759  0.74262434  0.38227130  1
  O  O310  1  0.24293838  0.74073986  0.87640617  1
  O  O311  1  0.75045164  0.23959299  0.38593180  1
  O  O312  1  0.74654566  0.23787060  0.88297751  1
  O  O313  1  0.74128699  0.74288882  0.38168386  1
  O  O314  1  0.74496082  0.75447609  0.88831562  1
  O  O315  1  0.00005226  0.10467477  0.00048473  1
  O  O316  1  0.00075789  0.10634339  0.49159267  1
  O  O317  1  0.00365626  0.62173269  0.00772669  1
  O  O318  1  -0.00394222  0.61765066  0.51665551  1
  O  O319  1  0.50031012  0.11755675  0.01046763  1
  O  O320  1  0.50220935  0.13224829  0.49633703  1
  O  O321  1  0.50943803  0.62596936  0.01046940  1
  O  O322  1  0.50952029  0.62677264  0.50787119  1
  O  O323  1  0.48020197  0.36876361  0.48869735  1
  O  O324  1  0.53403833  0.38924721  0.98953748  1
  O  O325  1  0.50451176  0.87054831  0.48521334  1
  O  O326  1  0.49456761  0.88031415  0.99812794  1
  O  O327  1  0.99993783  0.38263418  0.49375590  1
  O  O328  1  1.00133158  0.39072812  1.00236416  1
  O  O329  1  0.99352932  0.88067252  0.49383773  1
  O  O330  1  0.99433641  0.87915393  0.99367193  1
  O  O331  1  0.48513185  0.49282188  0.37155622  1
  O  O332  1  0.52774401  0.49215761  0.88417987  1
  O  O333  1  0.50085380  0.98376245  0.37418152  1
  O  O334  1  0.50370286  0.99320484  0.88580660  1
  O  O335  1  0.99545729  0.49393114  0.38302226  1
  O  O336  1  0.99726830  0.50702486  0.89229340  1
  O  O337  1  0.99312770  0.98817508  0.38337858  1
  O  O338  1  0.99240306  0.99327247  0.88158358  1
  O  O339  1  -0.00786935  -0.00352227  0.11058805  1
  O  O340  1  -0.00470169  -0.00339453  0.60935698  1
  O  O341  1  0.00058835  0.51267267  0.11875588  1
  O  O342  1  -0.00284984  0.51134286  0.61935688  1
  O  O343  1  0.50494037  0.00614848  0.11891816  1
  O  O344  1  0.50945581  0.00207174  0.62076919  1
  O  O345  1  0.50807757  0.51415495  0.12855279  1
  O  O346  1  0.50570249  0.51104317  0.62439851  1
  O  O347  1  0.24173584  0.38060894  0.24097278  1
  O  O348  1  0.24363695  0.38891995  0.74491402  1
  O  O349  1  0.24284727  0.88105444  0.24365025  1
  O  O350  1  0.23490922  0.86942354  0.75441386  1
  O  O351  1  0.74278419  0.38014352  0.25017437  1
  O  O352  1  0.73504557  0.36334435  0.73155893  1
  O  O353  1  0.74197512  0.87488953  0.24435032  1
  O  O354  1  0.73737156  0.88196343  0.75075802  1
  O  O355  1  0.25376175  0.11889132  0.24819706  1
  O  O356  1  0.26806567  0.12872593  0.76173969  1
  O  O357  1  0.25368168  0.62148574  0.25847977  1
  O  O358  1  0.24602358  0.60921196  0.75808381  1
  O  O359  1  0.76205310  0.12280601  0.25761252  1
  O  O360  1  0.74634245  0.11428613  0.76199609  1
  O  O361  1  0.75494373  0.62052807  0.25874558  1
  O  O362  1  0.76294511  0.62431649  0.75216224  1
  O  O363  1  0.36787249  0.13328470  0.35394277  1
  O  O364  1  0.36998290  0.12379490  0.86935191  1
  O  O365  1  0.36811931  0.61686648  0.37088353  1
  O  O366  1  0.36306045  0.63151042  0.88004284  1
  O  O367  1  0.86849624  0.11745738  0.37038822  1
  O  O368  1  0.86684192  0.10954919  0.87581128  1
  O  O369  1  0.87160904  0.62068408  0.37291756  1
  O  O370  1  0.87123991  0.62712769  0.85704488  1
  O  O371  1  0.13237932  0.37557140  0.13248838  1
  O  O372  1  0.13195358  0.37373348  0.63933201  1
  O  O373  1  0.12963931  0.86775159  0.13604516  1
  O  O374  1  0.12585564  0.86531619  0.64137747  1
  O  O375  1  0.63577125  0.37760818  0.13763939  1
  O  O376  1  0.61660293  0.38990132  0.62371282  1
  O  O377  1  0.62995572  0.87950597  0.13083358  1
  O  O378  1  0.62395149  0.88137482  0.63354319  1
  O  O379  1  0.11974955  0.26266698  0.25597690  1
  O  O380  1  0.11744528  0.25092401  0.75178679  1
  O  O381  1  0.12907327  0.76154564  0.26605280  1
  O  O382  1  0.11988704  0.75010652  0.76162253  1
  O  O383  1  0.63081116  0.26111029  0.25703852  1
  O  O384  1  0.61928029  0.25030280  0.75170554  1
  O  O385  1  0.61400662  0.75332432  0.25815513  1
  O  O386  1  0.62692010  0.75528418  0.75717860  1
  O  O387  1  0.36992773  0.24158972  0.23311716  1
  O  O388  1  0.38488427  0.24128925  0.74992959  1
  O  O389  1  0.38597504  0.74499587  0.25527191  1
  O  O390  1  0.37488826  0.74839377  0.73415314  1
  O  O391  1  0.87586619  0.24197635  0.24279687  1
  O  O392  1  0.90067442  0.24234073  0.74028940  1
  O  O393  1  0.86946787  0.73771232  0.25362159  1
  O  O394  1  0.87811707  0.74688729  0.74079493  1
  O  O395  1  0.36426736  0.48927816  0.48767690  1
  O  O396  1  0.37215800  0.50221457  1.00691819  1
  O  O397  1  0.37820278  1.00480163  0.49218032  1
  O  O398  1  0.38680355  0.99167759  0.99999296  1
  O  O399  1  0.88307261  0.49639607  0.49437908  1
  O  O400  1  0.88555224  0.50597886  1.00857919  1
  O  O401  1  0.87450543  0.99390771  0.49110642  1
  O  O402  1  0.88163605  0.99260128  0.99114603  1
  O  O403  1  0.10975640  -0.00381311  -0.00549944  1
  O  O404  1  0.11651465  -0.00542015  0.50227566  1
  O  O405  1  0.11069897  0.51463527  0.00317110  1
  O  O406  1  0.11337866  0.50012868  0.49430969  1
  O  O407  1  0.61414486  0.00022804  0.00746693  1
  O  O408  1  0.62416370  -0.00718102  0.51589864  1
  O  O409  1  0.63702381  0.52045177  0.01739207  1
  O  O410  1  0.62645863  0.50702017  0.50962499  1
  O  O411  1  0.36712905  0.36830706  0.13223509  1
  O  O412  1  0.36884723  0.38023259  0.61483484  1
  O  O413  1  0.36553570  0.87895989  0.11779012  1
  O  O414  1  0.39246046  0.85338719  0.61866798  1
  O  O415  1  0.86171504  0.36838841  0.13633571  1
  O  O416  1  0.88022681  0.35229471  0.62716529  1
  O  O417  1  0.86657228  0.87272479  0.12044579  1
  O  O418  1  0.87284363  0.86425113  0.62162774  1
  O  O419  1  0.13091064  0.13639898  0.36490461  1
  O  O420  1  0.13763683  0.13342984  0.87906522  1
  O  O421  1  0.13263265  0.63400602  0.36862024  1
  O  O422  1  0.13040070  0.62990722  0.88115412  1
  O  O423  1  0.63857617  0.12319986  0.36496270  1
  O  O424  1  0.63211255  0.13257309  0.87421387  1
  O  O425  1  0.62539633  0.62722387  0.38374425  1
  O  O426  1  0.63182763  0.63255734  0.88400539  1
