# generated using pymatgen
data_V85Zn86O256
_symmetry_space_group_name_H-M   'P 1'
_cell_length_a   16.96562461
_cell_length_b   16.97291110
_cell_length_c   16.96785034
_cell_angle_alpha   89.99658749
_cell_angle_beta   90.04496112
_cell_angle_gamma   89.99775109
_symmetry_Int_Tables_number   1
_chemical_formula_structural   V85Zn86O256
_chemical_formula_sum   'V85 Zn86 O256'
_cell_volume   4885.99344650
_cell_formula_units_Z   1
loop_
 _symmetry_equiv_pos_site_id
 _symmetry_equiv_pos_as_xyz
  1  'x, y, z'
loop_
 _atom_site_type_symbol
 _atom_site_label
 _atom_site_symmetry_multiplicity
 _atom_site_fract_x
 _atom_site_fract_y
 _atom_site_fract_z
 _atom_site_occupancy
  V  V0  1  0.24985810  0.12468501  0.37543945  1
  V  V1  1  0.37711335  0.24960150  0.62289418  1
  V  V2  1  0.50644906  -0.00154328  0.00232561  1
  V  V3  1  0.12566126  0.37663925  0.24731820  1
  V  V4  1  0.61772566  0.62535605  0.49766290  1
  V  V5  1  0.61297501  0.50125557  0.61665280  1
  V  V6  1  0.75052734  0.01537291  0.75441607  1
  V  V7  1  0.88353595  0.63768059  0.24078422  1
  V  V8  1  0.37356852  0.63120574  0.74790920  1
  V  V9  1  0.12791456  0.14211834  -0.00351015  1
  V  V10  1  0.02012728  0.25420248  0.75429354  1
  V  V11  1  0.75464281  0.24411464  -0.00341094  1
  V  V12  1  0.24911844  0.37719907  0.62639034  1
  V  V13  1  0.74252494  0.62484168  0.87707946  1
  V  V14  1  0.24984256  0.74347796  0.00167401  1
  V  V15  1  0.37417470  0.87475889  0.00353332  1
  V  V16  1  -0.00569694  0.12987351  0.12290883  1
  V  V17  1  0.49458231  -0.00103325  0.50103501  1
  V  V18  1  0.25560182  0.87047239  0.13049393  1
  V  V19  1  0.62239815  0.75199662  0.87919695  1
  V  V20  1  0.87255222  0.02609353  0.87111011  1
  V  V21  1  -0.00679326  0.25199345  0.24562093  1
  V  V22  1  0.24725142  0.13645147  0.87857615  1
  V  V23  1  0.50203105  0.50302558  0.01149798  1
  V  V24  1  0.62359099  0.62335674  0.01761012  1
  V  V25  1  0.19120647  0.44176102  0.79346502  1
  V  V26  1  0.12070359  0.75483021  0.38095022  1
  V  V27  1  0.00501558  0.50363578  0.00367381  1
  V  V28  1  0.62831824  0.24705731  0.36786313  1
  V  V29  1  0.37745609  0.85965660  0.50803332  1
  V  V30  1  0.62707999  0.12256230  0.49300026  1
  V  V31  1  -0.00719330  0.63194615  0.62467730  1
  V  V32  1  0.37793489  0.50352002  0.37158030  1
  V  V33  1  0.49835204  0.87244010  0.87448037  1
  V  V34  1  -0.06215651  0.82712468  0.92852261  1
  V  V35  1  0.75673072  0.62784933  0.37263031  1
  V  V36  1  0.50235567  0.37429629  0.87491922  1
  V  V37  1  0.11735708  0.87701993  0.75465048  1
  V  V38  1  0.36935370  0.13399109  0.24187491  1
  V  V39  1  0.00137044  0.88037155  0.38279893  1
  V  V40  1  0.12695626  0.51101812  0.12520235  1
  V  V41  1  0.11560524  0.12216962  0.50170982  1
  V  V42  1  0.86792341  0.63291575  0.74356800  1
  V  V43  1  0.12347370  0.25049974  0.37681671  1
  V  V44  1  0.74755563  0.50130302  0.74779546  1
  V  V45  1  0.86917760  0.12423120  0.25290556  1
  V  V46  1  0.38026884  0.38031031  0.50107847  1
  V  V47  1  0.24982428  0.24943343  0.50064218  1
  V  V48  1  0.12362251  0.49495422  0.62586563  1
  V  V49  1  0.37723029  0.36184738  0.00706694  1
  V  V50  1  0.87379082  0.24520154  0.63637877  1
  V  V51  1  0.12643703  0.75027019  0.87262691  1
  V  V52  1  0.62986384  0.87606708  0.74652981  1
  V  V53  1  0.62365296  0.37641459  0.74939191  1
  V  V54  1  0.24439014  -0.00249610  0.25085625  1
  V  V55  1  0.12252102  0.62550023  0.50174918  1
  V  V56  1  0.11821691  -0.00106922  0.62276039  1
  V  V57  1  0.75507389  0.75257589  0.51334502  1
  V  V58  1  -0.00458277  0.49979141  0.50071639  1
  V  V59  1  0.24476181  0.62253140  0.87161217  1
  V  V60  1  -0.00090625  0.37575571  0.37432780  1
  V  V61  1  0.74830057  0.37618038  0.62227259  1
  V  V62  1  0.12237040  0.00139438  0.12462673  1
  V  V63  1  0.62564328  0.75178700  0.36618348  1
  V  V64  1  0.75138640  0.24276187  0.49403539  1
  V  V65  1  0.87694069  0.87729144  0.51652270  1
  V  V66  1  0.49844949  0.87390554  0.36512336  1
  V  V67  1  0.07075123  0.81523387  0.20621738  1
  V  V68  1  0.24790867  -0.00144477  0.75110759  1
  V  V69  1  0.50110342  0.12415378  0.62255368  1
  V  V70  1  0.87499963  0.49584243  0.87393024  1
  V  V71  1  0.76727198  0.87779397  0.12448614  1
  V  V72  1  0.49851947  0.13179199  0.12113612  1
  V  V73  1  0.87727225  0.37452566  0.00744325  1
  V  V74  1  -0.00222639  0.00640527  -0.00937759  1
  V  V75  1  0.37456517  0.49942159  0.86987850  1
  V  V76  1  0.50330328  0.37817304  0.37809015  1
  V  V77  1  0.74810782  0.37975007  0.12196134  1
  V  V78  1  0.87300282  0.37478612  0.49742696  1
  V  V79  1  0.63441586  -0.00434779  0.62297339  1
  V  V80  1  0.87074861  -0.00015150  0.37768156  1
  V  V81  1  0.37650863  0.12278869  0.75020237  1
  V  V82  1  0.25360044  0.35928034  0.12550065  1
  V  V83  1  0.62599773  0.38200036  0.24413547  1
  V  V84  1  0.24735672  0.62202736  0.37018599  1
  Zn  Zn85  1  0.25514732  0.49984352  0.24571018  1
  Zn  Zn86  1  0.37152327  -0.00018447  0.37616980  1
  Zn  Zn87  1  0.50438523  0.24676971  0.74975267  1
  Zn  Zn88  1  0.87462580  0.50228148  0.36766595  1
  Zn  Zn89  1  0.48208028  0.63186957  0.60803444  1
  Zn  Zn90  1  -0.00592882  0.12308466  0.63010107  1
  Zn  Zn91  1  0.75053406  0.50854696  0.23879380  1
  Zn  Zn92  1  0.63389223  0.00351892  0.13463790  1
  Zn  Zn93  1  -0.00968055  0.75743987  0.74654859  1
  Zn  Zn94  1  0.37381017  0.00019071  0.87619053  1
  Zn  Zn95  1  0.49580232  0.25410719  0.24321385  1
  Zn  Zn96  1  0.25440372  0.86493620  0.62952994  1
  Zn  Zn97  1  0.76033793  0.75609289  0.00185021  1
  Zn  Zn98  1  0.25781191  0.73992705  0.50827329  1
  Zn  Zn99  1  0.46876387  0.68928035  0.19313919  1
  Zn  Zn100  1  0.63097459  0.12312450  -0.00442106  1
  Zn  Zn101  1  0.49627795  0.75278345  0.74190415  1
  Zn  Zn102  1  0.01456012  0.37676142  0.87045451  1
  Zn  Zn103  1  0.63654379  0.88441311  0.25032578  1
  Zn  Zn104  1  0.70872571  0.06357830  0.30819521  1
  Zn  Zn105  1  0.63392031  0.24292970  0.87022518  1
  Zn  Zn106  1  0.00401787  0.63953631  0.12525432  1
  Zn  Zn107  1  0.18012704  0.18617378  0.18764401  1
  Zn  Zn108  1  0.19001006  0.18560733  0.68643449  1
  Zn  Zn109  1  0.30000434  0.68886720  0.19101864  1
  Zn  Zn110  1  0.18692396  0.68687155  0.68879153  1
  Zn  Zn111  1  0.68582911  0.19642908  0.17375390  1
  Zn  Zn112  1  0.68563669  0.18899863  0.68210048  1
  Zn  Zn113  1  0.69874972  0.69947657  0.18759744  1
  Zn  Zn114  1  0.67471615  0.68877689  0.68565987  1
  Zn  Zn115  1  0.31171064  0.31404676  0.31409994  1
  Zn  Zn116  1  0.32173494  0.30659169  0.81596845  1
  Zn  Zn117  1  0.30821676  0.81539234  0.32152120  1
  Zn  Zn118  1  0.31123727  0.81217265  0.81345092  1
  Zn  Zn119  1  0.81083312  0.31355838  0.30924340  1
  Zn  Zn120  1  0.81195162  0.31523654  0.81519198  1
  Zn  Zn121  1  0.81464009  0.81507719  0.31198106  1
  Zn  Zn122  1  0.79956145  0.81168095  0.80472821  1
  Zn  Zn123  1  0.18823179  0.43833020  0.43928835  1
  Zn  Zn124  1  0.19199977  0.43377714  0.95705264  1
  Zn  Zn125  1  0.19120041  0.93722575  0.44266655  1
  Zn  Zn126  1  0.18701668  0.94120635  0.93603598  1
  Zn  Zn127  1  0.68937191  0.43997598  0.43365849  1
  Zn  Zn128  1  0.68611443  0.43801562  0.93988878  1
  Zn  Zn129  1  0.68900568  0.93009572  0.44139169  1
  Zn  Zn130  1  0.69501662  0.93766219  0.94057996  1
  Zn  Zn131  1  0.31236631  0.06135366  0.06142491  1
  Zn  Zn132  1  0.30791329  0.06048819  0.56494062  1
  Zn  Zn133  1  0.31189153  0.55493343  0.06041258  1
  Zn  Zn134  1  0.30751705  0.55859648  0.56200628  1
  Zn  Zn135  1  0.81641791  0.05806722  0.06370349  1
  Zn  Zn136  1  0.81335654  0.06095563  0.56068320  1
  Zn  Zn137  1  0.81465742  0.56529072  0.06367153  1
  Zn  Zn138  1  0.80654708  0.56248651  0.56053727  1
  Zn  Zn139  1  0.43842909  0.43807475  0.18947776  1
  Zn  Zn140  1  0.43714560  0.44130674  0.68774875  1
  Zn  Zn141  1  0.43371310  0.94498022  0.18592528  1
  Zn  Zn142  1  0.44146877  0.93821572  0.68632821  1
  Zn  Zn143  1  0.93506155  0.44497172  0.18824746  1
  Zn  Zn144  1  0.93740911  0.43582541  0.68807917  1
  Zn  Zn145  1  0.93235532  0.94592455  0.18765926  1
  Zn  Zn146  1  0.93717388  0.94453155  0.69556182  1
  Zn  Zn147  1  0.05957824  0.06063216  0.31345435  1
  Zn  Zn148  1  0.06114887  0.07095595  0.81131306  1
  Zn  Zn149  1  0.06040191  0.56346302  0.31131362  1
  Zn  Zn150  1  0.05452206  0.56970662  0.81316749  1
  Zn  Zn151  1  0.54679197  0.06191880  0.31005115  1
  Zn  Zn152  1  0.56386650  0.06067819  0.81541872  1
  Zn  Zn153  1  0.56867414  0.55934127  0.31601935  1
  Zn  Zn154  1  0.55722307  0.56183870  0.81387283  1
  Zn  Zn155  1  0.43794259  0.18912563  0.43263814  1
  Zn  Zn156  1  0.44572552  0.18420363  0.93110860  1
  Zn  Zn157  1  0.43360708  0.68786781  0.35298724  1
  Zn  Zn158  1  0.43145582  0.68653173  1.03369150  1
  Zn  Zn159  1  0.93634334  0.18741349  0.43573912  1
  Zn  Zn160  1  0.94196312  0.19707643  0.93406742  1
  Zn  Zn161  1  0.93599085  0.69383553  0.43538004  1
  Zn  Zn162  1  0.93783481  0.66562297  0.93484001  1
  Zn  Zn163  1  0.05971444  0.31759710  0.06408050  1
  Zn  Zn164  1  0.05929283  0.31060625  0.56553251  1
  Zn  Zn165  1  0.07341707  0.81861984  0.04625180  1
  Zn  Zn166  1  0.06373401  0.81418052  0.56550519  1
  Zn  Zn167  1  0.56737151  0.31146684  0.06048032  1
  Zn  Zn168  1  0.56348811  0.30984380  0.56009258  1
  Zn  Zn169  1  0.57241062  0.81683862  0.07015689  1
  Zn  Zn170  1  0.56244843  0.80873202  0.56020318  1
  O  O171  1  0.11491921  0.12037372  0.11677006  1
  O  O172  1  0.12582746  0.11868267  0.61656378  1
  O  O173  1  0.12296446  0.60918701  0.13389587  1
  O  O174  1  0.11576802  0.61367077  0.62011325  1
  O  O175  1  0.61666834  0.12191107  0.11668396  1
  O  O176  1  0.61926846  0.11925941  0.61369775  1
  O  O177  1  0.63329145  0.63018734  0.11616194  1
  O  O178  1  0.63210079  0.61299574  0.61291441  1
  O  O179  1  0.38305966  0.37708716  0.38288646  1
  O  O180  1  0.38144790  0.37948034  0.88446974  1
  O  O181  1  0.38260708  0.87906636  0.38865902  1
  O  O182  1  0.38189014  0.87703759  0.88032267  1
  O  O183  1  0.87952405  0.37667555  0.38177109  1
  O  O184  1  0.87347211  0.38874770  0.88176500  1
  O  O185  1  0.88354361  0.88202507  0.38115563  1
  O  O186  1  0.87746585  0.87737225  0.86651074  1
  O  O187  1  0.24867822  0.00573042  0.36708059  1
  O  O188  1  0.25194244  0.00639254  0.86277659  1
  O  O189  1  0.25638099  0.50437693  0.37426910  1
  O  O190  1  0.25098979  0.50046214  0.87088418  1
  O  O191  1  0.76385309  -0.00322968  0.38185855  1
  O  O192  1  0.76503245  0.00187067  0.87052295  1
  O  O193  1  0.75338779  0.51751866  0.37600163  1
  O  O194  1  0.75352753  0.50665873  0.86950003  1
  O  O195  1  0.24204734  0.48837877  0.12560363  1
  O  O196  1  0.23708188  0.49078048  0.62483816  1
  O  O197  1  0.24147399  0.98913861  0.12921460  1
  O  O198  1  0.23990427  1.00020390  0.63872901  1
  O  O199  1  0.75322354  0.48653359  0.12049970  1
  O  O200  1  0.74251489  0.49234767  0.62977256  1
  O  O201  1  0.75052699  0.98796628  0.11996984  1
  O  O202  1  0.73941784  1.00520197  0.63110962  1
  O  O203  1  0.00422947  0.36951644  0.25274726  1
  O  O204  1  -0.00596759  0.36072145  0.75193135  1
  O  O205  1  0.00463354  0.87610228  0.25665592  1
  O  O206  1  0.01185839  0.87378685  0.74775645  1
  O  O207  1  0.50822876  0.37260349  0.25637933  1
  O  O208  1  0.50706214  0.37573979  0.75655904  1
  O  O209  1  0.49574223  0.88526829  0.26375068  1
  O  O210  1  0.51028223  0.87778947  0.75739561  1
  O  O211  1  0.48653337  0.12870628  0.24010653  1
  O  O212  1  0.49169360  0.12260216  0.74201771  1
  O  O213  1  0.48963038  0.62273113  0.27597197  1
  O  O214  1  0.48114748  0.62448888  0.75507528  1
  O  O215  1  0.99546726  0.13338750  0.24287808  1
  O  O216  1  1.00501892  0.14688225  0.74587629  1
  O  O217  1  0.98845921  0.62306639  0.24595232  1
  O  O218  1  0.98527628  0.62839298  0.74245949  1
  O  O219  1  0.38619868  0.26471287  -0.00463117  1
  O  O220  1  0.37001746  0.25760354  0.50294877  1
  O  O221  1  0.35763258  0.76409192  -0.00990650  1
  O  O222  1  0.37811680  0.76142979  0.49934937  1
  O  O223  1  0.86836996  0.26299794  -0.00582695  1
  O  O224  1  0.86881472  0.25861867  0.50209686  1
  O  O225  1  0.88414434  0.75910542  -0.01723926  1
  O  O226  1  0.86427247  0.76153802  0.49903605  1
  O  O227  1  0.13007674  0.24421619  0.49742973  1
  O  O228  1  0.12064231  0.24112980  1.00236349  1
  O  O229  1  0.11990759  0.73613493  0.49730086  1
  O  O230  1  0.13847156  0.75244553  0.98539069  1
  O  O231  1  0.63326438  0.24400805  0.49116707  1
  O  O232  1  0.64282240  0.25294491  0.99636071  1
  O  O233  1  0.63956745  0.74620703  0.49150172  1
  O  O234  1  0.62278041  0.73980078  0.98733208  1
  O  O235  1  0.50429399  0.23664717  0.12296540  1
  O  O236  1  0.49484226  0.24192611  0.62512514  1
  O  O237  1  0.49420303  0.74783958  0.10594548  1
  O  O238  1  0.51773478  0.73694376  0.63197525  1
  O  O239  1  1.00362005  0.24320956  0.13437687  1
  O  O240  1  0.98687111  0.25244601  0.63475985  1
  O  O241  1  1.02222768  0.75906461  0.13474052  1
  O  O242  1  1.00345990  0.73474753  0.62659115  1
  O  O243  1  0.00615125  0.25661334  0.36910251  1
  O  O244  1  0.00426486  0.25736841  0.85969040  1
  O  O245  1  0.01163657  0.76119273  0.37777518  1
  O  O246  1  0.00054852  0.75570212  0.87800938  1
  O  O247  1  0.51279448  0.25801863  0.37250598  1
  O  O248  1  0.50135900  0.26547055  0.87046448  1
  O  O249  1  0.51328991  0.76436434  0.38445059  1
  O  O250  1  0.50817238  0.76510580  0.86778576  1
  O  O251  1  0.24296241  0.13090758  0.49479031  1
  O  O252  1  0.23987253  0.11740216  0.99126529  1
  O  O253  1  0.23589927  0.62007030  0.49367732  1
  O  O254  1  0.25509555  0.63187954  0.98412436  1
  O  O255  1  0.74607117  0.13702235  0.50054232  1
  O  O256  1  0.75587248  0.14171495  1.00794936  1
  O  O257  1  0.75094775  0.63777203  0.49228264  1
  O  O258  1  0.74251764  0.62629666  0.99182686  1
  O  O259  1  0.26852368  0.37170519  0.00938059  1
  O  O260  1  0.25660166  0.36801282  0.50629589  1
  O  O261  1  0.25452230  0.87243008  0.00789532  1
  O  O262  1  0.26970879  0.87737016  0.50292195  1
  O  O263  1  0.75880374  0.37329908  0.00316926  1
  O  O264  1  0.75531234  0.36600525  0.50155451  1
  O  O265  1  0.74965348  0.87167926  0.01236054  1
  O  O266  1  0.76204104  0.86208725  0.50033231  1
  O  O267  1  0.12367916  0.48698482  0.24563163  1
  O  O268  1  0.12134855  0.50354871  0.74226448  1
  O  O269  1  0.13670495  1.00888722  0.24262333  1
  O  O270  1  0.13027845  0.99510722  0.74788438  1
  O  O271  1  0.63299202  0.48595353  0.25698641  1
  O  O272  1  0.62660613  0.49215916  0.74206818  1
  O  O273  1  0.62767949  1.00475427  0.25470609  1
  O  O274  1  0.62916257  0.99523295  0.74245087  1
  O  O275  1  0.35996493  0.01251709  0.25102926  1
  O  O276  1  0.36788082  0.00918681  0.74697808  1
  O  O277  1  0.37229019  0.49043016  0.26734730  1
  O  O278  1  0.37700553  0.50224058  0.76401746  1
  O  O279  1  0.87852035  0.01288370  0.26261019  1
  O  O280  1  0.86659931  0.00454339  0.76213469  1
  O  O281  1  0.86981029  0.51284190  0.25077836  1
  O  O282  1  0.86804447  0.50596075  0.75630382  1
  O  O283  1  0.12005429  0.37100550  0.36843680  1
  O  O284  1  0.13445274  0.39040094  0.86594996  1
  O  O285  1  0.11677155  0.86724424  0.38989055  1
  O  O286  1  0.12995327  0.86627288  0.86628308  1
  O  O287  1  0.61965041  0.36893184  0.36998108  1
  O  O288  1  0.61807282  0.37685656  0.86522564  1
  O  O289  1  0.61843184  0.86938594  0.37265105  1
  O  O290  1  0.62051520  0.86938436  0.87108840  1
  O  O291  1  0.38007334  0.12133986  0.13232958  1
  O  O292  1  0.37920128  0.12916755  0.63006940  1
  O  O293  1  0.36911992  0.63299789  0.11802617  1
  O  O294  1  0.37119527  0.61150662  0.64229197  1
  O  O295  1  0.88910522  0.11948581  0.13393876  1
  O  O296  1  0.87631327  0.14184667  0.61549557  1
  O  O297  1  0.88053288  0.62890342  0.13470747  1
  O  O298  1  0.87975752  0.61653428  0.63350802  1
  O  O299  1  0.24617158  0.26007739  0.13071354  1
  O  O300  1  0.25772200  0.25614619  0.62030552  1
  O  O301  1  0.24390811  0.76197278  0.11631145  1
  O  O302  1  0.24142755  0.75216257  0.61855090  1
  O  O303  1  0.75261640  0.26673713  0.10929284  1
  O  O304  1  0.75758221  0.25576850  0.61552306  1
  O  O305  1  0.75234982  0.76666168  0.11615740  1
  O  O306  1  0.74628637  0.74581286  0.61155087  1
  O  O307  1  0.24180267  0.24566210  0.38060267  1
  O  O308  1  0.25328937  0.23561998  0.87199277  1
  O  O309  1  0.23674289  0.74174927  0.38664403  1
  O  O310  1  0.24208468  0.74173382  0.87794296  1
  O  O311  1  0.73801821  0.25613048  0.38115983  1
  O  O312  1  0.75061411  0.25762956  0.89075702  1
  O  O313  1  0.74635382  0.74323113  0.38115889  1
  O  O314  1  0.74231542  0.74137507  0.87939557  1
  O  O315  1  0.00491791  0.12376978  0.00462623  1
  O  O316  1  0.01311104  0.13237019  0.50380150  1
  O  O317  1  0.00034708  0.61060626  0.00822700  1
  O  O318  1  0.00079898  0.61976401  0.50592358  1
  O  O319  1  0.49297789  0.11353672  0.00676319  1
  O  O320  1  0.50611229  0.11733613  0.50019274  1
  O  O321  1  0.50787754  0.60942979  -0.00697404  1
  O  O322  1  0.51821188  0.62704105  0.49475338  1
  O  O323  1  0.49126900  0.36797820  0.49172802  1
  O  O324  1  0.49598394  0.38280288  0.99539477  1
  O  O325  1  0.49201376  0.88217267  0.49629779  1
  O  O326  1  0.49181734  0.88038926  0.99410896  1
  O  O327  1  0.99056095  0.37732704  0.49565289  1
  O  O328  1  0.99359129  0.38335563  0.99356302  1
  O  O329  1  0.98534196  0.86874432  0.49624927  1
  O  O330  1  0.99757121  0.88535644  0.99162496  1
  O  O331  1  0.49346229  0.48466113  0.37791688  1
  O  O332  1  0.49263150  0.48923424  0.88062790  1
  O  O333  1  0.49558960  0.99289852  0.38677925  1
  O  O334  1  0.49670429  0.98783938  0.88195224  1
  O  O335  1  0.99777372  0.49278397  0.38334373  1
  O  O336  1  0.99137205  0.50036493  0.88165525  1
  O  O337  1  0.99475174  0.98708765  0.37463014  1
  O  O338  1  0.98627211  1.00930768  0.87734551  1
  O  O339  1  0.00426942  0.00797237  0.11525052  1
  O  O340  1  0.01339351  0.00628696  0.63356979  1
  O  O341  1  0.01089317  0.49441241  0.11711432  1
  O  O342  1  0.00348257  0.50619447  0.61970548  1
  O  O343  1  0.50112415  0.00992188  0.11677823  1
  O  O344  1  0.51004629  0.00579422  0.61670366  1
  O  O345  1  0.49543277  0.49845046  0.11034175  1
  O  O346  1  0.51047389  0.50666689  0.62489223  1
  O  O347  1  0.24151441  0.37533072  0.24465244  1
  O  O348  1  0.25653171  0.37425013  0.74510468  1
  O  O349  1  0.25524048  0.88488231  0.24291441  1
  O  O350  1  0.24223610  0.88313275  0.74976053  1
  O  O351  1  0.74487486  0.37564367  0.23901981  1
  O  O352  1  0.74223951  0.38147378  0.74414450  1
  O  O353  1  0.75422973  0.87136034  0.23485214  1
  O  O354  1  0.73506925  0.88896439  0.75266586  1
  O  O355  1  0.25176904  0.12160020  0.25436462  1
  O  O356  1  0.25655837  0.11871107  0.75547288  1
  O  O357  1  0.24344664  0.61920045  0.26665370  1
  O  O358  1  0.25772491  0.62566661  0.76103204  1
  O  O359  1  0.76553703  0.13885441  0.24249221  1
  O  O360  1  0.73997832  0.11461962  0.74863917  1
  O  O361  1  0.76081236  0.62779372  0.25579522  1
  O  O362  1  0.75073788  0.62050816  0.75533180  1
  O  O363  1  0.36525028  0.12332050  0.36850798  1
  O  O364  1  0.37082133  0.12174266  0.86541466  1
  O  O365  1  0.35990444  0.61069818  0.39351623  1
  O  O366  1  0.36236559  0.61230770  0.86375920  1
  O  O367  1  0.88150033  0.11441957  0.36763848  1
  O  O368  1  0.87396001  0.12410606  0.87269267  1
  O  O369  1  0.87140050  0.62572516  0.36788149  1
  O  O370  1  0.86221608  0.61373403  0.86659596  1
  O  O371  1  0.13320225  0.37791248  0.13264481  1
  O  O372  1  0.12687696  0.38809669  0.61928859  1
  O  O373  1  0.12704771  0.87712494  0.13630120  1
  O  O374  1  0.12724469  0.88409184  0.63216123  1
  O  O375  1  0.63262272  0.37293367  0.13343520  1
  O  O376  1  0.62784560  0.38144666  0.62803246  1
  O  O377  1  0.63376016  0.88422270  0.13253183  1
  O  O378  1  0.61930219  0.88581051  0.63278829  1
  O  O379  1  0.11469207  0.25955905  0.25543637  1
  O  O380  1  0.11839352  0.25773473  0.74046510  1
  O  O381  1  0.12919938  0.75801166  0.26352492  1
  O  O382  1  0.11875268  0.75724084  0.75931121  1
  O  O383  1  0.62507264  0.25963983  0.25501018  1
  O  O384  1  0.62532849  0.26446724  0.74739437  1
  O  O385  1  0.62845637  0.75198082  0.26367810  1
  O  O386  1  0.62849775  0.75961903  0.76233481  1
  O  O387  1  0.37482879  0.23806758  0.25551230  1
  O  O388  1  0.37912395  0.23701567  0.74266835  1
  O  O389  1  0.37253220  0.74100110  0.26525966  1
  O  O390  1  0.37459460  0.73469145  0.75418393  1
  O  O391  1  0.88836215  0.24410913  0.25843950  1
  O  O392  1  0.86773553  0.25267114  0.73638960  1
  O  O393  1  0.87782461  0.73587788  0.25531951  1
  O  O394  1  0.87131255  0.73720454  0.75384635  1
  O  O395  1  0.36981765  0.48483287  0.49325121  1
  O  O396  1  0.38538936  0.49189099  0.98915390  1
  O  O397  1  0.38647311  1.00130510  0.50192173  1
  O  O398  1  0.38079909  0.98809883  0.99807478  1
  O  O399  1  0.87572639  0.48654510  0.50083076  1
  O  O400  1  0.88241321  0.49684376  0.99224166  1
  O  O401  1  0.87178767  0.98549582  0.49593693  1
  O  O402  1  0.88698326  1.00816863  0.98415854  1
  O  O403  1  0.11148257  0.00346433  0.00304394  1
  O  O404  1  0.13165741  0.00961858  0.51127694  1
  O  O405  1  0.11682978  0.49552805  0.01217361  1
  O  O406  1  0.11654012  0.50799763  0.50580506  1
  O  O407  1  0.61235716  -0.00100723  -0.00256398  1
  O  O408  1  0.61941896  0.00177900  0.50520270  1
  O  O409  1  0.61089459  0.50742357  -0.00476603  1
  O  O410  1  0.63316165  0.50952407  0.50678479  1
  O  O411  1  0.37087328  0.37630993  0.11490593  1
  O  O412  1  0.37324133  0.37128849  0.61826316  1
  O  O413  1  0.36536557  0.87948585  0.11696210  1
  O  O414  1  0.37760653  0.87812469  0.61253527  1
  O  O415  1  0.87258742  0.38036127  0.11175832  1
  O  O416  1  0.86870012  0.36560433  0.61638662  1
  O  O417  1  0.86836568  0.88035271  0.12274940  1
  O  O418  1  0.88087731  0.88045004  0.61519179  1
  O  O419  1  0.12898571  0.12969555  0.38215245  1
  O  O420  1  0.13450694  0.12164888  0.88527886  1
  O  O421  1  0.12587455  0.62953731  0.38397215  1
  O  O422  1  0.13096127  0.63589698  0.86721213  1
  O  O423  1  0.62579637  0.13113233  0.37500846  1
  O  O424  1  0.61120788  0.13293278  0.88350308  1
  O  O425  1  0.63674217  0.63269155  0.38133834  1
  O  O426  1  0.63168686  0.63038600  0.87437965  1
