# generated using pymatgen
data_V85Zn86O256
_symmetry_space_group_name_H-M   'P 1'
_cell_length_a   16.94413837
_cell_length_b   16.94087012
_cell_length_c   16.93593959
_cell_angle_alpha   89.97218923
_cell_angle_beta   90.04279114
_cell_angle_gamma   89.97180393
_symmetry_Int_Tables_number   1
_chemical_formula_structural   V85Zn86O256
_chemical_formula_sum   'V85 Zn86 O256'
_cell_volume   4861.43264611
_cell_formula_units_Z   1
loop_
 _symmetry_equiv_pos_site_id
 _symmetry_equiv_pos_as_xyz
  1  'x, y, z'
loop_
 _atom_site_type_symbol
 _atom_site_label
 _atom_site_symmetry_multiplicity
 _atom_site_fract_x
 _atom_site_fract_y
 _atom_site_fract_z
 _atom_site_occupancy
  V  V0  1  0.87148107  0.87797532  -0.01505178  1
  V  V1  1  0.24938827  0.37513096  0.62773646  1
  V  V2  1  -0.00463931  0.23829670  0.75127257  1
  V  V3  1  0.23967579  -0.00819191  0.23889009  1
  V  V4  1  0.37696894  0.36739933  0.00577754  1
  V  V5  1  0.74063058  0.75217523  0.49780398  1
  V  V6  1  0.50280984  0.49909246  0.00247212  1
  V  V7  1  0.12552262  0.24911349  0.87788699  1
  V  V8  1  0.25318933  0.36835870  0.12511383  1
  V  V9  1  0.75000817  0.62162630  0.87277044  1
  V  V10  1  0.87872044  0.62963506  0.25190033  1
  V  V11  1  -0.00123963  0.62152826  0.12251684  1
  V  V12  1  0.37285844  0.75559043  0.62420958  1
  V  V13  1  0.62567224  0.62583985  -0.00037220  1
  V  V14  1  0.12610864  0.11868102  0.00423038  1
  V  V15  1  0.87372677  0.75107194  0.63087407  1
  V  V16  1  0.23429367  0.87734803  0.62743052  1
  V  V17  1  0.61729224  0.87980869  0.75329518  1
  V  V18  1  0.37458230  0.62584093  0.25309733  1
  V  V19  1  0.72431422  0.17517807  0.93247723  1
  V  V20  1  0.86766872  0.38131894  0.00992083  1
  V  V21  1  0.00170407  0.37959235  0.88262446  1
  V  V22  1  0.87799679  0.23605175  0.62837636  1
  V  V23  1  0.24869176  0.62910123  0.87334787  1
  V  V24  1  0.37518919  0.62593964  0.74907375  1
  V  V25  1  0.24881050  0.11784529  0.37321165  1
  V  V26  1  0.49920010  0.50031375  0.50005037  1
  V  V27  1  0.50324456  0.01544782  0.00188739  1
  V  V28  1  0.38607300  0.87525125  -0.00678245  1
  V  V29  1  -0.00145656  0.62130183  0.62126817  1
  V  V30  1  0.75485771  0.37425953  0.62339352  1
  V  V31  1  0.00427356  0.00082294  0.51314511  1
  V  V32  1  0.37065190  0.50165051  0.37301352  1
  V  V33  1  0.24988103  0.75182325  -0.00452541  1
  V  V34  1  0.38479157  -0.00143386  0.86299900  1
  V  V35  1  0.11947718  0.49669608  0.62044056  1
  V  V36  1  0.62608435  0.50130332  0.62322065  1
  V  V37  1  0.75194865  0.12092645  0.37511045  1
  V  V38  1  0.49903678  0.37270588  0.36998367  1
  V  V39  1  0.61799869  0.75329653  0.87412922  1
  V  V40  1  0.87409687  0.87459386  0.49970361  1
  V  V41  1  0.12383255  0.49784434  0.11928229  1
  V  V42  1  0.12259554  0.37533008  0.25040990  1
  V  V43  1  0.63068583  0.50154465  0.12009140  1
  V  V44  1  0.37456337  0.37350914  0.50137358  1
  V  V45  1  0.37590079  0.49928848  0.87512698  1
  V  V46  1  -0.00037453  0.00057964  0.00274780  1
  V  V47  1  0.01180251  0.86276712  0.37817904  1
  V  V48  1  0.88022335  0.49528222  0.38315020  1
  V  V49  1  0.50489268  0.87764860  0.37442843  1
  V  V50  1  0.25764420  0.12319402  0.87172011  1
  V  V51  1  0.12179139  0.62265010  -0.00713746  1
  V  V52  1  0.05942980  0.80412719  0.20156429  1
  V  V53  1  0.75076057  0.49605772  0.24973921  1
  V  V54  1  0.50386533  0.37010489  0.87419839  1
  V  V55  1  0.24900307  0.24586083  0.50371524  1
  V  V56  1  0.11941100  0.24667636  0.37742831  1
  V  V57  1  0.12106247  0.62683312  0.49285516  1
  V  V58  1  0.49633010  0.24411932  0.75298587  1
  V  V59  1  0.88241768  0.50516704  0.87941923  1
  V  V60  1  0.86992504  0.75941048  0.12747117  1
  V  V61  1  0.24533593  0.75301498  0.49107172  1
  V  V62  1  0.63134814  0.87307153  0.24484916  1
  V  V63  1  0.76072961  0.00994113  0.76406279  1
  V  V64  1  0.61906015  0.37562315  0.24056356  1
  V  V65  1  0.62243130  0.24883936  0.36742637  1
  V  V66  1  0.01690911  0.75086421  0.75378523  1
  V  V67  1  0.37470011  0.75448243  0.12614819  1
  V  V68  1  0.74227617  0.62800987  0.37482582  1
  V  V69  1  0.75307417  -0.00528392  0.24089492  1
  V  V70  1  0.49508941  0.12546558  0.62774336  1
  V  V71  1  0.62625430  0.36966112  0.74983850  1
  V  V72  1  0.74726370  0.87954138  0.62777331  1
  V  V73  1  0.74881780  0.75518364  0.00217866  1
  V  V74  1  0.01414119  0.88060223  0.86710304  1
  V  V75  1  0.62377942  0.12635466  0.49780053  1
  V  V76  1  0.50503380  0.75237946  0.25712104  1
  V  V77  1  0.23558683  -0.00049412  0.74600042  1
  V  V78  1  0.49862240  0.62692405  0.62526953  1
  V  V79  1  0.50033462  0.62387715  0.12611356  1
  V  V80  1  0.12214077  0.11982006  0.51677772  1
  V  V81  1  0.75447740  0.25194063  0.49670813  1
  V  V82  1  0.87993219  0.12622292  0.24699825  1
  V  V83  1  0.49923764  0.00209309  0.49618208  1
  V  V84  1  0.87937277  -0.00250895  0.37650121  1
  Zn  Zn85  1  0.37874732  0.00206649  0.36480035  1
  Zn  Zn86  1  0.25590164  0.24138663  0.00428951  1
  Zn  Zn87  1  0.62562999  0.00481814  0.62928678  1
  Zn  Zn88  1  0.24841920  0.50120536  0.25073514  1
  Zn  Zn89  1  0.37310307  0.24661283  0.62902653  1
  Zn  Zn90  1  0.75252352  0.50154283  0.74977751  1
  Zn  Zn91  1  0.00534271  0.38225851  0.38247297  1
  Zn  Zn92  1  0.36871151  0.13398458  0.23717166  1
  Zn  Zn93  1  0.00392667  0.12403979  0.12647284  1
  Zn  Zn94  1  0.24332310  0.62932899  0.37256407  1
  Zn  Zn95  1  0.87480015  0.62523812  0.75018106  1
  Zn  Zn96  1  0.49622355  0.75600952  0.75323677  1
  Zn  Zn97  1  0.49860271  0.14304252  0.14217156  1
  Zn  Zn98  1  0.63140429  0.00560150  0.11493746  1
  Zn  Zn99  1  -0.00026413  0.24942669  0.24629996  1
  Zn  Zn100  1  0.12191534  0.37524110  0.75091253  1
  Zn  Zn101  1  0.23655684  0.87553600  0.12317098  1
  Zn  Zn102  1  0.88967667  0.38003584  0.50955501  1
  Zn  Zn103  1  0.62046788  0.62996891  0.49566120  1
  Zn  Zn104  1  0.24847595  0.49916090  0.74903301  1
  Zn  Zn105  1  0.37275238  0.87804244  0.49681901  1
  Zn  Zn106  1  0.86947305  0.24696951  0.11319321  1
  Zn  Zn107  1  0.18864116  0.18652395  0.18956343  1
  Zn  Zn108  1  0.18756215  0.18725064  0.69402531  1
  Zn  Zn109  1  0.19305006  0.68290697  0.18107687  1
  Zn  Zn110  1  0.18974005  0.68487459  0.68089773  1
  Zn  Zn111  1  0.68471659  0.18763143  0.11621420  1
  Zn  Zn112  1  0.68625060  0.18721827  0.68813364  1
  Zn  Zn113  1  0.68989822  0.68800475  0.18868503  1
  Zn  Zn114  1  0.68532315  0.68980160  0.68848596  1
  Zn  Zn115  1  0.30142512  0.31497005  0.31951220  1
  Zn  Zn116  1  0.31411406  0.31090037  0.81340900  1
  Zn  Zn117  1  0.31361203  0.81993255  0.31160037  1
  Zn  Zn118  1  0.31065097  0.81684017  0.81031105  1
  Zn  Zn119  1  0.77662551  0.28178577  0.26601009  1
  Zn  Zn120  1  0.81961458  0.31566025  0.81130998  1
  Zn  Zn121  1  0.81445977  0.81181773  0.31549565  1
  Zn  Zn122  1  0.80668862  0.81371580  0.81147592  1
  Zn  Zn123  1  0.18528848  0.43854386  0.44085892  1
  Zn  Zn124  1  0.18948356  0.43722133  0.93879123  1
  Zn  Zn125  1  0.18644884  0.93875919  0.43735076  1
  Zn  Zn126  1  0.19156431  0.93916443  0.93606510  1
  Zn  Zn127  1  0.68987741  0.43747094  0.43635789  1
  Zn  Zn128  1  0.69257734  0.34757754  0.93974571  1
  Zn  Zn129  1  0.68319585  0.93680227  0.43265554  1
  Zn  Zn130  1  0.68505569  0.93842088  0.93476779  1
  Zn  Zn131  1  0.31771479  0.06078365  0.06523189  1
  Zn  Zn132  1  0.31394538  0.06096259  0.56343118  1
  Zn  Zn133  1  0.31237519  0.55810153  0.06363315  1
  Zn  Zn134  1  0.30849346  0.56403064  0.56043431  1
  Zn  Zn135  1  0.81635445  0.06082250  0.05579503  1
  Zn  Zn136  1  0.81213312  0.06011628  0.56246247  1
  Zn  Zn137  1  0.81389951  0.56183587  0.05887590  1
  Zn  Zn138  1  0.81008571  0.56563599  0.56207477  1
  Zn  Zn139  1  0.43254801  0.30183772  0.18792845  1
  Zn  Zn140  1  0.43698961  0.43675304  0.68845083  1
  Zn  Zn141  1  0.43175532  0.94317785  0.18678338  1
  Zn  Zn142  1  0.43684912  0.93962088  0.68326397  1
  Zn  Zn143  1  0.94100639  0.44178135  0.19290741  1
  Zn  Zn144  1  0.93869291  0.43498643  0.69624725  1
  Zn  Zn145  1  0.93652214  0.94148909  0.18306727  1
  Zn  Zn146  1  0.93662829  0.93634886  0.69176501  1
  Zn  Zn147  1  0.06353061  0.05707499  0.31785035  1
  Zn  Zn148  1  0.06349555  0.06283391  0.81868658  1
  Zn  Zn149  1  0.06014307  0.56612582  0.30737436  1
  Zn  Zn150  1  0.06320140  0.56200925  0.80650815  1
  Zn  Zn151  1  0.56987692  0.07184261  0.28857868  1
  Zn  Zn152  1  0.57504920  0.06780545  0.82006797  1
  Zn  Zn153  1  0.55995906  0.56012963  0.31163589  1
  Zn  Zn154  1  0.56317797  0.56097464  0.81066208  1
  Zn  Zn155  1  0.43553284  0.18704518  0.42857912  1
  Zn  Zn156  1  0.44001630  0.18586770  0.93789914  1
  Zn  Zn157  1  0.43518237  0.69032191  0.43889004  1
  Zn  Zn158  1  0.43687568  0.68723859  0.93799182  1
  Zn  Zn159  1  0.93886752  0.18639181  0.44152590  1
  Zn  Zn160  1  0.92613406  0.18806482  0.93517465  1
  Zn  Zn161  1  0.93089681  0.68682685  0.44065481  1
  Zn  Zn162  1  0.93795609  0.69213299  0.93541889  1
  Zn  Zn163  1  0.05595817  0.30768381  0.06245172  1
  Zn  Zn164  1  0.05941005  0.30960650  0.56365681  1
  Zn  Zn165  1  0.06033391  0.80563123  0.03650558  1
  Zn  Zn166  1  0.06071205  0.80989977  0.56153196  1
  Zn  Zn167  1  0.57402707  0.30728410  0.05281799  1
  Zn  Zn168  1  0.56330450  0.31041715  0.56095465  1
  Zn  Zn169  1  0.56365206  0.81549845  0.06750059  1
  Zn  Zn170  1  0.56107907  0.81594846  0.56524776  1
  O  O171  1  0.12419803  0.13244444  0.10772183  1
  O  O172  1  0.12784690  0.12784258  0.61564900  1
  O  O173  1  0.12016041  0.61810377  0.11628533  1
  O  O174  1  0.11717336  0.61777891  0.61732532  1
  O  O175  1  0.61129820  0.11075050  0.15512523  1
  O  O176  1  0.61579542  0.12716310  0.61320270  1
  O  O177  1  0.62080699  0.62280939  0.11939686  1
  O  O178  1  0.61874189  0.61726704  0.62424209  1
  O  O179  1  0.37918126  0.38354803  0.38089554  1
  O  O180  1  0.38313255  0.38324662  0.87899393  1
  O  O181  1  0.38952929  0.87774503  0.37687410  1
  O  O182  1  0.37168855  0.88493137  0.88155707  1
  O  O183  1  0.87507668  0.39428357  0.37560851  1
  O  O184  1  0.88254138  0.38766495  0.88259589  1
  O  O185  1  0.88150690  0.88251945  0.38077243  1
  O  O186  1  0.88347375  0.86429355  0.88242271  1
  O  O187  1  0.25138729  0.00413027  0.36809994  1
  O  O188  1  0.25769281  0.00411038  0.86321181  1
  O  O189  1  0.25730400  0.50359905  0.37462358  1
  O  O190  1  0.26183426  0.50745407  0.87524796  1
  O  O191  1  0.76193652  0.00182365  0.37533762  1
  O  O192  1  0.75282565  -0.00580233  0.86336249  1
  O  O193  1  0.75785045  0.50895090  0.36927556  1
  O  O194  1  0.75889722  0.51723899  0.87470243  1
  O  O195  1  0.24180927  0.48993060  0.12692649  1
  O  O196  1  0.24310259  0.49140063  0.62507504  1
  O  O197  1  0.24678806  0.99453591  0.13253741  1
  O  O198  1  0.25636380  0.99332609  0.63858551  1
  O  O199  1  0.73931756  0.51316210  0.13508387  1
  O  O200  1  0.74280289  0.49424609  0.62554578  1
  O  O201  1  0.75393731  0.99517435  0.13883365  1
  O  O202  1  0.74686388  0.98769900  0.62435298  1
  O  O203  1  0.01194046  0.37508257  0.25656713  1
  O  O204  1  0.00225310  0.36488652  0.76486411  1
  O  O205  1  0.00193846  0.87180122  0.25745612  1
  O  O206  1  -0.00058322  0.86491328  0.75860403  1
  O  O207  1  0.50582755  0.37732168  0.26369506  1
  O  O208  1  0.50613652  0.37010557  0.75583769  1
  O  O209  1  0.50484323  0.86999394  0.25477369  1
  O  O210  1  0.51302224  0.87501392  0.74319626  1
  O  O211  1  0.48207654  0.12881528  0.26174571  1
  O  O212  1  0.51402153  0.13421726  0.74234264  1
  O  O213  1  0.49081515  0.63242181  0.24848389  1
  O  O214  1  0.49263678  0.62655153  0.74251308  1
  O  O215  1  0.99397846  0.11854722  0.24915893  1
  O  O216  1  1.00014683  0.13916140  0.76152964  1
  O  O217  1  0.98693244  0.62608000  0.24076433  1
  O  O218  1  0.99888992  0.63820365  0.74157154  1
  O  O219  1  0.37373437  0.26444508  -0.00964449  1
  O  O220  1  0.36621587  0.25693770  0.50067255  1
  O  O221  1  0.36747698  0.75308683  0.00501005  1
  O  O222  1  0.36551213  0.75161442  0.50904393  1
  O  O223  1  0.87519058  0.27591019  -0.00104012  1
  O  O224  1  0.87034510  0.25351634  0.50785411  1
  O  O225  1  0.86753427  0.75629122  0.00538688  1
  O  O226  1  0.86471159  0.75485884  0.51278314  1
  O  O227  1  0.12942813  0.23957869  0.49690794  1
  O  O228  1  0.12526324  0.24384757  0.98766339  1
  O  O229  1  0.13348835  0.73974755  0.50636749  1
  O  O230  1  0.14148631  0.73721086  0.99819383  1
  O  O231  1  0.63365397  0.24699391  0.49010668  1
  O  O232  1  0.65995482  0.25494727  1.00277344  1
  O  O233  1  0.63690909  0.74970294  0.50640142  1
  O  O234  1  0.63091765  0.74838035  0.99547117  1
  O  O235  1  0.51055822  0.25708010  0.12543681  1
  O  O236  1  0.49914905  0.24354921  0.63211212  1
  O  O237  1  0.49308868  0.74476858  0.13479120  1
  O  O238  1  0.49030528  0.74462867  0.62520839  1
  O  O239  1  0.98927468  0.24444064  0.12914297  1
  O  O240  1  0.99402439  0.25275205  0.64281382  1
  O  O241  1  0.99930531  0.74680629  0.13131523  1
  O  O242  1  0.99227669  0.74706226  0.63547103  1
  O  O243  1  0.01326352  0.24865143  0.37591343  1
  O  O244  1  0.00363184  0.25485054  0.87007700  1
  O  O245  1  -0.00969129  0.76431278  0.37906242  1
  O  O246  1  -0.00001879  0.75665310  0.85950483  1
  O  O247  1  0.51019614  0.26215300  0.38509106  1
  O  O248  1  0.50050017  0.25937108  0.86854298  1
  O  O249  1  0.49525404  0.75526365  0.36298204  1
  O  O250  1  0.51371673  0.74219112  0.87334427  1
  O  O251  1  0.24105897  0.12525021  0.49676686  1
  O  O252  1  0.24328678  0.12169912  0.99097259  1
  O  O253  1  0.23966937  0.63514542  0.49937596  1
  O  O254  1  0.24641770  0.62919363  0.99245233  1
  O  O255  1  0.74404948  0.12996840  0.49423919  1
  O  O256  1  0.72589255  0.12075176  1.02753114  1
  O  O257  1  0.74690214  0.63435334  0.49283585  1
  O  O258  1  0.74571900  0.63604282  0.99337848  1
  O  O259  1  0.26063282  0.37493655  0.00697094  1
  O  O260  1  0.25255887  0.36871709  0.51096039  1
  O  O261  1  0.25654722  0.86646336  0.00142687  1
  O  O262  1  0.25093199  0.87035976  0.50762371  1
  O  O263  1  0.76919620  0.39947991  0.00532298  1
  O  O264  1  0.75180946  0.37023140  0.51075772  1
  O  O265  1  0.75629472  0.86378636  -0.00656117  1
  O  O266  1  0.75253696  0.87005027  0.50541795  1
  O  O267  1  0.12537883  0.49588997  0.23858793  1
  O  O268  1  0.12910253  0.49820570  0.73596743  1
  O  O269  1  0.14030999  1.00116182  0.25314251  1
  O  O270  1  0.13696068  1.00107304  0.75290905  1
  O  O271  1  0.62911336  0.49657364  0.24297631  1
  O  O272  1  0.62411521  0.49052288  0.73753879  1
  O  O273  1  0.64143485  0.98810226  0.26132986  1
  O  O274  1  0.63345735  0.99268853  0.75052960  1
  O  O275  1  0.35833465  0.00310993  0.24931712  1
  O  O276  1  0.37345350  -0.00313114  0.76054046  1
  O  O277  1  0.37474851  0.51055031  0.26541871  1
  O  O278  1  0.37329532  0.50587686  0.75853302  1
  O  O279  1  0.87250156  0.00082852  0.25841136  1
  O  O280  1  0.85938556  -0.00405056  0.74646652  1
  O  O281  1  0.86652324  0.50912154  0.25587837  1
  O  O282  1  0.87244623  0.50385415  0.76341034  1
  O  O283  1  0.12796829  0.36802876  0.36763952  1
  O  O284  1  0.12135194  0.36815184  0.87535240  1
  O  O285  1  0.11090688  0.87070656  0.38051895  1
  O  O286  1  0.11232982  0.87184114  0.87885259  1
  O  O287  1  0.61611566  0.37355689  0.37003257  1
  O  O288  1  0.61152548  0.38630556  0.86432565  1
  O  O289  1  0.61223601  0.87241048  0.36604024  1
  O  O290  1  0.62836417  0.86406458  0.86570895  1
  O  O291  1  0.38327840  0.12948992  0.12097429  1
  O  O292  1  0.39080286  0.12710162  0.62121318  1
  O  O293  1  0.37873764  0.63235185  0.13194308  1
  O  O294  1  0.37631077  0.63419948  0.62914488  1
  O  O295  1  0.87984846  0.12091088  0.13586911  1
  O  O296  1  0.87246110  0.13707647  0.62086929  1
  O  O297  1  0.88352857  0.63472358  0.12717623  1
  O  O298  1  0.88134978  0.63217770  0.62617163  1
  O  O299  1  0.23968121  0.26489338  0.12078880  1
  O  O300  1  0.25119233  0.25650504  0.62258143  1
  O  O301  1  0.25911989  0.75098647  0.11506620  1
  O  O302  1  0.25596470  0.75822946  0.61903219  1
  O  O303  1  0.76537293  0.25314227  0.15679063  1
  O  O304  1  0.75774890  0.25726774  0.62123322  1
  O  O305  1  0.75862046  0.74586632  0.11441079  1
  O  O306  1  0.75480458  0.75968433  0.62130462  1
  O  O307  1  0.23626001  0.24247365  0.38554812  1
  O  O308  1  0.24342495  0.24130929  0.87417857  1
  O  O309  1  0.25580893  0.75161185  0.38768490  1
  O  O310  1  0.25807062  0.73726488  0.88017281  1
  O  O311  1  0.74336788  0.24176364  0.37590239  1
  O  O312  1  0.74015000  0.26762751  0.87333180  1
  O  O313  1  0.75619109  0.74121931  0.38657077  1
  O  O314  1  0.74109208  0.74108172  0.88082184  1
  O  O315  1  0.00454980  0.11504566  -0.00845998  1
  O  O316  1  0.01086328  0.11386679  0.49714773  1
  O  O317  1  0.01261037  0.63838946  0.00745408  1
  O  O318  1  0.00485452  0.63387990  0.51341573  1
  O  O319  1  0.50594405  0.11651342  0.00153402  1
  O  O320  1  0.50485524  0.12046192  0.50292800  1
  O  O321  1  0.50484713  0.62019821  0.00531468  1
  O  O322  1  0.50082128  0.61969162  0.50585398  1
  O  O323  1  0.49486605  0.38147353  0.49312831  1
  O  O324  1  0.49759684  0.37992968  0.99096040  1
  O  O325  1  0.50171487  0.88328326  0.49275332  1
  O  O326  1  0.48715841  0.86796796  0.99848509  1
  O  O327  1  1.00176351  0.37552381  0.49579030  1
  O  O328  1  0.99716412  0.37583621  0.98687111  1
  O  O329  1  0.99476173  0.87774351  0.49251716  1
  O  O330  1  0.99319332  0.87867066  0.98386068  1
  O  O331  1  0.49282121  0.49377337  0.38145141  1
  O  O332  1  0.49043338  0.49559557  0.87870253  1
  O  O333  1  0.50047326  0.99297219  0.38134853  1
  O  O334  1  0.49434524  1.00921070  0.88440020  1
  O  O335  1  0.98316004  0.50539389  0.36937169  1
  O  O336  1  0.99472687  0.49398625  0.86909910  1
  O  O337  1  0.99386439  0.98708312  0.38289431  1
  O  O338  1  0.99994181  0.98507637  0.87676330  1
  O  O339  1  0.00146780  -0.00102011  0.10717615  1
  O  O340  1  -0.00322269  -0.00969892  0.61215996  1
  O  O341  1  0.00709233  0.51477568  0.12692107  1
  O  O342  1  0.00524568  0.51068963  0.63266234  1
  O  O343  1  0.49474368  -0.00552489  0.10488726  1
  O  O344  1  0.50413486  0.00794823  0.61716550  1
  O  O345  1  0.51467473  0.51070786  0.12027815  1
  O  O346  1  0.50560042  0.50490678  0.61959205  1
  O  O347  1  0.23672305  0.37964423  0.24351424  1
  O  O348  1  0.24944631  0.37475886  0.73870689  1
  O  O349  1  0.24830387  0.88527998  0.24439804  1
  O  O350  1  0.25089433  0.88838379  0.74261885  1
  O  O351  1  0.73574285  0.39220406  0.25940501  1
  O  O352  1  0.74265972  0.37835084  0.73905442  1
  O  O353  1  0.74252821  0.88023509  0.25846863  1
  O  O354  1  0.74089598  0.88070869  0.74251039  1
  O  O355  1  0.24752054  0.11496685  0.25748939  1
  O  O356  1  0.24953224  0.11177006  0.75689955  1
  O  O357  1  0.26259655  0.62434147  0.25164490  1
  O  O358  1  0.25584644  0.62386402  0.75699964  1
  O  O359  1  0.76456727  0.10867380  0.26313391  1
  O  O360  1  0.74550685  0.10806842  0.74253052  1
  O  O361  1  0.75667855  0.61840853  0.25703682  1
  O  O362  1  0.75113812  0.62485554  0.75782431  1
  O  O363  1  0.35536681  0.12259355  0.38135634  1
  O  O364  1  0.36417936  0.11636928  0.88063828  1
  O  O365  1  0.37311585  0.62026584  0.36912418  1
  O  O366  1  0.36962453  0.61758148  0.87102345  1
  O  O367  1  0.87461186  0.11016631  0.37565505  1
  O  O368  1  0.82267203  0.14429969  0.91345597  1
  O  O369  1  0.86661862  0.62038146  0.36777471  1
  O  O370  1  0.86980390  0.62329978  0.87408578  1
  O  O371  1  0.12591785  0.38171678  0.12924692  1
  O  O372  1  0.13169887  0.38102929  0.62650754  1
  O  O373  1  0.11465233  0.85490015  0.13117291  1
  O  O374  1  0.13518392  0.87234607  0.62304185  1
  O  O375  1  0.62307543  0.38742725  0.13532608  1
  O  O376  1  0.63156084  0.38158740  0.62904737  1
  O  O377  1  0.62132629  0.88251596  0.14076718  1
  O  O378  1  0.63260788  0.87678836  0.63352530  1
  O  O379  1  0.12383749  0.25727337  0.25916597  1
  O  O380  1  0.11548478  0.25050052  0.76195631  1
  O  O381  1  0.12016686  0.74250656  0.25062738  1
  O  O382  1  0.11486979  0.74690758  0.74535631  1
  O  O383  1  0.63121128  0.26501447  0.26452347  1
  O  O384  1  0.61619160  0.26492159  0.74182357  1
  O  O385  1  0.61572390  0.75649520  0.24547552  1
  O  O386  1  0.62305383  0.75837019  0.75822559  1
  O  O387  1  0.36161827  0.25034344  0.25462397  1
  O  O388  1  0.39157109  0.25471602  0.74832162  1
  O  O389  1  0.37989092  0.74575873  0.24291635  1
  O  O390  1  0.37553786  0.74554263  0.74228361  1
  O  O391  1  0.88264717  0.22900557  0.26942539  1
  O  O392  1  0.88712066  0.25130938  0.74508415  1
  O  O393  1  0.86631186  0.74092463  0.24040475  1
  O  O394  1  0.87615280  0.75069858  0.73889776  1
  O  O395  1  0.37792023  0.49658874  0.49117557  1
  O  O396  1  0.38241447  0.49151294  0.99417887  1
  O  O397  1  0.38915775  0.99904910  0.49867004  1
  O  O398  1  0.38556873  0.99193836  0.98941422  1
  O  O399  1  0.86922508  0.50192515  0.48664896  1
  O  O400  1  0.88156303  0.50020870  0.98826300  1
  O  O401  1  0.88153670  0.99324379  0.49462160  1
  O  O402  1  0.88239899  0.98659072  1.00025489  1
  O  O403  1  0.11607346  0.00823769  -0.00999092  1
  O  O404  1  0.11726751  0.00904028  0.49797693  1
  O  O405  1  0.12937798  0.50776293  0.01093242  1
  O  O406  1  0.12810669  0.50921175  0.51318812  1
  O  O407  1  0.60567628  -0.01258876  -0.00018728  1
  O  O408  1  0.61524497  0.00762671  0.49932311  1
  O  O409  1  0.62065862  0.50806287  0.00850018  1
  O  O410  1  0.62080352  0.50056711  0.51053921  1
  O  O411  1  0.36592333  0.37769628  0.11677857  1
  O  O412  1  0.36735027  0.37511499  0.61853781  1
  O  O413  1  0.37444807  0.86252094  0.11759590  1
  O  O414  1  0.37014707  0.86450660  0.62299126  1
  O  O415  1  0.88476940  0.38629257  0.11127999  1
  O  O416  1  0.86695099  0.37099142  0.62755202  1
  O  O417  1  0.88429910  0.86199887  0.11448721  1
  O  O418  1  0.86733207  0.86816248  0.62009123  1
  O  O419  1  0.13272689  0.13009251  0.38224722  1
  O  O420  1  0.13588872  0.13121677  0.88180848  1
  O  O421  1  0.12275627  0.61831396  0.38850234  1
  O  O422  1  0.13488294  0.61533011  0.88302359  1
  O  O423  1  0.63045687  0.13328712  0.37815259  1
  O  O424  1  0.65213717  0.12859306  0.88051903  1
  O  O425  1  0.63748496  0.61958710  0.37503776  1
  O  O426  1  0.63170662  0.62878974  0.87984893  1
