# generated using pymatgen
data_V85Zn86O256
_symmetry_space_group_name_H-M   'P 1'
_cell_length_a   16.94901617
_cell_length_b   16.95539525
_cell_length_c   16.94356497
_cell_angle_alpha   89.92872439
_cell_angle_beta   90.03933920
_cell_angle_gamma   89.95246370
_symmetry_Int_Tables_number   1
_chemical_formula_structural   V85Zn86O256
_chemical_formula_sum   'V85 Zn86 O256'
_cell_volume   4869.18881931
_cell_formula_units_Z   1
loop_
 _symmetry_equiv_pos_site_id
 _symmetry_equiv_pos_as_xyz
  1  'x, y, z'
loop_
 _atom_site_type_symbol
 _atom_site_label
 _atom_site_symmetry_multiplicity
 _atom_site_fract_x
 _atom_site_fract_y
 _atom_site_fract_z
 _atom_site_occupancy
  V  V0  1  0.37542894  0.12637754  0.24600052  1
  V  V1  1  0.13400814  0.74518868  0.87896554  1
  V  V2  1  0.92077821  0.31625938  0.56062306  1
  V  V3  1  0.49869523  0.12523135  0.12114439  1
  V  V4  1  0.86763772  -0.00375219  0.36772274  1
  V  V5  1  0.00517922  0.00225817  0.49885296  1
  V  V6  1  0.12436196  0.12854848  0.00650492  1
  V  V7  1  0.87593176  0.87295842  0.50052106  1
  V  V8  1  0.74904581  0.37711001  0.61940036  1
  V  V9  1  0.00092787  0.74020844  0.74772353  1
  V  V10  1  0.12376506  0.74761323  0.37301554  1
  V  V11  1  0.62134564  0.62446362  0.49673004  1
  V  V12  1  0.37137760  0.62731269  0.24424937  1
  V  V13  1  0.37331360  0.37587853  -0.00235222  1
  V  V14  1  0.75191078  0.24396081  0.50690853  1
  V  V15  1  0.76513527  -0.00179690  0.75479000  1
  V  V16  1  0.62549753  -0.00325124  0.12134917  1
  V  V17  1  0.80687455  0.17266611  0.31941093  1
  V  V18  1  0.48758225  0.12529381  0.62631904  1
  V  V19  1  0.73906976  0.74466333  0.00470062  1
  V  V20  1  0.12226771  0.62770231  0.51038930  1
  V  V21  1  0.49934456  -0.00055635  0.49922865  1
  V  V22  1  0.61382174  0.25050478  0.37552870  1
  V  V23  1  0.87557416  0.50835617  0.87753912  1
  V  V24  1  0.00024749  0.37417664  0.86488457  1
  V  V25  1  0.62604313  0.12416134  -0.00503929  1
  V  V26  1  0.37305057  0.37418556  0.51172542  1
  V  V27  1  0.24949307  0.48606851  0.74725150  1
  V  V28  1  0.12133079  0.25363513  0.86355819  1
  V  V29  1  0.73102530  0.62957491  0.87502022  1
  V  V30  1  0.37289780  0.75262305  0.62592517  1
  V  V31  1  0.37501308  0.00068580  0.37270724  1
  V  V32  1  0.49942801  0.37293750  0.87212898  1
  V  V33  1  0.38212880  0.86923641  -0.00177896  1
  V  V34  1  0.24368673  0.38374439  0.12425389  1
  V  V35  1  0.00078704  0.87608989  0.37193348  1
  V  V36  1  0.62766494  0.37361191  0.74777032  1
  V  V37  1  0.24974861  0.00330988  0.24171158  1
  V  V38  1  0.25507190  0.74732505  0.00856357  1
  V  V39  1  0.48942277  0.75326206  0.23903657  1
  V  V40  1  0.87305612  0.50130273  0.38124758  1
  V  V41  1  -0.02068341  0.12906054  0.12887901  1
  V  V42  1  0.87767537  0.86723056  0.01104318  1
  V  V43  1  0.75408893  0.24895049  0.00269818  1
  V  V44  1  0.62771960  0.00266576  0.62633160  1
  V  V45  1  0.37360310  0.25270685  0.12401268  1
  V  V46  1  0.49991830  -0.00351816  -0.01607984  1
  V  V47  1  0.61715644  0.37728770  0.24694774  1
  V  V48  1  0.37331020  0.87649140  0.50026785  1
  V  V49  1  0.62392023  0.86987879  0.76249990  1
  V  V50  1  0.24687031  0.89526410  0.62978490  1
  V  V51  1  0.62982939  0.12093658  0.49442707  1
  V  V52  1  0.36813682  0.50311027  0.87508378  1
  V  V53  1  0.13243006  0.12032937  0.49444029  1
  V  V54  1  0.09878334  0.03468664  0.65925874  1
  V  V55  1  0.74739664  0.50160465  0.23630314  1
  V  V56  1  0.13345962  0.61827304  0.00297241  1
  V  V57  1  0.62898098  0.24690398  0.86936954  1
  V  V58  1  0.00094831  0.63024773  0.12285726  1
  V  V59  1  0.37090072  0.49377460  0.37261880  1
  V  V60  1  0.87671918  0.37342130  0.00944701  1
  V  V61  1  0.25494674  0.25175484  0.50858287  1
  V  V62  1  0.49859478  0.62516025  0.62500328  1
  V  V63  1  -0.00579137  0.50698064  0.50920537  1
  V  V64  1  0.74965406  0.87027728  0.62571988  1
  V  V65  1  0.50438378  0.74929638  0.76251535  1
  V  V66  1  -0.00746225  0.87644192  0.87440232  1
  V  V67  1  0.49742568  0.87542052  0.37459614  1
  V  V68  1  0.76912796  0.12071236  0.87171259  1
  V  V69  1  0.00506613  0.49786130  0.00811245  1
  V  V70  1  0.62153521  0.75102654  0.37514197  1
  V  V71  1  0.51200557  0.50189905  0.00459400  1
  V  V72  1  0.62514311  0.87614322  0.24934481  1
  V  V73  1  0.11949641  0.38216227  0.24462209  1
  V  V74  1  0.12782046  0.25158759  0.36879838  1
  V  V75  1  0.12535032  0.87526739  0.24529411  1
  V  V76  1  0.13003155  0.49297488  0.62982098  1
  V  V77  1  -0.00346283  0.37435292  0.37750097  1
  V  V78  1  0.49905923  0.49465754  0.48693624  1
  V  V79  1  0.87530919  0.63089596  0.24468518  1
  V  V80  1  0.13370105  0.87311032  0.75457420  1
  V  V81  1  0.24828972  0.75277917  0.50323484  1
  V  V82  1  0.36419569  0.62753430  0.75245259  1
  V  V83  1  0.49032121  0.24527339  0.74444710  1
  V  V84  1  0.74818445  0.62361465  0.37411392  1
  Zn  Zn85  1  -0.00846144  0.00355234  -0.00148794  1
  Zn  Zn86  1  0.74924442  0.50149075  0.74931387  1
  Zn  Zn87  1  0.87299301  0.62498292  0.74514573  1
  Zn  Zn88  1  0.36160841  0.00095760  0.86315204  1
  Zn  Zn89  1  0.24594068  0.25234276  -0.00272108  1
  Zn  Zn90  1  0.49449610  0.25538108  0.25404231  1
  Zn  Zn91  1  0.25306648  0.12893000  0.36961559  1
  Zn  Zn92  1  0.75063785  0.74751284  0.50044423  1
  Zn  Zn93  1  0.24227764  0.50446597  0.24886380  1
  Zn  Zn94  1  0.74697687  0.37341786  0.12188491  1
  Zn  Zn95  1  0.75260863  0.00191831  0.24667181  1
  Zn  Zn96  1  -0.01197465  0.24872260  0.24675970  1
  Zn  Zn97  1  0.24779587  0.62304601  0.37570246  1
  Zn  Zn98  1  0.88429289  0.74139788  0.61897118  1
  Zn  Zn99  1  0.25648621  0.87313360  0.12476547  1
  Zn  Zn100  1  0.12083362  0.00272160  0.12283163  1
  Zn  Zn101  1  0.50822950  0.62611424  0.11690955  1
  Zn  Zn102  1  0.62180751  0.49937177  0.62431252  1
  Zn  Zn103  1  0.75525431  0.86708978  0.12941113  1
  Zn  Zn104  1  -0.00492278  0.75361279  0.24310351  1
  Zn  Zn105  1  -0.04297305  0.17672547  0.69108920  1
  Zn  Zn106  1  0.25086198  0.12217556  0.86261117  1
  Zn  Zn107  1  0.18615862  0.19326211  0.18472034  1
  Zn  Zn108  1  0.17677935  0.19926359  0.68631004  1
  Zn  Zn109  1  0.18475128  0.68515691  0.18477418  1
  Zn  Zn110  1  0.18732287  0.68923760  0.68675897  1
  Zn  Zn111  1  0.67931033  0.19220451  0.18156823  1
  Zn  Zn112  1  0.79687043  0.18387571  0.68937899  1
  Zn  Zn113  1  0.68234240  0.68695116  0.18225965  1
  Zn  Zn114  1  0.68819358  0.68701415  0.68692048  1
  Zn  Zn115  1  0.31085336  0.31861569  0.31179702  1
  Zn  Zn116  1  0.30839000  0.30573416  0.81055578  1
  Zn  Zn117  1  0.30843693  0.81324060  0.31139028  1
  Zn  Zn118  1  0.31559212  0.81577205  0.81800298  1
  Zn  Zn119  1  0.80309318  0.33350401  0.32138277  1
  Zn  Zn120  1  0.82323796  0.31174351  0.81085968  1
  Zn  Zn121  1  0.80901150  0.81087005  0.31322370  1
  Zn  Zn122  1  0.81243089  0.80643684  0.81508025  1
  Zn  Zn123  1  0.18691581  0.43778705  0.43859896  1
  Zn  Zn124  1  0.18716646  0.43659597  0.93458384  1
  Zn  Zn125  1  0.19159274  0.93790157  0.43182751  1
  Zn  Zn126  1  0.18876306  0.93803665  0.93946733  1
  Zn  Zn127  1  0.68499898  0.43556759  0.43536056  1
  Zn  Zn128  1  0.69103543  0.43625708  0.93399819  1
  Zn  Zn129  1  0.68965497  0.93609113  0.43671562  1
  Zn  Zn130  1  0.69572157  0.93551104  0.93864669  1
  Zn  Zn131  1  0.31417767  0.06371000  0.04608095  1
  Zn  Zn132  1  0.31248803  0.07011576  0.69820780  1
  Zn  Zn133  1  0.31654103  0.56260200  0.06427478  1
  Zn  Zn134  1  0.31108829  0.56348964  0.56106031  1
  Zn  Zn135  1  0.81061288  0.05348519  0.05458701  1
  Zn  Zn136  1  0.81869647  0.05882921  0.56316181  1
  Zn  Zn137  1  0.81471450  0.56718191  0.05909841  1
  Zn  Zn138  1  0.80893353  0.56449205  0.56669509  1
  Zn  Zn139  1  0.43561372  0.43989224  0.18720473  1
  Zn  Zn140  1  0.43815737  0.43910105  0.68645964  1
  Zn  Zn141  1  0.43664742  0.93759075  0.17890966  1
  Zn  Zn142  1  0.44329897  0.93462333  0.68880650  1
  Zn  Zn143  1  0.93613513  0.44230631  0.18875750  1
  Zn  Zn144  1  0.93831159  0.45067945  0.69101492  1
  Zn  Zn145  1  0.93945379  0.94211657  0.18423281  1
  Zn  Zn146  1  0.94099527  0.92836951  0.68762183  1
  Zn  Zn147  1  0.05843733  0.06392017  0.30796856  1
  Zn  Zn148  1  0.06749428  0.05963168  0.82629741  1
  Zn  Zn149  1  0.05906371  0.56331136  0.31659783  1
  Zn  Zn150  1  0.06736196  0.56084906  0.81888723  1
  Zn  Zn151  1  0.56229763  0.06465866  0.30964585  1
  Zn  Zn152  1  0.56916957  0.06346947  0.80639017  1
  Zn  Zn153  1  0.57330947  0.57656776  0.28194634  1
  Zn  Zn154  1  0.55612194  0.55786492  0.81198865  1
  Zn  Zn155  1  0.43469904  0.18460257  0.44120998  1
  Zn  Zn156  1  0.43668868  0.18627616  0.93210912  1
  Zn  Zn157  1  0.43412259  0.68514396  0.43075499  1
  Zn  Zn158  1  0.43724148  0.68344471  0.93797975  1
  Zn  Zn159  1  0.94736340  0.18323927  0.44036707  1
  Zn  Zn160  1  0.94066469  0.19168017  0.93958883  1
  Zn  Zn161  1  0.93951412  0.68705237  0.43509466  1
  Zn  Zn162  1  0.93931514  0.69059208  0.93840117  1
  Zn  Zn163  1  0.05727235  0.30735016  0.06504904  1
  Zn  Zn164  1  0.08497023  0.31568358  0.55954952  1
  Zn  Zn165  1  0.06529202  0.80999891  0.06153731  1
  Zn  Zn166  1  0.06536314  0.81766332  0.56593811  1
  Zn  Zn167  1  0.56169774  0.31454973  0.06111831  1
  Zn  Zn168  1  0.56073887  0.31020153  0.56197388  1
  Zn  Zn169  1  0.56207310  0.81351711  0.05987757  1
  Zn  Zn170  1  0.56223119  0.81114437  0.56581921  1
  O  O171  1  0.11767339  0.12885909  0.11588510  1
  O  O172  1  0.13444910  0.12372216  0.60492372  1
  O  O173  1  0.11736665  0.62317660  0.11319136  1
  O  O174  1  0.12553817  0.62101879  0.61444385  1
  O  O175  1  0.61921095  0.11772614  0.11593109  1
  O  O176  1  0.62104740  0.10772669  0.61113196  1
  O  O177  1  0.60566999  0.60952778  0.17234487  1
  O  O178  1  0.61680810  0.62454119  0.61536299  1
  O  O179  1  0.37284686  0.38860446  0.38093084  1
  O  O180  1  0.37755269  0.37861910  0.88165932  1
  O  O181  1  0.37834336  0.88025038  0.37842548  1
  O  O182  1  0.37204489  0.88072551  0.89236420  1
  O  O183  1  0.88448526  0.38989919  0.37522561  1
  O  O184  1  0.88415105  0.38554704  0.88306242  1
  O  O185  1  0.87933373  0.87917554  0.38057790  1
  O  O186  1  0.89003418  0.86661658  0.87967674  1
  O  O187  1  0.25831011  0.00167718  0.35989491  1
  O  O188  1  0.24539728  0.00765516  0.87645390  1
  O  O189  1  0.25562521  0.50152067  0.37194530  1
  O  O190  1  0.26072746  0.49589052  0.86628814  1
  O  O191  1  0.76294429  -0.00188989  0.37383420  1
  O  O192  1  0.74756072  0.00813827  0.86672939  1
  O  O193  1  0.75831931  0.50382556  0.37091199  1
  O  O194  1  0.75727858  0.51372406  0.87757857  1
  O  O195  1  0.25445548  0.48705448  0.12772794  1
  O  O196  1  0.23778349  0.50675117  0.63072890  1
  O  O197  1  0.24889915  1.00132054  0.13362946  1
  O  O198  1  0.23212899  0.99490578  0.63142206  1
  O  O199  1  0.75214262  0.50206481  0.13392838  1
  O  O200  1  0.74211193  0.49065686  0.62678560  1
  O  O201  1  0.73627099  0.99613089  0.12473902  1
  O  O202  1  0.74601383  0.98801149  0.63055642  1
  O  O203  1  0.00044543  0.37210140  0.25763934  1
  O  O204  1  -0.00285862  0.38510140  0.76694301  1
  O  O205  1  0.00751985  0.87411739  0.25370457  1
  O  O206  1  0.00918686  0.86585997  0.76161013  1
  O  O207  1  0.51303856  0.37626326  0.24938168  1
  O  O208  1  0.50681789  0.36935680  0.75214778  1
  O  O209  1  0.50255033  0.87093505  0.25368409  1
  O  O210  1  0.51645686  0.86389386  0.74303755  1
  O  O211  1  0.49376496  0.12861815  0.23910151  1
  O  O212  1  0.50900017  0.13207923  0.73659021  1
  O  O213  1  0.48209831  0.64302211  0.26625657  1
  O  O214  1  0.49413463  0.62925416  0.74092513  1
  O  O215  1  0.99788413  0.12809665  0.23468143  1
  O  O216  1  1.03881277  0.10259618  0.72347776  1
  O  O217  1  0.99286598  0.62321504  0.24215130  1
  O  O218  1  1.00344526  0.63852112  0.75794024  1
  O  O219  1  0.37450478  0.26373851  0.00518627  1
  O  O220  1  0.36277344  0.25737866  0.49373789  1
  O  O221  1  0.36982356  0.75766165  -0.00558849  1
  O  O222  1  0.36928422  0.75655518  0.50338559  1
  O  O223  1  0.86580979  0.26176897  -0.00778093  1
  O  O224  1  0.86841867  0.25274733  0.49142740  1
  O  O225  1  0.86528803  0.76071351  -0.00563324  1
  O  O226  1  0.87618152  0.76152297  0.49746556  1
  O  O227  1  0.13377031  0.24390191  0.48751123  1
  O  O228  1  0.12188262  0.24202352  0.99512750  1
  O  O229  1  0.12580973  0.74530862  0.49490472  1
  O  O230  1  0.13416608  0.74262527  0.99539921  1
  O  O231  1  0.63312503  0.24227129  0.49282112  1
  O  O232  1  0.62968981  0.24765978  0.98745942  1
  O  O233  1  0.62281853  0.74122694  0.49339796  1
  O  O234  1  0.63970648  0.75457100  0.99905798  1
  O  O235  1  0.48753323  0.24691627  0.12376623  1
  O  O236  1  0.50593419  0.23624891  0.63092815  1
  O  O237  1  0.50290741  0.74801736  0.13637685  1
  O  O238  1  0.49290684  0.73986433  0.62937433  1
  O  O239  1  0.99158612  0.23639858  0.12839855  1
  O  O240  1  0.99526346  0.26170886  0.61080724  1
  O  O241  1  1.00364965  0.73534119  0.12532145  1
  O  O242  1  1.00348432  0.75752329  0.64393065  1
  O  O243  1  0.00790267  0.25750132  0.37313827  1
  O  O244  1  0.00533175  0.26646337  0.87974564  1
  O  O245  1  0.01129808  0.75679311  0.37231286  1
  O  O246  1  0.01102834  0.75690926  0.86904432  1
  O  O247  1  0.51064246  0.24664204  0.37604937  1
  O  O248  1  0.50867134  0.25402074  0.86960531  1
  O  O249  1  0.50262623  0.76034812  0.37002962  1
  O  O250  1  0.49924844  0.74328268  0.86144256  1
  O  O251  1  0.24457419  0.14103130  0.48718098  1
  O  O252  1  0.23195502  0.13275895  1.00560550  1
  O  O253  1  0.24075893  0.63461523  0.49865597  1
  O  O254  1  0.24493168  0.63031428  1.00526183  1
  O  O255  1  0.74158556  0.13149009  0.50304280  1
  O  O256  1  0.74488032  0.12901856  0.99103368  1
  O  O257  1  0.73472777  0.62331353  0.49376060  1
  O  O258  1  0.75183164  0.63569906  0.99019114  1
  O  O259  1  0.25627494  0.37451535  0.00594904  1
  O  O260  1  0.25589456  0.36135094  0.49246466  1
  O  O261  1  0.25750279  0.86532125  0.00410209  1
  O  O262  1  0.25249054  0.87406499  0.50988540  1
  O  O263  1  0.75780002  0.36795396  -0.00073200  1
  O  O264  1  0.74456307  0.36659420  0.51109996  1
  O  O265  1  0.75963027  0.86185942  0.00180144  1
  O  O266  1  0.75958134  0.87415786  0.50723320  1
  O  O267  1  0.12084733  0.48621708  0.25668134  1
  O  O268  1  0.13344148  0.51025410  0.73819986  1
  O  O269  1  0.13278117  0.99338044  0.24908128  1
  O  O270  1  0.12417884  0.98373250  0.75348341  1
  O  O271  1  0.63609150  0.48189254  0.26631184  1
  O  O272  1  0.62433621  0.48555543  0.74978147  1
  O  O273  1  0.62410499  0.99012571  0.24302938  1
  O  O274  1  0.63106833  0.98648984  0.74080946  1
  O  O275  1  0.36926482  0.00428115  0.25132070  1
  O  O276  1  0.37457478  -0.00668305  0.74918734  1
  O  O277  1  0.37367727  0.50672066  0.25806577  1
  O  O278  1  0.36884480  0.50696361  0.75445260  1
  O  O279  1  0.87136944  -0.00558760  0.26026916  1
  O  O280  1  0.86429293  -0.01117040  0.74664366  1
  O  O281  1  0.86619102  0.50805413  0.25828215  1
  O  O282  1  0.86947950  0.50464717  0.76257656  1
  O  O283  1  0.11297697  0.37041342  0.37185619  1
  O  O284  1  0.11025568  0.36681133  0.88158784  1
  O  O285  1  0.12209891  0.86961506  0.36356017  1
  O  O286  1  0.11790292  0.86440593  0.87289295  1
  O  O287  1  0.63602580  0.35947772  0.36319222  1
  O  O288  1  0.62226145  0.36786760  0.86762340  1
  O  O289  1  0.61834348  0.87316503  0.36806226  1
  O  O290  1  0.62979605  0.87713751  0.86039304  1
  O  O291  1  0.37765362  0.13381580  0.12449220  1
  O  O292  1  0.38966295  0.11591403  0.61832253  1
  O  O293  1  0.38449750  0.61756926  0.14111390  1
  O  O294  1  0.38079509  0.63097971  0.63033672  1
  O  O295  1  0.88077792  0.11972358  0.11906385  1
  O  O296  1  0.87445202  0.13245253  0.62234420  1
  O  O297  1  0.88480439  0.61941070  0.13435575  1
  O  O298  1  0.86993274  0.63030902  0.63086352  1
  O  O299  1  0.26087179  0.26107786  0.12318945  1
  O  O300  1  0.24132122  0.25418933  0.60616424  1
  O  O301  1  0.24665882  0.75093647  0.11220996  1
  O  O302  1  0.25568527  0.75668630  0.61907939  1
  O  O303  1  0.74450152  0.24874322  0.10646907  1
  O  O304  1  0.74860274  0.25807958  0.61212219  1
  O  O305  1  0.74791388  0.74679976  0.11131340  1
  O  O306  1  0.74931686  0.76157746  0.62136177  1
  O  O307  1  0.23699865  0.25273387  0.37358510  1
  O  O308  1  0.23102618  0.25436641  0.87804226  1
  O  O309  1  0.23635337  0.75332636  0.38310110  1
  O  O310  1  0.23902731  0.75270231  0.88402279  1
  O  O311  1  0.74847048  0.24019595  0.37924148  1
  O  O312  1  0.74471429  0.24245392  0.88045793  1
  O  O313  1  0.74044922  0.74217456  0.37834263  1
  O  O314  1  0.75012387  0.73573526  0.88287337  1
  O  O315  1  0.00503600  0.12593214  0.01026177  1
  O  O316  1  0.01157726  0.10949027  0.49773710  1
  O  O317  1  0.00585177  0.61813779  0.00623343  1
  O  O318  1  0.00868259  0.61646062  0.49512664  1
  O  O319  1  0.50806294  0.11731190  0.00406028  1
  O  O320  1  0.50738240  0.11910053  0.50655222  1
  O  O321  1  0.49693353  0.60798768  0.00083812  1
  O  O322  1  0.50597696  0.62095046  0.50372879  1
  O  O323  1  0.49138214  0.38412525  0.50367239  1
  O  O324  1  0.49242178  0.38107838  0.99214050  1
  O  O325  1  0.49518867  0.87944587  0.49528929  1
  O  O326  1  0.49189354  0.88054180  0.99977712  1
  O  O327  1  0.99381400  0.37748038  0.49883857  1
  O  O328  1  0.99371543  0.38193064  0.99755001  1
  O  O329  1  0.99682826  0.88176165  0.49295860  1
  O  O330  1  0.99140598  0.86865470  0.99249707  1
  O  O331  1  0.49057172  0.50713695  0.38571339  1
  O  O332  1  0.48773415  0.49172727  0.88061603  1
  O  O333  1  0.49536223  0.99369227  0.37670790  1
  O  O334  1  0.50478776  1.00457212  0.88334867  1
  O  O335  1  0.99528972  0.49338918  0.38879430  1
  O  O336  1  0.99584433  0.49274267  0.88556130  1
  O  O337  1  0.99169729  0.99479357  0.37977180  1
  O  O338  1  1.00404393  0.98049308  0.88008137  1
  O  O339  1  0.00130458  0.01394693  0.12053233  1
  O  O340  1  0.01302522  -0.01482605  0.61367663  1
  O  O341  1  -0.00238682  0.50743163  0.11347453  1
  O  O342  1  0.01108462  0.49910217  0.61578981  1
  O  O343  1  0.51126033  0.00508031  0.11700959  1
  O  O344  1  0.50997757  0.00262701  0.61777582  1
  O  O345  1  0.49670750  0.49330509  0.10602840  1
  O  O346  1  0.49913184  0.51353926  0.61667221  1
  O  O347  1  0.23810322  0.37777956  0.24169825  1
  O  O348  1  0.25474214  0.38685831  0.74879937  1
  O  O349  1  0.24263513  0.88305171  0.24561211  1
  O  O350  1  0.24143400  0.86431648  0.74292922  1
  O  O351  1  0.74269430  0.38405552  0.24202720  1
  O  O352  1  0.74367244  0.37298142  0.73919002  1
  O  O353  1  0.73923353  0.87561739  0.24757277  1
  O  O354  1  0.74256933  0.87502896  0.74480797  1
  O  O355  1  0.25518587  0.11994214  0.24861431  1
  O  O356  1  0.24707456  0.14189858  0.74933411  1
  O  O357  1  0.25591764  0.62422024  0.25154453  1
  O  O358  1  0.26199684  0.62139803  0.74543612  1
  O  O359  1  0.74577298  0.12446812  0.25266485  1
  O  O360  1  0.74518579  0.10963957  0.76034225  1
  O  O361  1  0.75674826  0.61915436  0.25596804  1
  O  O362  1  0.74855566  0.62527719  0.76436778  1
  O  O363  1  0.37693835  0.11793240  0.36434374  1
  O  O364  1  0.36252518  0.11468241  0.89716937  1
  O  O365  1  0.36751639  0.61352061  0.36954582  1
  O  O366  1  0.37931444  0.61411637  0.86441274  1
  O  O367  1  0.87370945  0.11637309  0.37658831  1
  O  O368  1  0.86830229  0.12271212  0.88224163  1
  O  O369  1  0.87174247  0.61630746  0.36915490  1
  O  O370  1  0.87507312  0.61568678  0.87559674  1
  O  O371  1  0.13059626  0.36938060  0.13249926  1
  O  O372  1  0.12910411  0.39377008  0.62641775  1
  O  O373  1  0.12478022  0.87755089  0.13567694  1
  O  O374  1  0.13526171  0.87244984  0.63858452  1
  O  O375  1  0.62696578  0.36815044  0.14171922  1
  O  O376  1  0.63102952  0.37421326  0.63168567  1
  O  O377  1  0.62495579  0.88128543  0.13258399  1
  O  O378  1  0.63356884  0.88350979  0.62522722  1
  O  O379  1  0.12030500  0.26164638  0.25542165  1
  O  O380  1  0.11361046  0.25484415  0.76440726  1
  O  O381  1  0.12413547  0.75695856  0.25692580  1
  O  O382  1  0.11955158  0.75303209  0.75902362  1
  O  O383  1  0.62157311  0.25836319  0.25770359  1
  O  O384  1  0.61760186  0.26109301  0.76206711  1
  O  O385  1  0.61549300  0.76352867  0.25560612  1
  O  O386  1  0.61948156  0.76178065  0.74455817  1
  O  O387  1  0.37540160  0.24793054  0.24192823  1
  O  O388  1  0.39126612  0.25286444  0.75447294  1
  O  O389  1  0.37858906  0.74406642  0.25362659  1
  O  O390  1  0.38131120  0.74465746  0.74671447  1
  O  O391  1  0.86234424  0.24126554  0.26918013  1
  O  O392  1  0.87784919  0.23756810  0.75022968  1
  O  O393  1  0.87653751  0.73525628  0.25784214  1
  O  O394  1  0.89185713  0.74935047  0.75258690  1
  O  O395  1  0.37817574  0.49404498  0.49403008  1
  O  O396  1  0.37717917  0.49088033  0.99193360  1
  O  O397  1  0.38323716  0.99149465  0.48600688  1
  O  O398  1  0.38781568  0.98791969  1.00181131  1
  O  O399  1  0.88270207  0.50809211  0.49315406  1
  O  O400  1  0.88229066  0.49456473  0.99415042  1
  O  O401  1  0.88378394  0.98819588  0.49368513  1
  O  O402  1  0.87348083  0.97496174  0.99813012  1
  O  O403  1  0.11865643  0.01550599  0.00204831  1
  O  O404  1  0.12062506  0.00788515  0.49031665  1
  O  O405  1  0.11783390  0.50695975  -0.00557094  1
  O  O406  1  0.12047615  0.50742111  0.51027454  1
  O  O407  1  0.62037911  0.00031994  0.00458435  1
  O  O408  1  0.62109075  0.00379570  0.50200215  1
  O  O409  1  0.61016045  0.49233877  -0.00613319  1
  O  O410  1  0.61514532  0.50600955  0.49795542  1
  O  O411  1  0.36894105  0.37018606  0.11857661  1
  O  O412  1  0.37342381  0.38151220  0.61131034  1
  O  O413  1  0.37387097  0.87526089  0.10714932  1
  O  O414  1  0.36619863  0.87193334  0.61868269  1
  O  O415  1  0.87227518  0.38017492  0.11297804  1
  O  O416  1  0.86817749  0.38282585  0.62409047  1
  O  O417  1  0.87700339  0.86970653  0.11529124  1
  O  O418  1  0.86920508  0.86894836  0.61641405  1
  O  O419  1  0.12385304  0.13384686  0.37834291  1
  O  O420  1  0.11788907  0.14139580  0.88788770  1
  O  O421  1  0.12538445  0.63352118  0.38332865  1
  O  O422  1  0.12161808  0.63287771  0.89086080  1
  O  O423  1  0.62136495  0.13024757  0.38602046  1
  O  O424  1  0.63112412  0.13279487  0.87835495  1
  O  O425  1  0.62643768  0.62994547  0.37865678  1
  O  O426  1  0.63310746  0.61980135  0.87356532  1
