# generated using pymatgen
data_V85Zn86O256
_symmetry_space_group_name_H-M   'P 1'
_cell_length_a   16.93959506
_cell_length_b   16.93040742
_cell_length_c   16.92913757
_cell_angle_alpha   89.95307541
_cell_angle_beta   90.03923374
_cell_angle_gamma   90.02581610
_symmetry_Int_Tables_number   1
_chemical_formula_structural   V85Zn86O256
_chemical_formula_sum   'V85 Zn86 O256'
_cell_volume   4855.17598632
_cell_formula_units_Z   1
loop_
 _symmetry_equiv_pos_site_id
 _symmetry_equiv_pos_as_xyz
  1  'x, y, z'
loop_
 _atom_site_type_symbol
 _atom_site_label
 _atom_site_symmetry_multiplicity
 _atom_site_fract_x
 _atom_site_fract_y
 _atom_site_fract_z
 _atom_site_occupancy
  V  V0  1  0.12290670  0.00046720  0.12809692  1
  V  V1  1  0.50587264  0.74283418  0.74992236  1
  V  V2  1  0.74347609  0.62560645  0.87310452  1
  V  V3  1  0.26639621  0.62424549  0.37263056  1
  V  V4  1  0.12036738  0.62382293  0.48674516  1
  V  V5  1  0.37725682  0.87533058  0.49928196  1
  V  V6  1  0.00312407  0.13397197  0.62620360  1
  V  V7  1  0.87158681  0.25137385  0.12246132  1
  V  V8  1  0.62824808  0.25350430  0.37705278  1
  V  V9  1  0.13039716  0.24493939  0.36876694  1
  V  V10  1  0.62025303  0.37022045  0.24808735  1
  V  V11  1  0.49682687  0.62141547  0.12242327  1
  V  V12  1  0.37442929  0.87577598  -0.00076461  1
  V  V13  1  0.24474984  0.74536879  0.00115367  1
  V  V14  1  0.00270118  0.86617771  0.37881431  1
  V  V15  1  0.74935813  0.37779678  0.12285612  1
  V  V16  1  0.87493490  0.75090513  0.12385320  1
  V  V17  1  0.25040834  0.87621478  0.12884989  1
  V  V18  1  0.12982258  0.12410627  0.49551701  1
  V  V19  1  0.37491573  0.38331014  0.49790440  1
  V  V20  1  0.24131753  0.50046274  0.75231101  1
  V  V21  1  0.62053096  0.63182804  -0.00355937  1
  V  V22  1  0.49836066  0.00156884  0.49725912  1
  V  V23  1  0.75261561  0.13021435  0.87612669  1
  V  V24  1  0.50176152  0.00946644  0.00043158  1
  V  V25  1  0.62221794  0.50013366  0.11888215  1
  V  V26  1  0.62332930  0.61873724  0.49188020  1
  V  V27  1  0.62612481  -0.00028322  0.62689834  1
  V  V28  1  -0.00291321  0.75329852  0.75470195  1
  V  V29  1  0.25225011  0.37545177  0.11645675  1
  V  V30  1  0.62611269  0.87293459  0.25093566  1
  V  V31  1  0.75236205  0.87610618  0.12435101  1
  V  V32  1  0.49811861  0.37898654  0.85722835  1
  V  V33  1  -0.00057256  0.50369520  -0.00153349  1
  V  V34  1  0.49863132  0.87628975  0.37472265  1
  V  V35  1  0.26271516  0.00552814  0.25547616  1
  V  V36  1  0.87365746  0.74906168  0.62396829  1
  V  V37  1  0.86842802  0.62445137  0.25410794  1
  V  V38  1  0.86832978  0.61814635  0.74826711  1
  V  V39  1  0.12588687  0.87000374  0.25822906  1
  V  V40  1  0.00207577  0.62656057  0.12294181  1
  V  V41  1  0.50414526  0.13345406  0.62951683  1
  V  V42  1  0.86421239  0.25054743  0.60881445  1
  V  V43  1  0.61558849  0.50560656  0.63532801  1
  V  V44  1  0.37447917  0.74736698  0.13105465  1
  V  V45  1  0.39776165  0.38421459  0.00890224  1
  V  V46  1  0.12597675  0.37588359  0.24844613  1
  V  V47  1  -0.00187706  -0.00835420  -0.01125358  1
  V  V48  1  0.87528228  0.87541233  -0.01625836  1
  V  V49  1  0.25528356  0.00100137  0.75212881  1
  V  V50  1  0.12339995  0.87264126  0.75867578  1
  V  V51  1  0.74938524  0.74466170  0.49250708  1
  V  V52  1  0.88047972  0.13139133  0.75377436  1
  V  V53  1  0.27287074  0.12301387  0.37227025  1
  V  V54  1  0.86673335  0.49481732  0.87191202  1
  V  V55  1  0.87515249  0.12409038  0.25079629  1
  V  V56  1  0.75420708  0.38910638  0.62030718  1
  V  V57  1  0.75806616  -0.00005138  0.75675664  1
  V  V58  1  0.00075291  0.62272761  0.62344549  1
  V  V59  1  -0.00180999  0.48865085  0.49798483  1
  V  V60  1  0.25964453  0.50401525  0.25491011  1
  V  V61  1  0.00010268  0.12247893  0.11586173  1
  V  V62  1  0.37813706  0.24783378  0.13536200  1
  V  V63  1  0.49595752  0.37956821  0.37366342  1
  V  V64  1  0.74920740  0.00100082  0.25338332  1
  V  V65  1  0.86680363  0.49392080  0.37795368  1
  V  V66  1  0.37264000  0.62526529  0.75331409  1
  V  V67  1  0.12460748  0.50424795  0.12298345  1
  V  V68  1  0.50193700  0.12779642  0.14143817  1
  V  V69  1  0.50269505  0.87049652  0.87728627  1
  V  V70  1  0.12601960  -0.00186045  0.62408864  1
  V  V71  1  0.49820851  0.74147965  0.25357726  1
  V  V72  1  0.37828403  0.12710113  0.75418311  1
  V  V73  1  0.12014688  0.74608218  0.88051510  1
  V  V74  1  0.01414695  0.37538604  0.86348637  1
  V  V75  1  0.24337517  0.37467881  0.62805414  1
  V  V76  1  0.63451839  0.13120852  0.50171254  1
  V  V77  1  0.00068311  -0.00018906  0.49926808  1
  V  V78  1  0.25029880  0.87224490  0.62432447  1
  V  V79  1  0.00173431  0.24900663  0.24663673  1
  V  V80  1  0.62638960  0.87124738  0.75465950  1
  V  V81  1  0.87294099  0.87510117  0.50105827  1
  V  V82  1  0.24223487  0.74982729  0.49587849  1
  V  V83  1  0.37904647  0.74352576  0.62442955  1
  V  V84  1  0.37971128  0.25501001  0.63044793  1
  Zn  Zn85  1  0.62994934  0.74354017  0.37175181  1
  Zn  Zn86  1  0.12190586  0.49846771  0.62646609  1
  Zn  Zn87  1  0.63052428  0.36561171  0.74840694  1
  Zn  Zn88  1  0.74442220  0.25223468  -0.00498132  1
  Zn  Zn89  1  -0.00264141  0.37035911  0.37705398  1
  Zn  Zn90  1  0.87428691  0.37394034  -0.00437577  1
  Zn  Zn91  1  0.87546780  0.00132564  0.37710721  1
  Zn  Zn92  1  0.60152488  0.24010592  0.87032528  1
  Zn  Zn93  1  0.18867715  0.18036250  -0.05247786  1
  Zn  Zn94  1  0.75463768  0.13421076  0.37975128  1
  Zn  Zn95  1  0.37433985  0.50570000  0.88894637  1
  Zn  Zn96  1  0.62564879  0.00055375  0.12508373  1
  Zn  Zn97  1  0.74509208  0.50470614  0.25305024  1
  Zn  Zn98  1  0.00298206  0.74617757  0.25540150  1
  Zn  Zn99  1  0.49405223  0.50708529  0.49913595  1
  Zn  Zn100  1  0.74618745  0.75360123  -0.00600723  1
  Zn  Zn101  1  0.05845176  0.21496682  0.80111101  1
  Zn  Zn102  1  0.62805730  0.12465419  0.00034816  1
  Zn  Zn103  1  0.74876291  0.87350218  0.62474172  1
  Zn  Zn104  1  0.37495543  0.00685582  0.87753415  1
  Zn  Zn105  1  0.25611512  0.25109826  0.49610717  1
  Zn  Zn106  1  0.24562940  0.62406970  0.87904235  1
  Zn  Zn107  1  0.16979704  0.20660928  0.14136712  1
  Zn  Zn108  1  0.19522265  0.18542256  0.68363015  1
  Zn  Zn109  1  0.18651649  0.68784590  0.19175575  1
  Zn  Zn110  1  0.18558867  0.68442728  0.68465977  1
  Zn  Zn111  1  0.68581700  0.18899293  0.18859984  1
  Zn  Zn112  1  0.68833827  0.19243941  0.69565109  1
  Zn  Zn113  1  0.68748122  0.68833575  0.18438250  1
  Zn  Zn114  1  0.68830344  0.68488786  0.68269923  1
  Zn  Zn115  1  0.31400135  0.31364255  0.30935808  1
  Zn  Zn116  1  0.21089185  0.30731019  0.81125527  1
  Zn  Zn117  1  0.31439853  0.81228542  0.31521614  1
  Zn  Zn118  1  0.31145749  0.81294772  0.81500780  1
  Zn  Zn119  1  0.80889806  0.31544266  0.31005590  1
  Zn  Zn120  1  0.81390909  0.31093647  0.80307074  1
  Zn  Zn121  1  0.81669948  0.81288009  0.31305176  1
  Zn  Zn122  1  0.80835232  0.80706782  0.81049311  1
  Zn  Zn123  1  0.18764242  0.43738993  0.43752214  1
  Zn  Zn124  1  0.18746852  0.44345256  0.94008902  1
  Zn  Zn125  1  0.18971298  0.93873619  0.43467597  1
  Zn  Zn126  1  0.20735888  0.98242089  0.95922286  1
  Zn  Zn127  1  0.68934845  0.43307537  0.44301263  1
  Zn  Zn128  1  0.68115937  0.43900997  0.93724735  1
  Zn  Zn129  1  0.68636772  0.93715765  0.43679943  1
  Zn  Zn130  1  0.68771265  0.94027414  0.93606263  1
  Zn  Zn131  1  0.31739476  0.06907237  0.06818179  1
  Zn  Zn132  1  0.31627271  0.06377725  0.56331405  1
  Zn  Zn133  1  0.31124282  0.56463785  0.06774390  1
  Zn  Zn134  1  0.30919912  0.56298790  0.56417644  1
  Zn  Zn135  1  0.81476696  0.05970493  0.06153944  1
  Zn  Zn136  1  0.81379740  0.06139595  0.56784611  1
  Zn  Zn137  1  0.81073264  0.56302163  0.05892169  1
  Zn  Zn138  1  0.81054729  0.56309938  0.55722708  1
  Zn  Zn139  1  0.43865419  0.43968306  0.19252860  1
  Zn  Zn140  1  0.43101610  0.44394725  0.68527856  1
  Zn  Zn141  1  0.44108317  0.93551236  0.18663400  1
  Zn  Zn142  1  0.44055619  0.93554721  0.68588486  1
  Zn  Zn143  1  0.93633001  0.43821659  0.19056194  1
  Zn  Zn144  1  0.93429722  0.43430387  0.68568127  1
  Zn  Zn145  1  0.93735139  0.93561530  0.18930566  1
  Zn  Zn146  1  0.93881752  0.93927094  0.68712466  1
  Zn  Zn147  1  0.06404570  0.05924813  0.31004946  1
  Zn  Zn148  1  0.07032972  0.05341453  0.81763451  1
  Zn  Zn149  1  0.05799148  0.56074404  0.31137527  1
  Zn  Zn150  1  0.05921592  0.56588212  0.81335071  1
  Zn  Zn151  1  0.56601285  0.06176196  0.31730250  1
  Zn  Zn152  1  0.56395192  0.06040495  0.81373361  1
  Zn  Zn153  1  0.56185060  0.55750226  0.31157143  1
  Zn  Zn154  1  0.55806845  0.55829925  0.81641579  1
  Zn  Zn155  1  0.44706914  0.19802732  0.44333019  1
  Zn  Zn156  1  0.37389993  0.23923676  0.90614991  1
  Zn  Zn157  1  0.44119966  0.68897868  0.44108530  1
  Zn  Zn158  1  0.43646240  0.68985283  0.93777083  1
  Zn  Zn159  1  0.94244068  0.18700325  0.43546883  1
  Zn  Zn160  1  0.93688062  0.18745854  0.93779192  1
  Zn  Zn161  1  0.93399406  0.68248383  0.43606653  1
  Zn  Zn162  1  0.93374445  0.68594615  0.93630207  1
  Zn  Zn163  1  0.06260162  0.31514479  0.04975510  1
  Zn  Zn164  1  0.06746904  0.30740065  0.56293568  1
  Zn  Zn165  1  0.06184674  0.81673228  0.06423120  1
  Zn  Zn166  1  0.06228009  0.81037747  0.56587363  1
  Zn  Zn167  1  0.56459676  0.30252658  0.05862609  1
  Zn  Zn168  1  0.56640297  0.31779498  0.56142056  1
  Zn  Zn169  1  0.56285725  0.81179190  0.06467261  1
  Zn  Zn170  1  0.56503824  0.80894649  0.56459052  1
  O  O171  1  0.11157160  0.10732050  0.14014687  1
  O  O172  1  0.12034739  0.11874773  0.61806120  1
  O  O173  1  0.11053932  0.62048287  0.13218498  1
  O  O174  1  0.11607624  0.62373522  0.61284028  1
  O  O175  1  0.61330258  0.12387422  0.12455513  1
  O  O176  1  0.62169476  0.11935571  0.62063648  1
  O  O177  1  0.61769637  0.61942890  0.11957276  1
  O  O178  1  0.63064742  0.61004955  0.61635290  1
  O  O179  1  0.38306476  0.36868838  0.38439906  1
  O  O180  1  0.38692277  0.38207570  0.89970948  1
  O  O181  1  0.38998271  0.86906385  0.38363294  1
  O  O182  1  0.38299163  0.87543010  0.88412621  1
  O  O183  1  0.87924509  0.38884194  0.36650090  1
  O  O184  1  0.87618428  0.38574923  0.87196220  1
  O  O185  1  0.88376773  0.87825811  0.38419697  1
  O  O186  1  0.86933612  0.87094341  0.88441969  1
  O  O187  1  0.25069829  0.00742228  0.36514105  1
  O  O188  1  0.25716783  -0.01301462  0.85526983  1
  O  O189  1  0.24291798  0.51524820  0.36909268  1
  O  O190  1  0.25326966  0.50430477  0.86849638  1
  O  O191  1  0.75211688  0.00142268  0.36338772  1
  O  O192  1  0.74815651  0.00747365  0.86182227  1
  O  O193  1  0.76299502  0.49469484  0.37463373  1
  O  O194  1  0.75737365  0.50892233  0.87922837  1
  O  O195  1  0.23993387  0.49980468  0.13451362  1
  O  O196  1  0.24729992  0.49395994  0.63267678  1
  O  O197  1  0.24283686  0.99504364  0.13873109  1
  O  O198  1  0.24704071  0.99161012  0.63055736  1
  O  O199  1  0.74216657  0.49397191  0.12566424  1
  O  O200  1  0.74631230  0.49328971  0.62378486  1
  O  O201  1  0.75063789  0.99515010  0.13716987  1
  O  O202  1  0.73899881  0.99904313  0.63445380  1
  O  O203  1  0.01301786  0.36985772  0.24831102  1
  O  O204  1  0.00229876  0.38419013  0.76484744  1
  O  O205  1  0.00659854  0.87490918  0.26185095  1
  O  O206  1  0.00870370  0.86442810  0.74194707  1
  O  O207  1  0.50988916  0.38062513  0.25838495  1
  O  O208  1  0.49467804  0.37787246  0.75591327  1
  O  O209  1  0.50525197  0.86692453  0.25695243  1
  O  O210  1  0.50677708  0.86788662  0.75761950  1
  O  O211  1  0.50103035  0.11730448  0.23970780  1
  O  O212  1  0.49481343  0.11374031  0.73505583  1
  O  O213  1  0.50549583  0.63633220  0.24457754  1
  O  O214  1  0.49283002  0.63729857  0.75753722  1
  O  O215  1  0.99147914  0.12734262  0.24209907  1
  O  O216  1  0.99650664  0.12241863  0.74130911  1
  O  O217  1  0.98940473  0.62583445  0.24103733  1
  O  O218  1  0.98956945  0.63207512  0.74419998  1
  O  O219  1  0.38096353  0.27486966  0.02089261  1
  O  O220  1  0.37664578  0.26163958  0.51095492  1
  O  O221  1  0.36709964  0.76070609  0.00661325  1
  O  O222  1  0.36831429  0.75364583  0.50793056  1
  O  O223  1  0.87304725  0.25202889  0.01297225  1
  O  O224  1  0.87672220  0.24474267  0.50995706  1
  O  O225  1  0.87444512  0.75818537  0.00680704  1
  O  O226  1  0.86837435  0.75275624  0.50406058  1
  O  O227  1  0.13007937  0.24192567  0.48640542  1
  O  O228  1  0.13326014  0.23391581  1.03524985  1
  O  O229  1  0.13684244  0.74383324  0.50417279  1
  O  O230  1  0.13181237  0.76061433  0.99236708  1
  O  O231  1  0.62358870  0.24084882  0.49422975  1
  O  O232  1  0.62755751  0.24268363  0.98820224  1
  O  O233  1  0.63195833  0.73812181  0.50101443  1
  O  O234  1  0.62781700  0.73691315  1.00590040  1
  O  O235  1  0.49552550  0.23479644  0.12526381  1
  O  O236  1  0.49641984  0.24166448  0.61812469  1
  O  O237  1  0.49304008  0.74358867  0.13294193  1
  O  O238  1  0.49005674  0.75585659  0.63638295  1
  O  O239  1  0.99110860  0.24133754  0.12839065  1
  O  O240  1  0.99341773  0.23828965  0.61837379  1
  O  O241  1  0.99104691  0.74328035  0.12481909  1
  O  O242  1  0.99322408  0.74250616  0.63254416  1
  O  O243  1  0.00975704  0.25058126  0.36458177  1
  O  O244  1  -0.00911314  0.27131786  0.87758400  1
  O  O245  1  -0.00443857  0.76192425  0.37705096  1
  O  O246  1  0.00334079  0.74619913  0.86365801  1
  O  O247  1  0.51560545  0.26536870  0.37969418  1
  O  O248  1  0.48715950  0.27553688  0.88277527  1
  O  O249  1  0.50347386  0.75520477  0.36819575  1
  O  O250  1  0.49683190  0.76291135  0.86703094  1
  O  O251  1  0.24634459  0.12248138  0.48925325  1
  O  O252  1  0.23991240  0.08692179  0.99357753  1
  O  O253  1  0.24248737  0.62919889  0.48985761  1
  O  O254  1  0.25090198  0.64227674  1.00353233  1
  O  O255  1  0.73765095  0.11399891  0.49779973  1
  O  O256  1  0.75226209  0.12227616  0.98954191  1
  O  O257  1  0.73798578  0.63295573  0.50150010  1
  O  O258  1  0.74083068  0.62735454  0.99188427  1
  O  O259  1  0.25146522  0.38330298  0.01559033  1
  O  O260  1  0.25831161  0.37486860  0.50446095  1
  O  O261  1  0.25856975  0.87686040  0.00979784  1
  O  O262  1  0.25496511  0.86681876  0.50164725  1
  O  O263  1  0.75008491  0.37491789  0.01047527  1
  O  O264  1  0.74729412  0.37092997  0.52027445  1
  O  O265  1  0.75750108  0.87602355  0.00532935  1
  O  O266  1  0.75626499  0.86949062  0.50234977  1
  O  O267  1  0.12698130  0.49399239  0.24179368  1
  O  O268  1  0.13700559  0.51083961  0.74769188  1
  O  O269  1  0.13243653  0.98791020  0.24714020  1
  O  O270  1  0.13309630  0.99023956  0.74339845  1
  O  O271  1  0.62754393  0.49293926  0.23855532  1
  O  O272  1  0.62224440  0.49995184  0.73717090  1
  O  O273  1  0.63343635  0.99271213  0.24961190  1
  O  O274  1  0.63141627  0.99181882  0.74335697  1
  O  O275  1  0.36083128  -0.00947483  0.24769027  1
  O  O276  1  0.37078143  0.00546858  0.74674230  1
  O  O277  1  0.35881473  0.50070531  0.24784479  1
  O  O278  1  0.36644760  0.51670025  0.74762444  1
  O  O279  1  0.86914340  0.00821731  0.25151806  1
  O  O280  1  0.86626718  0.01220793  0.73820704  1
  O  O281  1  0.87293533  0.50666345  0.25963179  1
  O  O282  1  0.87881579  0.50898777  0.75702179  1
  O  O283  1  0.12805669  0.36151558  0.36646164  1
  O  O284  1  0.11730192  0.37618356  0.87654920  1
  O  O285  1  0.11673653  0.87693853  0.37036678  1
  O  O286  1  0.12710372  0.86340128  0.85950402  1
  O  O287  1  0.62239726  0.37266636  0.36796049  1
  O  O288  1  0.60729950  0.38004408  0.87092942  1
  O  O289  1  0.61521013  0.87034070  0.37003921  1
  O  O290  1  0.61938604  0.87731771  0.86320914  1
  O  O291  1  0.38542598  0.13851512  0.12570217  1
  O  O292  1  0.38693580  0.13251872  0.62611348  1
  O  O293  1  0.38157596  0.63884582  0.12182786  1
  O  O294  1  0.36994256  0.63740584  0.63142515  1
  O  O295  1  0.87962237  0.13064552  0.13343462  1
  O  O296  1  0.88387381  0.13339166  0.62738767  1
  O  O297  1  0.88317716  0.63059742  0.12819589  1
  O  O298  1  0.87896777  0.62792991  0.63078354  1
  O  O299  1  0.26810052  0.26324889  0.13595156  1
  O  O300  1  0.26199660  0.25874776  0.61800310  1
  O  O301  1  0.25530427  0.75607203  0.12257173  1
  O  O302  1  0.25591101  0.75362551  0.61621387  1
  O  O303  1  0.75616761  0.25733647  0.12382372  1
  O  O304  1  0.76318885  0.24385248  0.62068821  1
  O  O305  1  0.76262775  0.75468374  0.12199789  1
  O  O306  1  0.75727719  0.75179175  0.61460312  1
  O  O307  1  0.24688105  0.23982512  0.37186554  1
  O  O308  1  0.26287935  0.24833067  0.88810769  1
  O  O309  1  0.25447679  0.73756892  0.38337094  1
  O  O310  1  0.24050687  0.75195692  0.88571474  1
  O  O311  1  0.73638215  0.25134282  0.37112685  1
  O  O312  1  0.75720007  0.23732875  0.87420275  1
  O  O313  1  0.74975889  0.75493832  0.38774020  1
  O  O314  1  0.75343611  0.73179232  0.87660385  1
  O  O315  1  -0.01007343  0.11093328  0.01118176  1
  O  O316  1  0.00914064  0.11850807  0.50421594  1
  O  O317  1  -0.00606560  0.61302261  0.00662022  1
  O  O318  1  0.00509534  0.61814836  0.50344830  1
  O  O319  1  0.49907206  0.11065420  0.00679620  1
  O  O320  1  0.51010191  0.11727707  0.50878952  1
  O  O321  1  0.50582647  0.63159865  0.01003370  1
  O  O322  1  0.51709288  0.62581335  0.49994633  1
  O  O323  1  0.49237998  0.37959536  0.49394063  1
  O  O324  1  0.49761665  0.38668479  1.01519965  1
  O  O325  1  0.49972782  0.87993767  0.49417434  1
  O  O326  1  0.49514572  0.87774806  0.99469703  1
  O  O327  1  1.00657023  0.38546761  0.49913218  1
  O  O328  1  0.99684448  0.38823325  0.99205092  1
  O  O329  1  0.99532393  0.87878392  0.49689525  1
  O  O330  1  0.98913784  0.88357000  1.00392231  1
  O  O331  1  0.50383462  0.48632022  0.37970252  1
  O  O332  1  0.49017480  0.48701106  0.87355644  1
  O  O333  1  0.50588650  0.99072982  0.38592673  1
  O  O334  1  0.49784130  0.98858543  0.88268233  1
  O  O335  1  0.99206164  0.49512047  0.38168408  1
  O  O336  1  0.99542077  0.49362692  0.88126911  1
  O  O337  1  0.99996323  0.99200838  0.38453321  1
  O  O338  1  1.00212633  0.99531517  0.89012222  1
  O  O339  1  0.00495511  0.00482313  0.12411563  1
  O  O340  1  0.00629574  0.00949885  0.61777491  1
  O  O341  1  0.00331811  0.50612239  0.11909527  1
  O  O342  1  -0.00160713  0.50410821  0.61606024  1
  O  O343  1  0.50014329  0.00941334  0.12050358  1
  O  O344  1  0.51214730  0.00413979  0.61947008  1
  O  O345  1  0.50507486  0.51567917  0.13379827  1
  O  O346  1  0.51298887  0.49851546  0.62143525  1
  O  O347  1  0.24077327  0.38473460  0.24614408  1
  O  O348  1  0.25664728  0.38949293  0.74057549  1
  O  O349  1  0.24385069  0.88029910  0.24990452  1
  O  O350  1  0.24405913  0.87586013  0.74122439  1
  O  O351  1  0.74217600  0.37910108  0.23642478  1
  O  O352  1  0.74814428  0.36646370  0.72742243  1
  O  O353  1  0.74785369  0.88142279  0.24634816  1
  O  O354  1  0.74382569  0.88069425  0.74840640  1
  O  O355  1  0.25195903  0.10888167  0.25828010  1
  O  O356  1  0.26533682  0.11125045  0.73689518  1
  O  O357  1  0.24570574  0.62162340  0.26554443  1
  O  O358  1  0.25667563  0.62223966  0.75213345  1
  O  O359  1  0.75768912  0.11814059  0.25089332  1
  O  O360  1  0.75976891  0.11782487  0.75555355  1
  O  O361  1  0.76370777  0.62403768  0.24281942  1
  O  O362  1  0.76080222  0.62922635  0.75519244  1
  O  O363  1  0.37147268  0.13238416  0.38312952  1
  O  O364  1  0.38637035  0.12566511  0.85681837  1
  O  O365  1  0.36474892  0.62390404  0.38138194  1
  O  O366  1  0.36937131  0.62646243  0.86856504  1
  O  O367  1  0.87497546  0.12492469  0.36317098  1
  O  O368  1  0.87121200  0.12573343  0.86430810  1
  O  O369  1  0.87914853  0.61116376  0.36471582  1
  O  O370  1  0.86894328  0.61463563  0.86713787  1
  O  O371  1  0.13162031  0.38393636  0.13154890  1
  O  O372  1  0.14013073  0.37892284  0.61484497  1
  O  O373  1  0.12859266  0.88378162  0.13541113  1
  O  O374  1  0.13134951  0.87896011  0.63076157  1
  O  O375  1  0.62845034  0.38031640  0.12907810  1
  O  O376  1  0.63352056  0.39039652  0.62473461  1
  O  O377  1  0.63384063  0.87504382  0.13268741  1
  O  O378  1  0.62482793  0.88288800  0.63538976  1
  O  O379  1  0.12289458  0.25690487  0.24781841  1
  O  O380  1  0.13575543  0.26292499  0.73665941  1
  O  O381  1  0.12136900  0.76493506  0.24578572  1
  O  O382  1  0.11586737  0.75344173  0.75281519  1
  O  O383  1  0.62706286  0.26341933  0.25548047  1
  O  O384  1  0.61946792  0.25131347  0.75738120  1
  O  O385  1  0.61851936  0.75495129  0.25074581  1
  O  O386  1  0.61704248  0.75760269  0.74139294  1
  O  O387  1  0.38517005  0.26226930  0.23425886  1
  O  O388  1  0.37509909  0.23917507  0.73331839  1
  O  O389  1  0.38437214  0.75547221  0.24187239  1
  O  O390  1  0.37908399  0.74255588  0.74474810  1
  O  O391  1  0.87868106  0.24458027  0.24079905  1
  O  O392  1  0.87615990  0.23569682  0.73632452  1
  O  O393  1  0.87888806  0.74329972  0.24289617  1
  O  O394  1  0.88102218  0.74367564  0.74427462  1
  O  O395  1  0.37590739  0.48865631  0.50722381  1
  O  O396  1  0.37077943  0.48852367  1.00911616  1
  O  O397  1  0.39082339  0.99203889  0.50934042  1
  O  O398  1  0.38399190  0.98813655  1.00158886  1
  O  O399  1  0.88212099  0.50519180  0.48571284  1
  O  O400  1  0.88144985  0.49830596  0.99028375  1
  O  O401  1  0.88186117  0.99351251  0.50109823  1
  O  O402  1  0.88806637  0.98803448  1.00678413  1
  O  O403  1  0.10623171  -0.01317593  0.01498159  1
  O  O404  1  0.12172248  0.00425288  0.50481090  1
  O  O405  1  0.11737372  0.50067081  0.01470200  1
  O  O406  1  0.11555142  0.50818264  0.49890388  1
  O  O407  1  0.61605202  -0.00066714  0.00471440  1
  O  O408  1  0.61823167  0.00388790  0.50818802  1
  O  O409  1  0.62617584  0.51082302  0.01339521  1
  O  O410  1  0.62591609  0.50988105  0.50635005  1
  O  O411  1  0.37042048  0.37585847  0.12423921  1
  O  O412  1  0.36857888  0.37073074  0.61933401  1
  O  O413  1  0.37352481  0.86478615  0.11909677  1
  O  O414  1  0.37015851  0.86438153  0.62041008  1
  O  O415  1  0.86717865  0.36842141  0.12553652  1
  O  O416  1  0.86646008  0.36208267  0.62590860  1
  O  O417  1  0.87036641  0.86591463  0.12284743  1
  O  O418  1  0.87505857  0.86800093  0.61677343  1
  O  O419  1  0.13028857  0.13407642  0.37285943  1
  O  O420  1  0.11436978  0.14032620  0.86770405  1
  O  O421  1  0.12382386  0.62662414  0.38429767  1
  O  O422  1  0.12540959  0.64118961  0.87293024  1
  O  O423  1  0.62552958  0.13472601  0.38424577  1
  O  O424  1  0.63636205  0.12267056  0.87604223  1
  O  O425  1  0.62626515  0.62291206  0.38687063  1
  O  O426  1  0.63090398  0.61737383  0.88366323  1
