# generated using pymatgen
data_V85Zn86O256
_symmetry_space_group_name_H-M   'P 1'
_cell_length_a   16.92374813
_cell_length_b   16.91958817
_cell_length_c   16.92207674
_cell_angle_alpha   89.98422265
_cell_angle_beta   90.02760678
_cell_angle_gamma   90.05643236
_symmetry_Int_Tables_number   1
_chemical_formula_structural   V85Zn86O256
_chemical_formula_sum   'V85 Zn86 O256'
_cell_volume   4845.51256263
_cell_formula_units_Z   1
loop_
 _symmetry_equiv_pos_site_id
 _symmetry_equiv_pos_as_xyz
  1  'x, y, z'
loop_
 _atom_site_type_symbol
 _atom_site_label
 _atom_site_symmetry_multiplicity
 _atom_site_fract_x
 _atom_site_fract_y
 _atom_site_fract_z
 _atom_site_occupancy
  V  V0  1  0.12168008  0.25346578  0.87524948  1
  V  V1  1  0.62826309  -0.00306727  0.12562302  1
  V  V2  1  0.62694012  0.87657898  0.75491508  1
  V  V3  1  0.50209982  0.50250484  0.00167804  1
  V  V4  1  0.25072238  0.50055957  0.25078250  1
  V  V5  1  0.62720782  0.50325725  0.12182463  1
  V  V6  1  0.12808105  0.00392847  0.12987150  1
  V  V7  1  0.87283175  0.49776320  0.37444469  1
  V  V8  1  0.38767049  0.63238236  0.24539672  1
  V  V9  1  0.37810275  0.49881726  0.87548748  1
  V  V10  1  0.74564313  0.62716918  0.37509064  1
  V  V11  1  0.24754652  0.12814168  0.87016451  1
  V  V12  1  0.50470999  0.86784344  0.87900547  1
  V  V13  1  0.62095924  0.24668953  0.36532856  1
  V  V14  1  0.37371841  0.75650151  0.12708749  1
  V  V15  1  -0.00996296  0.24881007  0.75118673  1
  V  V16  1  0.50589499  0.50337101  0.49742641  1
  V  V17  1  -0.00768968  0.12134606  0.62888105  1
  V  V18  1  0.00004634  0.62692365  0.13010112  1
  V  V19  1  0.50385646  0.12876408  0.13020429  1
  V  V20  1  0.00014429  -0.00163619  0.50001008  1
  V  V21  1  0.75109435  0.88225149  0.63098821  1
  V  V22  1  0.49474134  0.24992908  0.74672794  1
  V  V23  1  0.12463436  0.24884196  0.37597671  1
  V  V24  1  0.49973795  -0.00217325  0.00209983  1
  V  V25  1  0.37830136  0.00142643  0.86673602  1
  V  V26  1  0.12497230  0.37566070  0.75083248  1
  V  V27  1  0.87417855  0.37710243  -0.00741520  1
  V  V28  1  -0.00356196  0.49365249  0.49943403  1
  V  V29  1  0.87966990  0.25126524  0.13633120  1
  V  V30  1  0.62358709  0.00354021  0.62683508  1
  V  V31  1  0.62474454  0.85847440  0.25016800  1
  V  V32  1  0.75265816  0.24616518  -0.00131392  1
  V  V33  1  0.75235814  0.37698078  0.61645358  1
  V  V34  1  0.01103479  0.75745515  0.74802210  1
  V  V35  1  -0.00238868  0.50106782  -0.00770185  1
  V  V36  1  0.37490517  0.75075573  0.62844791  1
  V  V37  1  0.38349741  0.88135162  0.49980351  1
  V  V38  1  0.37833032  0.37077257  0.50750587  1
  V  V39  1  0.88537788  -0.01318801  0.86727595  1
  V  V40  1  0.12453362  0.49998122  0.12363542  1
  V  V41  1  0.76176668  0.50108226  0.75351141  1
  V  V42  1  0.75945483  0.11878265  0.85643674  1
  V  V43  1  0.37771384  0.62328068  0.75144969  1
  V  V44  1  0.49950127  0.37045362  0.36516517  1
  V  V45  1  0.62125093  0.37671787  0.75315884  1
  V  V46  1  0.87435343  0.25205267  0.61559844  1
  V  V47  1  -0.00779938  0.36802937  0.37392112  1
  V  V48  1  0.24695708  0.62490598  0.37420376  1
  V  V49  1  0.62099757  0.63692444  -0.00664699  1
  V  V50  1  0.12460429  0.87226172  0.25099203  1
  V  V51  1  0.35592841  0.87542209  0.00645014  1
  V  V52  1  0.75488597  0.12576964  0.37296796  1
  V  V53  1  0.49248602  0.12612753  0.62055728  1
  V  V54  1  0.75358765  0.00119763  0.24701118  1
  V  V55  1  0.25229951  0.24890540  0.50792007  1
  V  V56  1  0.87249753  0.87408318  0.50066208  1
  V  V57  1  0.25115388  0.25152062  0.00111871  1
  V  V58  1  -0.00462961  0.12477019  0.14086548  1
  V  V59  1  0.87789332  0.63700546  0.25071087  1
  V  V60  1  0.11626502  0.74869156  0.37220353  1
  V  V61  1  0.25420177  -0.00504931  0.25291078  1
  V  V62  1  0.62611581  0.50155391  0.62486526  1
  V  V63  1  0.87604690  0.00163208  0.37111311  1
  V  V64  1  0.13044713  0.63314823  -0.00280010  1
  V  V65  1  0.75962574  0.62179069  0.87177674  1
  V  V66  1  0.19500216  -0.05504691  0.80231150  1
  V  V67  1  0.74545906  0.74593008  0.49996813  1
  V  V68  1  0.87189007  0.74474888  0.63395614  1
  V  V69  1  0.12778358  -0.00621993  0.62542777  1
  V  V70  1  0.50710029  0.62714266  0.62192479  1
  V  V71  1  0.38193315  0.37482407  -0.00341516  1
  V  V72  1  0.37503386  0.49972040  0.37506115  1
  V  V73  1  0.76185116  0.75656723  -0.00677782  1
  V  V74  1  0.11298692  0.12933372  0.00143154  1
  V  V75  1  0.24506308  0.75277294  0.50383452  1
  V  V76  1  0.11984857  0.36977155  0.24962746  1
  V  V77  1  0.62176944  0.24902914  0.87432040  1
  V  V78  1  -0.00592267  0.61947661  0.63192936  1
  V  V79  1  0.37695957  0.12745492  0.25126495  1
  V  V80  1  0.38067746  0.25197352  0.12941247  1
  V  V81  1  0.62119621  0.11944033  0.49555295  1
  V  V82  1  0.25163150  0.37496451  0.12603017  1
  V  V83  1  0.25007989  0.63622429  0.87754588  1
  V  V84  1  0.12866335  0.49854929  0.62304227  1
  Zn  Zn85  1  0.25216735  0.12469633  0.37685587  1
  Zn  Zn86  1  -0.05722739  -0.07651872  0.01901331  1
  Zn  Zn87  1  0.58204883  0.69265122  0.43227105  1
  Zn  Zn88  1  0.88377945  0.76076893  0.12275785  1
  Zn  Zn89  1  0.07033982  0.79862789  0.90732248  1
  Zn  Zn90  1  0.62712640  0.12328472  -0.00287802  1
  Zn  Zn91  1  0.25117158  0.49939356  0.75118172  1
  Zn  Zn92  1  0.62440777  0.37212970  0.24279733  1
  Zn  Zn93  1  0.74975639  0.37494747  0.12510727  1
  Zn  Zn94  1  0.38356732  0.00078699  0.37832339  1
  Zn  Zn95  1  0.12615971  0.12477731  0.50171453  1
  Zn  Zn96  1  0.50840656  0.86752077  0.37298218  1
  Zn  Zn97  1  0.24984146  0.88036546  0.62975128  1
  Zn  Zn98  1  -0.00388170  0.86807400  0.37262644  1
  Zn  Zn99  1  0.75074373  0.25380216  0.49512520  1
  Zn  Zn100  1  0.36897504  0.12826643  0.74392351  1
  Zn  Zn101  1  -0.00592051  0.38108177  0.87127388  1
  Zn  Zn102  1  0.50717011  0.74706718  0.75609170  1
  Zn  Zn103  1  0.76476306  0.87897266  0.11672587  1
  Zn  Zn104  1  0.12258594  0.62448813  0.50003398  1
  Zn  Zn105  1  0.25550750  0.37195215  0.62813226  1
  Zn  Zn106  1  0.75071968  0.49915203  0.24631956  1
  Zn  Zn107  1  0.19102517  0.18707398  0.19032508  1
  Zn  Zn108  1  0.17915367  0.18513379  0.68624024  1
  Zn  Zn109  1  0.19414678  0.68983567  0.18517224  1
  Zn  Zn110  1  0.18800337  0.68280969  0.68915925  1
  Zn  Zn111  1  0.69164859  0.18505180  0.18701945  1
  Zn  Zn112  1  0.68443746  0.19094787  0.68423273  1
  Zn  Zn113  1  0.69787005  0.68371239  0.17590837  1
  Zn  Zn114  1  0.68734151  0.69033333  0.69191177  1
  Zn  Zn115  1  0.31175382  0.31068718  0.31574948  1
  Zn  Zn116  1  0.31212117  0.31381310  0.81344415  1
  Zn  Zn117  1  0.30984238  0.81082059  0.31491899  1
  Zn  Zn118  1  0.32305927  0.80943894  0.81869533  1
  Zn  Zn119  1  0.80742753  0.31541596  0.31016994  1
  Zn  Zn120  1  0.80800184  0.31255560  0.80993464  1
  Zn  Zn121  1  0.80666855  0.81440395  0.31286295  1
  Zn  Zn122  1  0.81341686  0.81036781  0.81249157  1
  Zn  Zn123  1  0.18724544  0.43350958  0.43901254  1
  Zn  Zn124  1  0.19041640  0.44247246  0.93680236  1
  Zn  Zn125  1  0.19088526  0.93623707  0.43684397  1
  Zn  Zn126  1  0.14927337  0.91911385  0.97662663  1
  Zn  Zn127  1  0.68483022  0.43812193  0.43402705  1
  Zn  Zn128  1  0.68773906  0.43583170  0.93681929  1
  Zn  Zn129  1  0.68594681  0.93620666  0.43666732  1
  Zn  Zn130  1  0.69150440  0.94233341  0.93436141  1
  Zn  Zn131  1  0.30988784  0.06341390  0.06148017  1
  Zn  Zn132  1  0.30850170  0.06274931  0.56357163  1
  Zn  Zn133  1  0.31318839  0.56664496  0.06507310  1
  Zn  Zn134  1  0.31401875  0.56273600  0.56201587  1
  Zn  Zn135  1  0.81700007  0.06482290  0.05659616  1
  Zn  Zn136  1  0.81075739  0.06376893  0.56107219  1
  Zn  Zn137  1  0.81229964  0.56491624  0.06022182  1
  Zn  Zn138  1  0.81268960  0.56109315  0.55943420  1
  Zn  Zn139  1  0.43966736  0.44432056  0.18413497  1
  Zn  Zn140  1  0.44121799  0.43806968  0.68833244  1
  Zn  Zn141  1  0.44199989  0.93535700  0.19040710  1
  Zn  Zn142  1  0.44241415  0.93855265  0.68642437  1
  Zn  Zn143  1  0.93649036  0.43956298  0.18716345  1
  Zn  Zn144  1  0.93679798  0.43289568  0.68564710  1
  Zn  Zn145  1  0.94302043  0.93893465  0.19320612  1
  Zn  Zn146  1  0.93410503  0.93743845  0.69339676  1
  Zn  Zn147  1  0.06323039  0.06183682  0.31510562  1
  Zn  Zn148  1  0.05081291  0.06667486  0.81597705  1
  Zn  Zn149  1  0.06164405  0.55921589  0.31192575  1
  Zn  Zn150  1  0.06358083  0.56591388  0.81207960  1
  Zn  Zn151  1  0.56011153  0.05209925  0.31320731  1
  Zn  Zn152  1  0.56565443  0.06353477  0.80978574  1
  Zn  Zn153  1  0.56311324  0.55783045  0.30738307  1
  Zn  Zn154  1  0.56433689  0.56211912  0.81563052  1
  Zn  Zn155  1  0.43856811  0.18847131  0.43755153  1
  Zn  Zn156  1  0.43952779  0.18561274  0.93828147  1
  Zn  Zn157  1  0.42369055  0.69283778  0.43586620  1
  Zn  Zn158  1  0.43425328  0.69063344  0.94609953  1
  Zn  Zn159  1  0.93821679  0.18497111  0.43752347  1
  Zn  Zn160  1  0.93349549  0.18721342  0.93737844  1
  Zn  Zn161  1  0.93353873  0.68253151  0.44460785  1
  Zn  Zn162  1  0.93582314  0.67857402  0.93441708  1
  Zn  Zn163  1  0.05774319  0.31247596  0.06349860  1
  Zn  Zn164  1  0.06177097  0.31279123  0.56156100  1
  Zn  Zn165  1  0.07411934  0.80508217  0.08255360  1
  Zn  Zn166  1  0.06074293  0.81315557  0.56535576  1
  Zn  Zn167  1  0.56327165  0.31385207  0.05926724  1
  Zn  Zn168  1  0.56550240  0.30927042  0.55881544  1
  Zn  Zn169  1  0.56076321  0.81031139  0.07052740  1
  Zn  Zn170  1  0.56253326  0.81575803  0.56953272  1
  O  O171  1  0.11336296  0.12790055  0.12347407  1
  O  O172  1  0.11070568  0.11468537  0.62326605  1
  O  O173  1  0.12107306  0.61980294  0.11929923  1
  O  O174  1  0.11867808  0.61104477  0.62380576  1
  O  O175  1  0.61896484  0.11819841  0.12258691  1
  O  O176  1  0.62138447  0.12044425  0.61570006  1
  O  O177  1  0.63344283  0.61485052  0.10617367  1
  O  O178  1  0.61355000  0.62080208  0.63037745  1
  O  O179  1  0.38201783  0.38047353  0.38210945  1
  O  O180  1  0.36967865  0.38425326  0.88585549  1
  O  O181  1  0.37238591  0.86943522  0.39343095  1
  O  O182  1  0.38150497  0.88438503  0.88763793  1
  O  O183  1  0.88373883  0.38103524  0.36975149  1
  O  O184  1  0.87454114  0.36929056  0.88766483  1
  O  O185  1  0.87558533  0.88178271  0.38162331  1
  O  O186  1  0.87333388  0.88539446  0.87363069  1
  O  O187  1  0.25686472  0.00409914  0.36787437  1
  O  O188  1  0.25329923  0.00631457  0.86626985  1
  O  O189  1  0.25465142  0.50405580  0.37221837  1
  O  O190  1  0.26428711  0.50694750  0.87381266  1
  O  O191  1  0.75713981  0.00470984  0.36835869  1
  O  O192  1  0.75662227  0.01497967  0.87427117  1
  O  O193  1  0.75821100  0.50582396  0.37521379  1
  O  O194  1  0.74343034  0.51018530  0.86688848  1
  O  O195  1  0.24473943  0.49392240  0.13022377  1
  O  O196  1  0.24194643  0.49729667  0.62635632  1
  O  O197  1  0.23676964  1.01338180  0.13718780  1
  O  O198  1  0.23672823  1.00107731  0.62725422  1
  O  O199  1  0.74149561  0.49730977  0.12130621  1
  O  O200  1  0.74522307  0.49597578  0.62992450  1
  O  O201  1  0.74722485  1.00218523  0.12942003  1
  O  O202  1  0.74060336  0.99245110  0.61992344  1
  O  O203  1  0.00957117  0.38013965  0.25944328  1
  O  O204  1  0.00917376  0.37005446  0.75164529  1
  O  O205  1  0.01830160  0.87932327  0.25641594  1
  O  O206  1  0.00103972  0.85682446  0.74267998  1
  O  O207  1  0.49989924  0.38155769  0.26175704  1
  O  O208  1  0.51288106  0.36759424  0.74416531  1
  O  O209  1  0.52070780  0.87000881  0.24357990  1
  O  O210  1  0.50632702  0.87527691  0.76138235  1
  O  O211  1  0.49407462  0.11826074  0.23686669  1
  O  O212  1  0.50028847  0.13319827  0.74050119  1
  O  O213  1  0.48541065  0.62494568  0.25700217  1
  O  O214  1  0.49565052  0.62617693  0.74343021  1
  O  O215  1  1.00106339  0.12576039  0.23952590  1
  O  O216  1  1.00270284  0.13707016  0.74072489  1
  O  O217  1  0.99231206  0.61759562  0.24177296  1
  O  O218  1  1.00171692  0.62695398  0.73576524  1
  O  O219  1  0.37291697  0.25827418  0.00449063  1
  O  O220  1  0.36642093  0.25966937  0.49456003  1
  O  O221  1  0.37197233  0.77033170  0.00269190  1
  O  O222  1  0.36481725  0.75666181  0.51332423  1
  O  O223  1  0.86928891  0.25661615  0.00715410  1
  O  O224  1  0.87312111  0.24751881  0.51130725  1
  O  O225  1  0.86572540  0.74634784  -0.00306368  1
  O  O226  1  0.86770633  0.75558759  0.51052068  1
  O  O227  1  0.13162238  0.25067751  0.49276798  1
  O  O228  1  0.13005148  0.24724997  0.99662451  1
  O  O229  1  0.13062128  0.74763631  0.49677856  1
  O  O230  1  0.12333100  0.73653987  0.99697813  1
  O  O231  1  0.62818914  0.23808927  0.48757536  1
  O  O232  1  0.63279109  0.24905920  0.99132347  1
  O  O233  1  0.64019089  0.75273844  0.51115977  1
  O  O234  1  0.63272817  0.73916504  1.00490511  1
  O  O235  1  0.49449225  0.23970791  0.11806076  1
  O  O236  1  0.50831181  0.23958006  0.63404866  1
  O  O237  1  0.47712727  0.74700751  0.11332609  1
  O  O238  1  0.49200924  0.74202174  0.62571870  1
  O  O239  1  0.98860040  0.24121712  0.12497405  1
  O  O240  1  0.99358787  0.24373701  0.62860519  1
  O  O241  1  0.99913447  0.73288835  0.12543244  1
  O  O242  1  0.99363685  0.73995322  0.62991247  1
  O  O243  1  0.00640653  0.25990609  0.38152077  1
  O  O244  1  0.00405586  0.25197430  0.86693154  1
  O  O245  1  0.01278733  0.74617349  0.38428933  1
  O  O246  1  -0.00523293  0.73683723  0.85410141  1
  O  O247  1  0.50774352  0.25929330  0.37697469  1
  O  O248  1  0.51479189  0.24028789  0.86836175  1
  O  O249  1  0.50244226  0.75340805  0.38560354  1
  O  O250  1  0.49465433  0.76456301  0.87739915  1
  O  O251  1  0.24778800  0.13364310  0.49630021  1
  O  O252  1  0.24468852  0.13388990  0.99022956  1
  O  O253  1  0.24990520  0.63573598  0.49448228  1
  O  O254  1  0.24109605  0.61711394  0.99183199  1
  O  O255  1  0.74215102  0.12602933  0.48736602  1
  O  O256  1  0.74920502  0.13771203  0.99396942  1
  O  O257  1  0.75508074  0.63381827  0.49037574  1
  O  O258  1  0.74355072  0.63175569  0.98933747  1
  O  O259  1  0.25919588  0.37209344  0.00680091  1
  O  O260  1  0.26052184  0.36858179  0.50151340  1
  O  O261  1  0.25813337  0.88492889  -0.00002529  1
  O  O262  1  0.25550150  0.86337006  0.50477949  1
  O  O263  1  0.75656696  0.36412593  0.00120457  1
  O  O264  1  0.74360993  0.37481978  0.51195046  1
  O  O265  1  0.74411409  0.85882662  -0.00484986  1
  O  O266  1  0.75383813  0.86908871  0.50945914  1
  O  O267  1  0.13070731  0.48946221  0.24533242  1
  O  O268  1  0.12531032  0.49167320  0.74287721  1
  O  O269  1  0.13399816  0.99683033  0.24965392  1
  O  O270  1  0.12665585  1.00160698  0.74816012  1
  O  O271  1  0.62564239  0.50009779  0.23374840  1
  O  O272  1  0.62851899  0.49244663  0.74432576  1
  O  O273  1  0.63422779  0.99613672  0.23730765  1
  O  O274  1  0.62388852  0.99044052  0.74000221  1
  O  O275  1  0.36814601  0.00609551  0.24665743  1
  O  O276  1  0.38214190  0.00422288  0.76329059  1
  O  O277  1  0.37122210  0.50995307  0.25515113  1
  O  O278  1  0.37685782  0.50351523  0.75889602  1
  O  O279  1  0.86995873  -0.00345118  0.26277299  1
  O  O280  1  0.87727489  0.00307598  0.76515679  1
  O  O281  1  0.87590323  0.50743773  0.26170106  1
  O  O282  1  0.86105358  0.49309282  0.74749087  1
  O  O283  1  0.11757817  0.36683523  0.36912037  1
  O  O284  1  0.12367377  0.37150273  0.86771272  1
  O  O285  1  0.12410736  0.86526459  0.37141220  1
  O  O286  1  0.14248865  0.88328572  0.86484678  1
  O  O287  1  0.61637390  0.36565764  0.37300598  1
  O  O288  1  0.63127025  0.36390728  0.86457274  1
  O  O289  1  0.63265677  0.87471239  0.35515761  1
  O  O290  1  0.61672419  0.88436300  0.86755901  1
  O  O291  1  0.38182664  0.12989327  0.13229883  1
  O  O292  1  0.38772741  0.11939657  0.62588469  1
  O  O293  1  0.37490194  0.62768287  0.14089781  1
  O  O294  1  0.38454837  0.63088188  0.62927667  1
  O  O295  1  0.88836736  0.13432489  0.12117301  1
  O  O296  1  0.88482311  0.13123532  0.62133229  1
  O  O297  1  0.88347828  0.62330611  0.13433655  1
  O  O298  1  0.88209911  0.63200427  0.61989549  1
  O  O299  1  0.25836791  0.25524912  0.11975846  1
  O  O300  1  0.24228852  0.25114500  0.61260281  1
  O  O301  1  0.27030982  0.74141621  0.11937085  1
  O  O302  1  0.25630182  0.75031470  0.62108031  1
  O  O303  1  0.76205149  0.24758801  0.11696779  1
  O  O304  1  0.75697653  0.25813794  0.62306011  1
  O  O305  1  0.76193442  0.75240470  0.10705282  1
  O  O306  1  0.75685746  0.75483055  0.62106657  1
  O  O307  1  0.24060972  0.25066608  0.38590880  1
  O  O308  1  0.24292753  0.24601783  0.88168920  1
  O  O309  1  0.24024150  0.74406159  0.38444723  1
  O  O310  1  0.25527862  0.73641809  0.87349267  1
  O  O311  1  0.74477367  0.24123274  0.37480185  1
  O  O312  1  0.74282506  0.24207172  0.87849286  1
  O  O313  1  0.75448207  0.74084428  0.38623220  1
  O  O314  1  0.75309479  0.73690369  0.88178259  1
  O  O315  1  0.01006549  0.13406959  0.00781507  1
  O  O316  1  0.00066791  0.11213696  0.50673449  1
  O  O317  1  0.00703805  0.61751500  0.00581001  1
  O  O318  1  0.00149388  0.61173237  0.51014908  1
  O  O319  1  0.49978419  0.11271291  0.00973586  1
  O  O320  1  0.50788839  0.12941773  0.50809000  1
  O  O321  1  0.51360494  0.62092404  -0.00539334  1
  O  O322  1  0.49978663  0.61945272  0.50446860  1
  O  O323  1  0.49496157  0.38086471  0.49258607  1
  O  O324  1  0.48861857  0.38350937  1.00056921  1
  O  O325  1  0.48522643  0.87333869  0.50641851  1
  O  O326  1  0.49910437  0.88628933  0.99674510  1
  O  O327  1  1.00308889  0.38589956  0.49122907  1
  O  O328  1  0.99308888  0.38313178  0.99795039  1
  O  O329  1  0.99258652  0.88490034  0.50009887  1
  O  O330  1  1.03931377  0.87188109  0.99377945  1
  O  O331  1  0.49673610  0.49414101  0.38168846  1
  O  O332  1  0.48793275  0.50489719  0.88558715  1
  O  O333  1  0.49540556  0.98270058  0.36971224  1
  O  O334  1  0.49386292  0.99777957  0.88397337  1
  O  O335  1  0.99491864  0.49193301  0.38190793  1
  O  O336  1  1.00263526  0.50141682  0.88787851  1
  O  O337  1  0.99270195  0.99973164  0.38336784  1
  O  O338  1  0.98767204  0.99907589  0.87821963  1
  O  O339  1  0.01006037  0.01459496  0.12770755  1
  O  O340  1  0.00162720  0.00452474  0.62050618  1
  O  O341  1  0.00615672  0.50712940  0.11718437  1
  O  O342  1  0.00356606  0.50157554  0.61813921  1
  O  O343  1  0.50886217  0.00435119  0.11971263  1
  O  O344  1  0.51384402  0.01005061  0.62722585  1
  O  O345  1  0.50680809  0.50143865  0.10981288  1
  O  O346  1  0.50400424  0.50839812  0.61696376  1
  O  O347  1  0.24500022  0.38123512  0.24594047  1
  O  O348  1  0.23851318  0.37448795  0.74743853  1
  O  O349  1  0.24317570  0.88731237  0.25663985  1
  O  O350  1  0.25699805  0.88108771  0.75124539  1
  O  O351  1  0.74383468  0.38085211  0.24395058  1
  O  O352  1  0.74036107  0.38142680  0.74105536  1
  O  O353  1  0.74631127  0.88660705  0.24302621  1
  O  O354  1  0.74444733  0.87060384  0.73809294  1
  O  O355  1  0.25958256  0.11735270  0.25381515  1
  O  O356  1  0.25059929  0.13728541  0.76438621  1
  O  O357  1  0.25451127  0.61764530  0.25726454  1
  O  O358  1  0.25938707  0.62121964  0.75743584  1
  O  O359  1  0.74651035  0.11124822  0.25967884  1
  O  O360  1  0.74839178  0.13030485  0.75834082  1
  O  O361  1  0.76025992  0.62165671  0.25597046  1
  O  O362  1  0.74237915  0.61749398  0.76322315  1
  O  O363  1  0.37866458  0.12465752  0.36145075  1
  O  O364  1  0.36484588  0.11679616  0.87764751  1
  O  O365  1  0.36509005  0.62063292  0.36624044  1
  O  O366  1  0.37136825  0.62023675  0.87262251  1
  O  O367  1  0.86524171  0.11674402  0.37934111  1
  O  O368  1  0.86212831  0.12706702  0.87213715  1
  O  O369  1  0.86903367  0.61895050  0.36885754  1
  O  O370  1  0.85876171  0.61612676  0.87664912  1
  O  O371  1  0.12836198  0.37733794  0.13275045  1
  O  O372  1  0.12415909  0.38464936  0.63158669  1
  O  O373  1  0.12870686  0.88996927  0.13692337  1
  O  O374  1  0.12533572  0.88839915  0.62450264  1
  O  O375  1  0.62503332  0.38665921  0.12161290  1
  O  O376  1  0.63152590  0.38002651  0.63072366  1
  O  O377  1  0.63226967  0.88205228  0.13070159  1
  O  O378  1  0.63111353  0.88629755  0.62972837  1
  O  O379  1  0.13259225  0.26241949  0.25786228  1
  O  O380  1  0.11365090  0.25840914  0.75280359  1
  O  O381  1  0.13418699  0.75908837  0.25896304  1
  O  O382  1  0.11147269  0.74776728  0.74415128  1
  O  O383  1  0.62817342  0.24852436  0.26085545  1
  O  O384  1  0.61830141  0.25705348  0.75540896  1
  O  O385  1  0.63889979  0.76052904  0.23973162  1
  O  O386  1  0.62161341  0.76919108  0.74284188  1
  O  O387  1  0.36994767  0.24116814  0.24184836  1
  O  O388  1  0.39056380  0.25075878  0.75760606  1
  O  O389  1  0.37100638  0.74079348  0.24502225  1
  O  O390  1  0.37997883  0.74532613  0.74021375  1
  O  O391  1  0.87117491  0.25212498  0.23482591  1
  O  O392  1  0.88579422  0.25917745  0.73988854  1
  O  O393  1  0.87243654  0.74034408  0.24889338  1
  O  O394  1  0.88115626  0.75042830  0.73713646  1
  O  O395  1  0.38531421  0.49525793  0.49379490  1
  O  O396  1  0.38179051  0.49593710  0.99688966  1
  O  O397  1  0.36792776  0.98374478  0.50182258  1
  O  O398  1  0.38030181  0.99275580  0.99607704  1
  O  O399  1  0.88298428  0.50273672  0.48556539  1
  O  O400  1  0.88471976  0.48958541  1.00777642  1
  O  O401  1  0.87977541  0.99480636  0.49171644  1
  O  O402  1  0.87307588  1.00338500  0.98152739  1
  O  O403  1  0.13373942  0.02129146  0.01648068  1
  O  O404  1  0.11676188  0.00004503  0.50599075  1
  O  O405  1  0.11784191  0.50358501  0.00707563  1
  O  O406  1  0.11804576  0.49945156  0.50680082  1
  O  O407  1  0.61975165  0.00083176  0.00983709  1
  O  O408  1  0.62909482  0.01208397  0.50485298  1
  O  O409  1  0.61818085  0.50573619  0.00089815  1
  O  O410  1  0.61246037  0.49586066  0.50609430  1
  O  O411  1  0.37241784  0.37165178  0.11906711  1
  O  O412  1  0.37626123  0.38014624  0.61180944  1
  O  O413  1  0.37435623  0.87360461  0.11474235  1
  O  O414  1  0.37351211  0.86817218  0.61937600  1
  O  O415  1  0.87781073  0.36288642  0.11720502  1
  O  O416  1  0.86509978  0.36639739  0.62497186  1
  O  O417  1  0.88598414  0.87932998  0.11459110  1
  O  O418  1  0.86688297  0.86994603  0.62123089  1
  O  O419  1  0.12347536  0.13927487  0.37617645  1
  O  O420  1  0.12818941  0.13159657  0.88305900  1
  O  O421  1  0.13079221  0.62926493  0.37570661  1
  O  O422  1  0.13689238  0.61773761  0.88404376  1
  O  O423  1  0.62869631  0.12739141  0.37787770  1
  O  O424  1  0.63681219  0.13019518  0.87560965  1
  O  O425  1  0.64006510  0.61589323  0.37162573  1
  O  O426  1  0.63269645  0.62298851  0.88871935  1
