# generated using pymatgen
data_V85Zn86O256
_symmetry_space_group_name_H-M   'P 1'
_cell_length_a   16.93807458
_cell_length_b   16.91975137
_cell_length_c   16.93945140
_cell_angle_alpha   90.00261499
_cell_angle_beta   90.04445593
_cell_angle_gamma   90.07280780
_symmetry_Int_Tables_number   1
_chemical_formula_structural   V85Zn86O256
_chemical_formula_sum   'V85 Zn86 O256'
_cell_volume   4854.63829067
_cell_formula_units_Z   1
loop_
 _symmetry_equiv_pos_site_id
 _symmetry_equiv_pos_as_xyz
  1  'x, y, z'
loop_
 _atom_site_type_symbol
 _atom_site_label
 _atom_site_symmetry_multiplicity
 _atom_site_fract_x
 _atom_site_fract_y
 _atom_site_fract_z
 _atom_site_occupancy
  V  V0  1  -0.00308456  -0.00024309  0.00836953  1
  V  V1  1  0.04898900  0.18538300  0.68543182  1
  V  V2  1  0.38283544  0.87923335  0.50175532  1
  V  V3  1  0.12168651  0.87256176  0.74771497  1
  V  V4  1  0.49781794  0.50643162  0.00505693  1
  V  V5  1  0.87098863  0.36935777  0.49724609  1
  V  V6  1  0.24713973  0.11765992  0.36351144  1
  V  V7  1  -0.00337408  0.37216347  0.37048907  1
  V  V8  1  0.12438433  0.37535739  0.24751898  1
  V  V9  1  0.37395163  0.00971070  0.87246082  1
  V  V10  1  0.00455545  0.00336710  0.51309012  1
  V  V11  1  0.00595641  0.87562837  0.37674156  1
  V  V12  1  0.62648844  0.49920052  0.62345807  1
  V  V13  1  0.49931353  0.12568430  0.12613584  1
  V  V14  1  0.75796358  0.87735011  0.12136882  1
  V  V15  1  0.62819252  0.13222926  0.00178233  1
  V  V16  1  0.25194385  -0.00173562  0.74762221  1
  V  V17  1  0.62395354  0.00121373  0.62340401  1
  V  V18  1  0.62783048  0.74099403  0.87613486  1
  V  V19  1  0.49946815  0.38398332  0.37308471  1
  V  V20  1  0.87083554  0.24393589  0.62214731  1
  V  V21  1  0.24570973  0.25055022  -0.01015410  1
  V  V22  1  0.74950866  0.35826537  0.11547378  1
  V  V23  1  0.49938339  0.00032371  0.00029359  1
  V  V24  1  0.62664501  0.25240825  0.38027556  1
  V  V25  1  0.37693633  -0.00321817  0.36866286  1
  V  V26  1  0.24301979  0.87413801  0.62051330  1
  V  V27  1  0.62439568  0.87622958  0.75032889  1
  V  V28  1  0.00288025  0.62849095  0.61739360  1
  V  V29  1  0.24299831  0.74491398  0.00329155  1
  V  V30  1  0.37333352  0.38045684  -0.00571825  1
  V  V31  1  0.12962669  0.73170189  0.38153806  1
  V  V32  1  0.25237106  0.49424366  0.75401961  1
  V  V33  1  0.87647145  0.62564504  0.24598153  1
  V  V34  1  0.50602792  0.75543032  0.24561852  1
  V  V35  1  0.75003243  0.37094375  0.62148528  1
  V  V36  1  0.37156171  0.87224914  -0.00000474  1
  V  V37  1  0.12319871  0.50485229  0.11347640  1
  V  V38  1  0.49654207  0.74921269  0.75032192  1
  V  V39  1  0.25085901  0.37418637  0.12421745  1
  V  V40  1  0.75122197  0.87007392  0.61822320  1
  V  V41  1  0.12416568  0.50101158  0.62080847  1
  V  V42  1  0.75188937  0.12980982  0.37991460  1
  V  V43  1  0.12210427  0.24618158  0.37144207  1
  V  V44  1  0.75115029  0.13564724  0.87883419  1
  V  V45  1  0.37469825  0.37131775  0.49265337  1
  V  V46  1  0.00412768  0.75185946  0.24841272  1
  V  V47  1  0.49711222  0.25051421  0.25145999  1
  V  V48  1  0.62225982  -0.00739359  0.13022030  1
  V  V49  1  0.11810306  0.12797594  -0.00571731  1
  V  V50  1  0.62912809  0.37471121  0.75261362  1
  V  V51  1  0.13508923  0.00282618  0.12851144  1
  V  V52  1  0.75002866  0.50042674  0.24287909  1
  V  V53  1  0.74510231  -0.00472169  0.25323162  1
  V  V54  1  0.87591018  0.12878395  0.23816100  1
  V  V55  1  0.50347809  0.62586231  0.62344042  1
  V  V56  1  0.12502681  0.74179226  0.87254163  1
  V  V57  1  0.49731109  0.12035562  0.62241820  1
  V  V58  1  0.62291687  0.12313546  0.49958559  1
  V  V59  1  0.87433053  0.74373592  0.61764917  1
  V  V60  1  0.38524102  0.62121618  0.24053417  1
  V  V61  1  0.49854787  0.24600350  0.75241118  1
  V  V62  1  -0.05637605  0.68762462  0.79038859  1
  V  V63  1  0.87347568  -0.00237389  0.88094722  1
  V  V64  1  0.24880635  0.24426985  0.49529409  1
  V  V65  1  -0.00423195  0.87286578  0.87645543  1
  V  V66  1  0.37876286  0.24672663  0.62454966  1
  V  V67  1  0.87846186  0.00074859  0.37564336  1
  V  V68  1  0.62582670  0.62726645  0.01189143  1
  V  V69  1  0.00409336  0.36973026  0.86159060  1
  V  V70  1  0.75859508  0.50996761  0.75676456  1
  V  V71  1  0.88489653  0.37325001  -0.00044670  1
  V  V72  1  0.25631037  0.62072464  0.87576082  1
  V  V73  1  0.25317107  0.50777426  0.24907207  1
  V  V74  1  0.75480045  0.75220291  -0.00193384  1
  V  V75  1  0.87571754  0.13031860  0.75058245  1
  V  V76  1  0.74996458  0.00164487  0.75016748  1
  V  V77  1  0.63194120  0.76040669  0.37718579  1
  V  V78  1  0.00531140  0.62208389  0.11601813  1
  V  V79  1  0.50050506  0.87571680  0.87514162  1
  V  V80  1  0.31705836  0.56013680  0.42297151  1
  V  V81  1  -0.00449564  0.24727204  0.23294224  1
  V  V82  1  0.63800293  0.62881409  0.49896830  1
  V  V83  1  0.49739459  0.38303450  0.87365444  1
  V  V84  1  0.87425523  0.50020355  0.37493140  1
  Zn  Zn85  1  0.62795411  0.25565299  0.88230852  1
  Zn  Zn86  1  0.36943139  0.11957953  0.24449536  1
  Zn  Zn87  1  0.75481808  0.63137264  0.37628498  1
  Zn  Zn88  1  0.37247241  0.74978909  0.62301941  1
  Zn  Zn89  1  0.24908436  0.74374861  0.49768825  1
  Zn  Zn90  1  0.50618518  0.88158487  0.37516468  1
  Zn  Zn91  1  0.13526435  0.88045860  0.25393373  1
  Zn  Zn92  1  0.37851639  0.74624078  0.12352700  1
  Zn  Zn93  1  0.50049111  0.50484141  0.49530018  1
  Zn  Zn94  1  0.12416972  0.36372928  0.74905363  1
  Zn  Zn95  1  0.87337439  0.87105298  0.49788455  1
  Zn  Zn96  1  0.88319528  0.50835639  0.87873224  1
  Zn  Zn97  1  0.62680401  0.37693400  0.24904509  1
  Zn  Zn98  1  0.62232164  0.50145251  0.12802817  1
  Zn  Zn99  1  0.37282651  0.24852842  0.12430063  1
  Zn  Zn100  1  0.87955844  0.75620328  0.12218023  1
  Zn  Zn101  1  0.25298260  0.87413976  0.13195822  1
  Zn  Zn102  1  0.12105784  0.12166265  0.50497568  1
  Zn  Zn103  1  0.00330325  0.50194427  0.49504865  1
  Zn  Zn104  1  0.24796314  0.12739266  0.87141045  1
  Zn  Zn105  1  0.24714448  0.37147605  0.62513407  1
  Zn  Zn106  1  0.38034475  0.61511635  0.75441146  1
  Zn  Zn107  1  0.18219514  0.18689845  0.17999876  1
  Zn  Zn108  1  0.20953719  0.18078996  0.68554644  1
  Zn  Zn109  1  0.18973609  0.68886183  0.19172044  1
  Zn  Zn110  1  0.18720507  0.68581209  0.68903258  1
  Zn  Zn111  1  0.68405613  0.18411254  0.19434961  1
  Zn  Zn112  1  0.68772563  0.18973685  0.68899693  1
  Zn  Zn113  1  0.68850778  0.69194306  0.18889902  1
  Zn  Zn114  1  0.68773832  0.68996774  0.68806786  1
  Zn  Zn115  1  0.31262816  0.31174664  0.31066437  1
  Zn  Zn116  1  0.31558115  0.31419160  0.81078689  1
  Zn  Zn117  1  0.31206856  0.80811696  0.31172236  1
  Zn  Zn118  1  0.31129081  0.81326845  0.81391961  1
  Zn  Zn119  1  0.81060736  0.31214996  0.30632610  1
  Zn  Zn120  1  0.81892472  0.31543229  0.81395123  1
  Zn  Zn121  1  0.81524446  0.81511034  0.30965766  1
  Zn  Zn122  1  0.80747727  0.81583179  0.81220016  1
  Zn  Zn123  1  0.18202076  0.43046292  0.43953470  1
  Zn  Zn124  1  0.18103046  0.43533240  0.93302625  1
  Zn  Zn125  1  0.18742891  0.93805212  0.43898646  1
  Zn  Zn126  1  0.18493544  0.93466950  0.93762908  1
  Zn  Zn127  1  0.68946977  0.44120507  0.43578683  1
  Zn  Zn128  1  0.69026969  0.44296595  0.93916821  1
  Zn  Zn129  1  0.68813288  0.94185844  0.44065558  1
  Zn  Zn130  1  0.68644018  0.93943142  0.93941496  1
  Zn  Zn131  1  0.31193385  0.06496806  0.05715639  1
  Zn  Zn132  1  0.31191580  0.05841366  0.55971216  1
  Zn  Zn133  1  0.31112795  0.56266007  0.06127206  1
  Zn  Zn134  1  0.31577240  0.56065839  0.58533010  1
  Zn  Zn135  1  0.80990874  0.06215747  0.06084568  1
  Zn  Zn136  1  0.81250437  0.06056466  0.55999419  1
  Zn  Zn137  1  0.81322101  0.56275635  0.05871585  1
  Zn  Zn138  1  0.81755252  0.55904603  0.56767650  1
  Zn  Zn139  1  0.43535328  0.43850544  0.18666112  1
  Zn  Zn140  1  0.43793254  0.43478781  0.68401224  1
  Zn  Zn141  1  0.43453818  0.93350752  0.18958770  1
  Zn  Zn142  1  0.43481201  0.93697388  0.68629392  1
  Zn  Zn143  1  0.93448929  0.43621827  0.18056970  1
  Zn  Zn144  1  0.93817591  0.43767863  0.68796758  1
  Zn  Zn145  1  0.93915462  0.93927690  0.19151065  1
  Zn  Zn146  1  0.93462926  0.93376591  0.69233679  1
  Zn  Zn147  1  0.05937989  0.06508051  0.31043597  1
  Zn  Zn148  1  0.06656469  0.05269302  0.81844227  1
  Zn  Zn149  1  0.06072280  0.55918149  0.30488500  1
  Zn  Zn150  1  0.06890674  0.54991547  0.81633536  1
  Zn  Zn151  1  0.55929072  0.06216942  0.31357885  1
  Zn  Zn152  1  0.56277649  0.06497699  0.81322558  1
  Zn  Zn153  1  0.56647325  0.56856293  0.31256582  1
  Zn  Zn154  1  0.56676649  0.56086014  0.81440000  1
  Zn  Zn155  1  0.43813490  0.18334040  0.43488937  1
  Zn  Zn156  1  0.43754889  0.19333241  0.93970503  1
  Zn  Zn157  1  0.44621228  0.69822655  0.43938706  1
  Zn  Zn158  1  0.43646277  0.68696885  0.93794181  1
  Zn  Zn159  1  0.93799378  0.18674469  0.43610471  1
  Zn  Zn160  1  0.93523828  0.19267564  0.94532834  1
  Zn  Zn161  1  0.93950863  0.68731479  0.43784716  1
  Zn  Zn162  1  0.93848088  0.68946272  0.95252276  1
  Zn  Zn163  1  0.06392484  0.31499971  0.05664009  1
  Zn  Zn164  1  0.06355813  0.31914153  0.55585838  1
  Zn  Zn165  1  0.06511895  0.81624538  0.06076113  1
  Zn  Zn166  1  0.06033452  0.81058113  0.56120017  1
  Zn  Zn167  1  0.56288920  0.31683033  0.06499088  1
  Zn  Zn168  1  0.56246615  0.31171474  0.55952532  1
  Zn  Zn169  1  0.56414083  0.81360368  0.06389529  1
  Zn  Zn170  1  0.56473018  0.81155287  0.56048132  1
  O  O171  1  0.12626209  0.11170391  0.11143977  1
  O  O172  1  0.11456429  0.13144364  0.62794052  1
  O  O173  1  0.11758572  0.61581221  0.13621105  1
  O  O174  1  0.11968841  0.61138833  0.62743689  1
  O  O175  1  0.61669304  0.11774163  0.12105678  1
  O  O176  1  0.62020705  0.12427963  0.61784492  1
  O  O177  1  0.62441710  0.62698111  0.11518051  1
  O  O178  1  0.61895482  0.62346261  0.61875760  1
  O  O179  1  0.38324256  0.36966821  0.38440423  1
  O  O180  1  0.38469914  0.37375772  0.88250633  1
  O  O181  1  0.37417984  0.88352598  0.38382213  1
  O  O182  1  0.38100266  0.87922661  0.88534168  1
  O  O183  1  0.87535210  0.37804756  0.38041983  1
  O  O184  1  0.88268977  0.38003534  0.88248680  1
  O  O185  1  0.88543774  0.88209959  0.37505297  1
  O  O186  1  0.88191937  0.88594447  0.86688980  1
  O  O187  1  0.25982541  0.00862274  0.38060528  1
  O  O188  1  0.25935876  -0.00412222  0.86976991  1
  O  O189  1  0.25017961  0.49940979  0.37073598  1
  O  O190  1  0.24186932  0.50753274  0.86608637  1
  O  O191  1  0.75668208  0.00501128  0.36969305  1
  O  O192  1  0.75648507  0.00635083  0.87062140  1
  O  O193  1  0.75822622  0.50202907  0.36188646  1
  O  O194  1  0.75077800  0.49869367  0.85934018  1
  O  O195  1  0.24522930  0.49471606  0.13272001  1
  O  O196  1  0.23872881  0.49380940  0.63035858  1
  O  O197  1  0.23808561  0.99949063  0.11872051  1
  O  O198  1  0.25604778  0.98816819  0.63419997  1
  O  O199  1  0.74852289  0.49912309  0.13533452  1
  O  O200  1  0.74619826  0.48885048  0.63396006  1
  O  O201  1  0.74179840  0.99630390  0.13193191  1
  O  O202  1  0.74472250  0.99529862  0.63135286  1
  O  O203  1  0.00120175  0.36792993  0.25275555  1
  O  O204  1  0.00041126  0.36899516  0.75624004  1
  O  O205  1  0.00442353  0.86728035  0.25736545  1
  O  O206  1  0.00912321  0.88135694  0.76303180  1
  O  O207  1  0.50092605  0.36843733  0.25582194  1
  O  O208  1  0.50719207  0.36992853  0.75510114  1
  O  O209  1  0.49582310  0.86018423  0.25548064  1
  O  O210  1  0.50576138  0.86789897  0.75271957  1
  O  O211  1  0.49754514  0.13214845  0.24231578  1
  O  O212  1  0.50708728  0.13995640  0.74325337  1
  O  O213  1  0.49424287  0.63653789  0.25501723  1
  O  O214  1  0.50281475  0.63091737  0.74479426  1
  O  O215  1  0.98801178  0.13472554  0.25303165  1
  O  O216  1  0.99615729  0.12173357  0.75011707  1
  O  O217  1  0.99061237  0.63229859  0.24480418  1
  O  O218  1  1.00775357  0.62292960  0.74096334  1
  O  O219  1  0.36885736  0.26309768  0.00360530  1
  O  O220  1  0.36986083  0.25463579  0.50103912  1
  O  O221  1  0.36779192  0.75651246  0.00089778  1
  O  O222  1  0.37068971  0.76394855  0.49802256  1
  O  O223  1  0.86855782  0.27212456  -0.00305095  1
  O  O224  1  0.87770061  0.26028751  0.50568691  1
  O  O225  1  0.86014002  0.75242666  0.00325681  1
  O  O226  1  0.87667938  0.75167034  0.51227422  1
  O  O227  1  0.13264932  0.24691336  0.49261709  1
  O  O228  1  0.13311195  0.24116127  1.00374280  1
  O  O229  1  0.12503954  0.74936782  0.48546171  1
  O  O230  1  0.13473452  0.75400908  0.98960392  1
  O  O231  1  0.62217793  0.24149529  0.48801907  1
  O  O232  1  0.61682491  0.23616670  1.00047274  1
  O  O233  1  0.62424360  0.74434471  0.48683688  1
  O  O234  1  0.62936027  0.74558730  0.99429959  1
  O  O235  1  0.49996617  0.24356815  0.13371326  1
  O  O236  1  0.49683235  0.24302098  0.63045753  1
  O  O237  1  0.50128941  0.75437841  0.14044712  1
  O  O238  1  0.50287662  0.74322825  0.63380812  1
  O  O239  1  1.00307583  0.25404543  0.13395924  1
  O  O240  1  0.99347853  0.24726052  0.62239999  1
  O  O241  1  1.00243111  0.74589380  0.13248099  1
  O  O242  1  0.99233547  0.74099531  0.62641298  1
  O  O243  1  0.00550664  0.25505392  0.36843188  1
  O  O244  1  -0.00714629  0.27028335  0.88305791  1
  O  O245  1  0.00691635  0.75657866  0.36983850  1
  O  O246  1  0.00095914  0.75005237  0.86752347  1
  O  O247  1  0.50521643  0.25763302  0.36964718  1
  O  O248  1  0.50170815  0.25985760  0.86706273  1
  O  O249  1  0.51458356  0.75573707  0.36735250  1
  O  O250  1  0.50686019  0.75535237  0.86923840  1
  O  O251  1  0.24704752  0.13294324  0.49357706  1
  O  O252  1  0.24313917  0.13531707  0.99722343  1
  O  O253  1  0.26694558  0.61711751  0.49095139  1
  O  O254  1  0.25345340  0.63373605  0.99089749  1
  O  O255  1  0.74351557  0.12188931  0.48678952  1
  O  O256  1  0.74033204  0.12062859  0.99127476  1
  O  O257  1  0.74119826  0.62053974  0.50183303  1
  O  O258  1  0.74000309  0.63839458  1.00414189  1
  O  O259  1  0.25468915  0.37182663  0.00359037  1
  O  O260  1  0.25709549  0.36127422  0.49759873  1
  O  O261  1  0.25716087  0.86455127  -0.00015642  1
  O  O262  1  0.25589086  0.87395522  0.50835882  1
  O  O263  1  0.74430380  0.37239649  0.01279902  1
  O  O264  1  0.75741426  0.37979727  0.50943033  1
  O  O265  1  0.74229125  0.86799424  0.01050054  1
  O  O266  1  0.75320981  0.88143588  0.51419707  1
  O  O267  1  0.13541535  0.49227555  0.24550894  1
  O  O268  1  0.13628800  0.49497579  0.73844077  1
  O  O269  1  0.11677224  1.00319580  0.23112742  1
  O  O270  1  0.13656791  0.98300670  0.75784696  1
  O  O271  1  0.63510915  0.50081011  0.24901087  1
  O  O272  1  0.63040022  0.48899500  0.74424288  1
  O  O273  1  0.63298434  1.00695904  0.24292397  1
  O  O274  1  0.62935554  0.99670811  0.74414182  1
  O  O275  1  0.37411366  -0.00009598  0.26350352  1
  O  O276  1  0.36684344  -0.01113190  0.76261108  1
  O  O277  1  0.36887532  0.50729109  0.25062690  1
  O  O278  1  0.35933370  0.49688332  0.73876551  1
  O  O279  1  0.87048077  0.00704781  0.26071917  1
  O  O280  1  0.87140644  0.01121041  0.75849770  1
  O  O281  1  0.87078461  0.50753496  0.25355600  1
  O  O282  1  0.86154861  0.49740593  0.75049681  1
  O  O283  1  0.11836317  0.36762260  0.36615144  1
  O  O284  1  0.11115614  0.37259394  0.86901293  1
  O  O285  1  0.11459769  0.87304871  0.37401287  1
  O  O286  1  0.11701401  0.86262720  0.86989888  1
  O  O287  1  0.61928813  0.36771813  0.37452310  1
  O  O288  1  0.61983280  0.37449725  0.86797258  1
  O  O289  1  0.62564942  0.86534845  0.38165912  1
  O  O290  1  0.61817284  0.87059955  0.86981565  1
  O  O291  1  0.38631382  0.12505572  0.12440222  1
  O  O292  1  0.38293722  0.13619159  0.61600831  1
  O  O293  1  0.37526385  0.62540486  0.13641742  1
  O  O294  1  0.39075332  0.63046280  0.63110953  1
  O  O295  1  0.86742611  0.12003062  0.13921047  1
  O  O296  1  0.86748171  0.13617665  0.63017155  1
  O  O297  1  0.88432400  0.62732404  0.13092772  1
  O  O298  1  0.88452638  0.63182023  0.62785022  1
  O  O299  1  0.25059041  0.25907656  0.11596849  1
  O  O300  1  0.26135821  0.25070484  0.61428646  1
  O  O301  1  0.25228784  0.74890768  0.11526833  1
  O  O302  1  0.25205727  0.75694472  0.62067194  1
  O  O303  1  0.74517763  0.26017652  0.13185390  1
  O  O304  1  0.75646962  0.26143636  0.62762270  1
  O  O305  1  0.74999836  0.76184426  0.11974436  1
  O  O306  1  0.75853227  0.75874645  0.63110435  1
  O  O307  1  0.24481183  0.24204321  0.37904650  1
  O  O308  1  0.25604392  0.24889726  0.88571674  1
  O  O309  1  0.23345928  0.74645250  0.37617335  1
  O  O310  1  0.24276957  0.74291255  0.88026576  1
  O  O311  1  0.73930279  0.24135798  0.36720285  1
  O  O312  1  0.74802228  0.23871907  0.86818351  1
  O  O313  1  0.73688384  0.75064252  0.36551522  1
  O  O314  1  0.73891659  0.75905473  0.88420688  1
  O  O315  1  0.00520226  0.11425529  -0.00567536  1
  O  O316  1  -0.00032780  0.10830710  0.49507951  1
  O  O317  1  0.00487772  0.62611461  0.01585277  1
  O  O318  1  -0.00301997  0.61994012  0.51259372  1
  O  O319  1  0.50434454  0.12013779  0.00745530  1
  O  O320  1  0.50966192  0.13043149  0.51014828  1
  O  O321  1  0.50731565  0.61634216  -0.00606917  1
  O  O322  1  0.50936710  0.62550289  0.50799554  1
  O  O323  1  0.49259795  0.37850242  0.49195070  1
  O  O324  1  0.49303227  0.37944079  0.99218498  1
  O  O325  1  0.48651490  0.87297344  0.49976309  1
  O  O326  1  0.49473177  0.88076689  0.99527192  1
  O  O327  1  0.99056608  0.37730795  0.48810425  1
  O  O328  1  0.98802342  0.38061964  1.00219317  1
  O  O329  1  0.99663244  0.88492350  0.49302833  1
  O  O330  1  1.00270514  0.88059478  0.98504274  1
  O  O331  1  0.50731198  0.48738373  0.37474064  1
  O  O332  1  0.50506904  0.48909507  0.88307758  1
  O  O333  1  0.48422207  0.99939118  0.37463279  1
  O  O334  1  0.49383409  0.99563432  0.87857124  1
  O  O335  1  0.99165016  0.49138042  0.37159380  1
  O  O336  1  0.99768283  0.48249391  0.87173752  1
  O  O337  1  0.99390451  0.99299450  0.37707096  1
  O  O338  1  0.99182432  0.99118139  0.88375352  1
  O  O339  1  0.00328546  -0.00709409  0.11138804  1
  O  O340  1  -0.01033761  -0.00359209  0.61098130  1
  O  O341  1  0.01130122  0.50908234  0.13419960  1
  O  O342  1  0.00984604  0.50502164  0.62464678  1
  O  O343  1  0.50503180  0.00531642  0.12391191  1
  O  O344  1  0.50399243  0.01454785  0.63363291  1
  O  O345  1  0.50356489  0.49135066  0.10958417  1
  O  O346  1  0.50758873  0.50815819  0.62237994  1
  O  O347  1  0.24857812  0.38279209  0.24213137  1
  O  O348  1  0.24546956  0.37783515  0.74736861  1
  O  O349  1  0.24758570  0.86917921  0.24527094  1
  O  O350  1  0.24525444  0.87854991  0.74197338  1
  O  O351  1  0.75065343  0.38366609  0.23821815  1
  O  O352  1  0.74387156  0.37917163  0.74369839  1
  O  O353  1  0.75287219  0.88961240  0.24432813  1
  O  O354  1  0.74237953  0.88269410  0.74127320  1
  O  O355  1  0.25056973  0.13230140  0.25971263  1
  O  O356  1  0.25147034  0.10541944  0.75473186  1
  O  O357  1  0.26026636  0.61367398  0.25035250  1
  O  O358  1  0.25384378  0.61544422  0.75587041  1
  O  O359  1  0.75412079  0.11566328  0.26053720  1
  O  O360  1  0.75625447  0.12031229  0.75709180  1
  O  O361  1  0.76339861  0.62175854  0.24781798  1
  O  O362  1  0.74244458  0.60800090  0.74546621  1
  O  O363  1  0.36784017  0.11267133  0.37424971  1
  O  O364  1  0.37509577  0.11289912  0.88150512  1
  O  O365  1  0.38055970  0.62133068  0.37119066  1
  O  O366  1  0.36139248  0.62804932  0.87126048  1
  O  O367  1  0.86688282  0.11921854  0.37044899  1
  O  O368  1  0.86884181  0.12108801  0.86977253  1
  O  O369  1  0.87497048  0.61959598  0.36707639  1
  O  O370  1  0.89281844  0.63050117  0.86303869  1
  O  O371  1  0.13515237  0.38128210  0.12855455  1
  O  O372  1  0.12462405  0.38430213  0.62799094  1
  O  O373  1  0.12728468  0.89062483  0.12359280  1
  O  O374  1  0.13220126  0.86904950  0.63271553  1
  O  O375  1  0.63666030  0.37819674  0.12850857  1
  O  O376  1  0.63201704  0.37675032  0.62972387  1
  O  O377  1  0.63210869  0.88854415  0.12324312  1
  O  O378  1  0.63052772  0.87971895  0.62912644  1
  O  O379  1  0.11732792  0.25514915  0.25146595  1
  O  O380  1  0.11798903  0.23992267  0.73825344  1
  O  O381  1  0.11485130  0.74849700  0.26150812  1
  O  O382  1  0.13095211  0.76178591  0.75883114  1
  O  O383  1  0.61308019  0.24955203  0.26201301  1
  O  O384  1  0.61863844  0.26206993  0.75113295  1
  O  O385  1  0.61465391  0.74513492  0.26129383  1
  O  O386  1  0.61692713  0.75440702  0.75813836  1
  O  O387  1  0.38624669  0.24687329  0.24814615  1
  O  O388  1  0.38528756  0.25551605  0.73686642  1
  O  O389  1  0.38827008  0.73964241  0.25206801  1
  O  O390  1  0.38920465  0.75174097  0.75035582  1
  O  O391  1  0.88321382  0.24068420  0.25346591  1
  O  O392  1  0.87302712  0.23807256  0.74144175  1
  O  O393  1  0.88691257  0.74427889  0.24817320  1
  O  O394  1  0.87519482  0.75039760  0.74284658  1
  O  O395  1  0.37118433  0.49723597  0.49220511  1
  O  O396  1  0.38091865  0.48908663  1.00302407  1
  O  O397  1  0.37211869  0.98654406  0.49081492  1
  O  O398  1  0.37984290  0.99261554  0.99275420  1
  O  O399  1  0.87622892  0.48820583  0.49369527  1
  O  O400  1  0.85884401  0.48346233  0.99198737  1
  O  O401  1  0.88159155  0.99888820  0.48799057  1
  O  O402  1  0.87995981  1.00468814  0.98860728  1
  O  O403  1  0.11651736  0.00445111  0.00591376  1
  O  O404  1  0.10955742  0.00081534  0.50037739  1
  O  O405  1  0.13182619  0.49880891  0.01472843  1
  O  O406  1  0.12363805  0.49433327  0.51468949  1
  O  O407  1  0.61771996  0.00967122  0.00820600  1
  O  O408  1  0.62619621  0.01376673  0.50694131  1
  O  O409  1  0.61858444  0.51154294  0.00107812  1
  O  O410  1  0.62449385  0.50897082  0.50612748  1
  O  O411  1  0.36256054  0.37499325  0.11868388  1
  O  O412  1  0.37786970  0.36377633  0.60938967  1
  O  O413  1  0.37498031  0.87401119  0.11043733  1
  O  O414  1  0.36931670  0.87341125  0.61382601  1
  O  O415  1  0.86018669  0.37963609  0.11295742  1
  O  O416  1  0.87006575  0.36527992  0.61890796  1
  O  O417  1  0.86237906  0.87797082  0.12901260  1
  O  O418  1  0.86693850  0.86649255  0.62625034  1
  O  O419  1  0.13212700  0.12797206  0.37621322  1
  O  O420  1  0.12915054  0.11820214  0.88901061  1
  O  O421  1  0.11752373  0.63323980  0.37439549  1
  O  O422  1  0.13220850  0.63615464  0.86715750  1
  O  O423  1  0.62926571  0.12975408  0.38191055  1
  O  O424  1  0.63309591  0.12600837  0.88411075  1
  O  O425  1  0.63073156  0.63524245  0.38411185  1
  O  O426  1  0.62211930  0.63763084  0.88245113  1
