# generated using pymatgen
data_V85Zn86O256
_symmetry_space_group_name_H-M   'P 1'
_cell_length_a   16.92456712
_cell_length_b   16.93061367
_cell_length_c   16.91727075
_cell_angle_alpha   89.95711641
_cell_angle_beta   90.00652975
_cell_angle_gamma   90.04455072
_symmetry_Int_Tables_number   1
_chemical_formula_structural   V85Zn86O256
_chemical_formula_sum   'V85 Zn86 O256'
_cell_volume   4847.52785892
_cell_formula_units_Z   1
loop_
 _symmetry_equiv_pos_site_id
 _symmetry_equiv_pos_as_xyz
  1  'x, y, z'
loop_
 _atom_site_type_symbol
 _atom_site_label
 _atom_site_symmetry_multiplicity
 _atom_site_fract_x
 _atom_site_fract_y
 _atom_site_fract_z
 _atom_site_occupancy
  V  V0  1  -0.00099832  0.74657201  0.74337941  1
  V  V1  1  0.00208473  0.12550864  0.62451593  1
  V  V2  1  0.50641024  0.37298195  0.36960233  1
  V  V3  1  0.12479682  0.12553326  0.49846804  1
  V  V4  1  0.61948832  0.35953122  0.75122888  1
  V  V5  1  0.88077721  0.12020988  0.75507844  1
  V  V6  1  0.25378066  0.00468729  0.75363554  1
  V  V7  1  0.37611828  0.75177102  0.61869210  1
  V  V8  1  0.75492888  0.74694203  0.00303583  1
  V  V9  1  0.62516511  0.00387211  0.62095578  1
  V  V10  1  0.75296602  0.37506089  0.62321976  1
  V  V11  1  0.87366336  0.12077504  0.25323549  1
  V  V12  1  0.12793408  0.38497536  0.24950070  1
  V  V13  1  0.26218902  0.87894449  0.62078425  1
  V  V14  1  0.75209948  0.87409564  0.62578809  1
  V  V15  1  0.12298805  0.87759310  0.24293762  1
  V  V16  1  0.12239793  0.74982135  0.87448161  1
  V  V17  1  0.37466789  0.37653763  0.49842975  1
  V  V18  1  0.49411053  0.87275300  0.38576786  1
  V  V19  1  0.00237713  0.25186436  0.75164704  1
  V  V20  1  0.73747111  0.37169281  0.12712641  1
  V  V21  1  0.62600760  0.50379170  0.62780674  1
  V  V22  1  -0.00510994  0.37418665  0.38583280  1
  V  V23  1  0.87634179  0.62227052  0.74528951  1
  V  V24  1  -0.00056688  0.25086175  0.25104721  1
  V  V25  1  0.75311435  0.87286371  0.12503252  1
  V  V26  1  0.12041598  0.74556245  0.37788392  1
  V  V27  1  0.87852266  0.50102405  0.88283557  1
  V  V28  1  0.50368390  0.13133592  0.62064600  1
  V  V29  1  0.24619922  0.12602111  0.88725753  1
  V  V30  1  0.38246830  0.12529744  0.24747203  1
  V  V31  1  0.24750014  0.75054538  0.00030018  1
  V  V32  1  0.62598784  0.24796962  0.36748635  1
  V  V33  1  0.25161691  0.12472190  0.37517566  1
  V  V34  1  0.38586306  0.87659949  -0.01310643  1
  V  V35  1  0.50392216  0.36225079  0.87874843  1
  V  V36  1  0.61465429  0.00279298  0.11572162  1
  V  V37  1  0.74276929  0.24643175  0.50177760  1
  V  V38  1  0.37910015  0.25540887  0.63123486  1
  V  V39  1  -0.00280005  0.87535497  0.37290085  1
  V  V40  1  -0.00234986  0.51551071  0.50499045  1
  V  V41  1  0.87444337  0.25057408  0.12216635  1
  V  V42  1  0.87147296  0.49496944  0.37793808  1
  V  V43  1  0.87789557  0.25374308  0.61866680  1
  V  V44  1  0.75783717  -0.00339823  0.75693427  1
  V  V45  1  0.75119065  0.13005495  0.87820873  1
  V  V46  1  0.74490667  0.62302327  0.37796919  1
  V  V47  1  0.62181615  0.87509665  0.25107918  1
  V  V48  1  0.50498202  0.50104357  0.49803012  1
  V  V49  1  0.12424298  0.25105163  0.37576230  1
  V  V50  1  0.12646447  0.38093421  0.75069808  1
  V  V51  1  0.62165380  0.74788975  0.88186021  1
  V  V52  1  0.50712196  0.62985577  0.10909360  1
  V  V53  1  0.25162662  0.62028242  0.86735433  1
  V  V54  1  0.01311653  0.00378343  0.00140334  1
  V  V55  1  -0.00684549  0.88070786  0.87302963  1
  V  V56  1  0.74642184  0.11791277  0.38111101  1
  V  V57  1  0.24834589  0.62038705  0.37060881  1
  V  V58  1  0.12726907  0.00074851  0.62230800  1
  V  V59  1  0.50370161  0.62633166  0.61848582  1
  V  V60  1  0.49502950  0.74524650  0.25211045  1
  V  V61  1  0.62280883  0.74704718  0.37997207  1
  V  V62  1  0.37307015  -0.00517520  0.38191038  1
  V  V63  1  0.24713861  0.88254079  0.12080100  1
  V  V64  1  -0.00893899  0.74931060  0.24116708  1
  V  V65  1  -0.00486960  0.00045040  0.49357580  1
  V  V66  1  0.12201935  0.61622981  -0.00055590  1
  V  V67  1  0.24774739  0.27034220  0.01288588  1
  V  V68  1  0.12329157  0.51179629  0.62210034  1
  V  V69  1  0.24515463  0.74883615  0.49992837  1
  V  V70  1  0.87388019  0.88298474  -0.00049506  1
  V  V71  1  0.37764837  0.49248354  0.87358519  1
  V  V72  1  0.12575216  0.87717663  0.74878541  1
  V  V73  1  0.00064470  0.37781315  0.88490703  1
  V  V74  1  0.87216500  0.87733957  0.49524642  1
  V  V75  1  0.37802566  0.13087764  0.75375996  1
  V  V76  1  -0.00979720  0.61890214  0.11714890  1
  V  V77  1  0.74394618  0.62094422  0.87824158  1
  V  V78  1  0.01224398  0.12027992  0.12538802  1
  V  V79  1  0.75138665  -0.00138164  0.25222485  1
  V  V80  1  0.74589082  0.74353193  0.50354844  1
  V  V81  1  0.73963167  0.49423839  0.25162761  1
  V  V82  1  0.62475982  0.87487320  0.75688482  1
  V  V83  1  0.25017966  0.38373339  0.62956626  1
  V  V84  1  0.49972317  0.74906876  0.75198008  1
  Zn  Zn85  1  0.60661084  0.12700983  -0.01918764  1
  Zn  Zn86  1  0.87045759  0.62650187  0.24642081  1
  Zn  Zn87  1  0.37395582  0.75113792  0.12416737  1
  Zn  Zn88  1  0.87978398  0.74357959  0.62067934  1
  Zn  Zn89  1  0.63111471  0.50946614  0.11357865  1
  Zn  Zn90  1  0.36733417  0.61875924  0.23983547  1
  Zn  Zn91  1  0.37064689  0.62078291  0.74527331  1
  Zn  Zn92  1  0.49510243  -0.00357773  0.50847811  1
  Zn  Zn93  1  0.75010194  0.49622713  0.75279796  1
  Zn  Zn94  1  0.74461478  0.25501890  -0.00618286  1
  Zn  Zn95  1  0.29222152  0.44485586  0.18698765  1
  Zn  Zn96  1  0.12355073  0.24821255  0.88414719  1
  Zn  Zn97  1  0.87739267  0.37942660  0.00636192  1
  Zn  Zn98  1  0.12692258  0.49919893  0.12192917  1
  Zn  Zn99  1  0.50790058  0.49794929  -0.00553765  1
  Zn  Zn100  1  0.44142102  0.03052469  0.92109185  1
  Zn  Zn101  1  0.49135401  0.12521180  0.10619909  1
  Zn  Zn102  1  0.24558688  0.00056630  0.24828412  1
  Zn  Zn103  1  0.24965431  0.25255414  0.50152527  1
  Zn  Zn104  1  0.50478930  0.25231609  0.24025145  1
  Zn  Zn105  1  0.37182868  0.49823480  0.36862329  1
  Zn  Zn106  1  0.37959411  0.27489375  0.11786659  1
  Zn  Zn107  1  0.19086407  0.19248884  0.19114765  1
  Zn  Zn108  1  0.19074669  0.19372412  0.68880773  1
  Zn  Zn109  1  0.18099391  0.68691910  0.18539014  1
  Zn  Zn110  1  0.18612628  0.69059673  0.68660170  1
  Zn  Zn111  1  0.68578923  0.18430636  0.18215431  1
  Zn  Zn112  1  0.69227875  0.18430322  0.68893977  1
  Zn  Zn113  1  0.68717472  0.68921429  0.19157067  1
  Zn  Zn114  1  0.68846364  0.68529202  0.69037914  1
  Zn  Zn115  1  0.31473260  0.30907619  0.31326351  1
  Zn  Zn116  1  0.30962056  0.31334060  0.81643240  1
  Zn  Zn117  1  0.31061246  0.81040041  0.31055505  1
  Zn  Zn118  1  0.31272200  0.81075928  0.80986558  1
  Zn  Zn119  1  0.81176603  0.31132321  0.31128984  1
  Zn  Zn120  1  0.81607159  0.31357669  0.80821450  1
  Zn  Zn121  1  0.81141999  0.81222801  0.31471496  1
  Zn  Zn122  1  0.81380348  0.80847822  0.81524787  1
  Zn  Zn123  1  0.18203088  0.43883005  0.44090623  1
  Zn  Zn124  1  0.18852394  0.44068692  0.93402207  1
  Zn  Zn125  1  0.18656710  0.93379688  0.43599249  1
  Zn  Zn126  1  0.18935063  0.93779701  0.93425978  1
  Zn  Zn127  1  0.68682859  0.43319864  0.44276089  1
  Zn  Zn128  1  0.68550360  0.43555656  0.94084552  1
  Zn  Zn129  1  0.68423875  0.93585743  0.43790883  1
  Zn  Zn130  1  0.68646064  0.93999362  0.93626471  1
  Zn  Zn131  1  0.31161865  0.05716012  0.06362377  1
  Zn  Zn132  1  0.31593905  0.06568495  0.56255251  1
  Zn  Zn133  1  0.31793744  0.56235606  0.05571133  1
  Zn  Zn134  1  0.31219558  0.56462908  0.55739421  1
  Zn  Zn135  1  0.81658588  0.05882170  0.06539939  1
  Zn  Zn136  1  0.81416878  0.06251949  0.56586306  1
  Zn  Zn137  1  0.80953872  0.56043785  0.06196652  1
  Zn  Zn138  1  0.81420680  0.56025033  0.56144492  1
  Zn  Zn139  1  0.45482715  0.44562375  0.18985025  1
  Zn  Zn140  1  0.43916634  0.43998138  0.69352361  1
  Zn  Zn141  1  0.43117797  0.93340579  0.19081801  1
  Zn  Zn142  1  0.45759588  0.95720195  0.73213949  1
  Zn  Zn143  1  0.93617453  0.43848051  0.19304273  1
  Zn  Zn144  1  0.93868981  0.43897697  0.69045020  1
  Zn  Zn145  1  0.93548313  0.93810493  0.18384438  1
  Zn  Zn146  1  0.93809539  0.93565495  0.68162843  1
  Zn  Zn147  1  0.06226826  0.06091439  0.31137698  1
  Zn  Zn148  1  0.06622296  0.06151304  0.81620429  1
  Zn  Zn149  1  0.05731243  0.56598737  0.31383206  1
  Zn  Zn150  1  0.06147231  0.56124395  0.81147999  1
  Zn  Zn151  1  0.56453433  0.05927150  0.31625163  1
  Zn  Zn152  1  0.56956329  0.07227469  0.79995410  1
  Zn  Zn153  1  0.56268333  0.56420008  0.31293053  1
  Zn  Zn154  1  0.56141237  0.56106154  0.81041845  1
  Zn  Zn155  1  0.43864740  0.18811958  0.44100733  1
  Zn  Zn156  1  0.42875374  0.19889390  0.93885767  1
  Zn  Zn157  1  0.43111064  0.68611372  0.43896732  1
  Zn  Zn158  1  0.43148248  0.69070406  0.93395561  1
  Zn  Zn159  1  0.93183142  0.18662229  0.43661415  1
  Zn  Zn160  1  0.93801116  0.18555062  0.93867489  1
  Zn  Zn161  1  0.93056152  0.68828947  0.43298244  1
  Zn  Zn162  1  0.93365673  0.69055140  0.93575376  1
  Zn  Zn163  1  0.06709416  0.30844926  0.06575244  1
  Zn  Zn164  1  0.06432782  0.31655642  0.56276053  1
  Zn  Zn165  1  0.05996675  0.80891132  0.06206446  1
  Zn  Zn166  1  0.06521509  0.81429302  0.56229790  1
  Zn  Zn167  1  0.56479478  0.30327204  0.05790052  1
  Zn  Zn168  1  0.56416324  0.31327336  0.56117593  1
  Zn  Zn169  1  0.56453027  0.81299223  0.06360632  1
  Zn  Zn170  1  0.56558879  0.81533204  0.56614586  1
  O  O171  1  0.11068203  0.12583881  0.14000288  1
  O  O172  1  0.12101020  0.12268548  0.61889843  1
  O  O173  1  0.11154911  0.62733165  0.11450003  1
  O  O174  1  0.12832879  0.61129104  0.62980993  1
  O  O175  1  0.61819735  0.10782639  0.12930754  1
  O  O176  1  0.61665468  0.11681360  0.63534589  1
  O  O177  1  0.61093519  0.63082316  0.12985651  1
  O  O178  1  0.61780866  0.61620592  0.62753086  1
  O  O179  1  0.38295648  0.37479176  0.38380679  1
  O  O180  1  0.38804114  0.38382178  0.86658935  1
  O  O181  1  0.38176055  0.88213471  0.36954587  1
  O  O182  1  0.37234639  0.87109104  0.88661151  1
  O  O183  1  0.88118074  0.38239943  0.37308030  1
  O  O184  1  0.88261228  0.38259616  0.87518587  1
  O  O185  1  0.88015062  0.87198207  0.38732166  1
  O  O186  1  0.88664508  0.87370326  0.88004225  1
  O  O187  1  0.25485977  0.00569651  0.37394955  1
  O  O188  1  0.24520730  0.01221705  0.86508249  1
  O  O189  1  0.24517220  0.51810682  0.38469527  1
  O  O190  1  0.26392302  0.50726962  0.87762367  1
  O  O191  1  0.74394727  0.00598939  0.36713293  1
  O  O192  1  0.75193583  0.00491874  0.86170135  1
  O  O193  1  0.75248301  0.50259176  0.37418890  1
  O  O194  1  0.75666246  0.50652821  0.87341047  1
  O  O195  1  0.23944536  0.51998444  0.12363510  1
  O  O196  1  0.24165546  0.49125089  0.61626697  1
  O  O197  1  0.24665222  0.98650227  0.12794248  1
  O  O198  1  0.24575337  0.99522589  0.62674617  1
  O  O199  1  0.75061819  0.49203956  0.13467862  1
  O  O200  1  0.74352713  0.49162192  0.62460736  1
  O  O201  1  0.74088809  0.99406286  0.13196211  1
  O  O202  1  0.74621338  0.99494495  0.63329648  1
  O  O203  1  0.00605400  0.37086300  0.26362520  1
  O  O204  1  0.00521764  0.36834963  0.75770255  1
  O  O205  1  0.00213190  0.86938757  0.25132431  1
  O  O206  1  0.00348615  0.87300560  0.75660515  1
  O  O207  1  0.50413624  0.37164025  0.26639843  1
  O  O208  1  0.51425911  0.37540433  0.75405054  1
  O  O209  1  0.50214694  0.86360512  0.25825770  1
  O  O210  1  0.51298743  0.85671480  0.73925695  1
  O  O211  1  0.48692758  0.12365857  0.25647835  1
  O  O212  1  0.48468157  0.12904323  0.73842994  1
  O  O213  1  0.49909968  0.63767680  0.25060084  1
  O  O214  1  0.50098312  0.63526809  0.73677644  1
  O  O215  1  0.99043183  0.12647147  0.24734433  1
  O  O216  1  0.99802682  0.12930414  0.74568896  1
  O  O217  1  0.99696979  0.63272642  0.23924791  1
  O  O218  1  0.99079104  0.63583918  0.75724899  1
  O  O219  1  0.35332239  0.24843828  0.00527503  1
  O  O220  1  0.37485694  0.26273515  0.50966038  1
  O  O221  1  0.36339509  0.75932247  -0.00047062  1
  O  O222  1  0.36708390  0.75118952  0.51248663  1
  O  O223  1  0.87255409  0.24717868  0.01425133  1
  O  O224  1  0.86716861  0.24584516  0.51313769  1
  O  O225  1  0.86202589  0.76353245  -0.00644319  1
  O  O226  1  0.86446704  0.75651588  0.50119751  1
  O  O227  1  0.12456880  0.24307245  0.49384031  1
  O  O228  1  0.14031256  0.25015311  1.00095461  1
  O  O229  1  0.13031348  0.75311742  0.49076404  1
  O  O230  1  0.12874463  0.74337860  0.99164589  1
  O  O231  1  0.63831855  0.24758498  0.49666586  1
  O  O232  1  0.63583629  0.23199943  1.00897859  1
  O  O233  1  0.63793103  0.75652402  0.49571981  1
  O  O234  1  0.63599147  0.76025176  0.98693316  1
  O  O235  1  0.49310010  0.24196430  0.12519925  1
  O  O236  1  0.49083616  0.24616018  0.62095523  1
  O  O237  1  0.50138081  0.74513414  0.13431233  1
  O  O238  1  0.49430987  0.74373232  0.62511835  1
  O  O239  1  0.99357048  0.24148089  0.13149593  1
  O  O240  1  0.99487875  0.24686753  0.62865923  1
  O  O241  1  0.99962400  0.73906387  0.13217847  1
  O  O242  1  0.99992785  0.75698601  0.63889878  1
  O  O243  1  0.00190671  0.25586785  0.37220409  1
  O  O244  1  0.00191441  0.25535435  0.86887392  1
  O  O245  1  0.00428786  0.75420573  0.36959605  1
  O  O246  1  0.00341788  0.75948475  0.86623098  1
  O  O247  1  0.51037567  0.25512669  0.37915650  1
  O  O248  1  0.49441697  0.26361017  0.86949849  1
  O  O249  1  0.50127493  0.75361095  0.37292448  1
  O  O250  1  0.50940714  0.74264364  0.86451310  1
  O  O251  1  0.24515652  0.12648862  0.48979715  1
  O  O252  1  0.25062473  0.11922531  0.98800990  1
  O  O253  1  0.25137884  0.64027478  0.49078904  1
  O  O254  1  0.24126296  0.63390832  0.98813053  1
  O  O255  1  0.75799015  0.13073934  0.49130710  1
  O  O256  1  0.76187912  0.11675305  0.98011147  1
  O  O257  1  0.75358206  0.63332436  0.49405677  1
  O  O258  1  0.75598343  0.63544218  0.99132134  1
  O  O259  1  0.24681162  0.36951538  0.00158626  1
  O  O260  1  0.25891525  0.37623535  0.50525610  1
  O  O261  1  0.25094872  0.86800074  0.00383962  1
  O  O262  1  0.24462584  0.86395414  0.50926451  1
  O  O263  1  0.75675494  0.37219187  0.01070121  1
  O  O264  1  0.74790372  0.36472034  0.51523500  1
  O  O265  1  0.75601846  0.87335065  0.00530357  1
  O  O266  1  0.75647949  0.86939268  0.50341859  1
  O  O267  1  0.11907458  0.48673687  0.25657675  1
  O  O268  1  0.11564650  0.48819756  0.73888855  1
  O  O269  1  0.12478885  0.98199929  0.25681645  1
  O  O270  1  0.13446791  0.99819912  0.74232960  1
  O  O271  1  0.63736991  0.50262480  0.24856997  1
  O  O272  1  0.62733511  0.49282976  0.73831427  1
  O  O273  1  0.63367133  0.99338239  0.24441984  1
  O  O274  1  0.63837936  0.99079661  0.74054640  1
  O  O275  1  0.37132223  0.00831167  0.26265148  1
  O  O276  1  0.35863582  0.01408564  0.73868508  1
  O  O277  1  0.37461288  0.50424911  0.25415615  1
  O  O278  1  0.37864776  0.50567426  0.76441729  1
  O  O279  1  0.86101055  0.00511643  0.24544040  1
  O  O280  1  0.87027740  0.00808154  0.74103563  1
  O  O281  1  0.86721023  0.50300040  0.26441027  1
  O  O282  1  0.87314529  0.50687096  0.75955846  1
  O  O283  1  0.11639817  0.36968395  0.37148292  1
  O  O284  1  0.11829736  0.37543079  0.86672623  1
  O  O285  1  0.11703742  0.86424392  0.36865146  1
  O  O286  1  0.11535364  0.87134703  0.86778226  1
  O  O287  1  0.61839738  0.36149982  0.38463810  1
  O  O288  1  0.61681308  0.37644046  0.86063461  1
  O  O289  1  0.61530484  0.86893718  0.37032002  1
  O  O290  1  0.63261260  0.86700337  0.86289085  1
  O  O291  1  0.37524254  0.11379494  0.14204888  1
  O  O292  1  0.37802885  0.13800830  0.62986432  1
  O  O293  1  0.39117642  0.63197332  0.12258916  1
  O  O294  1  0.38139754  0.63261104  0.62560300  1
  O  O295  1  0.87926095  0.12973131  0.13635741  1
  O  O296  1  0.88355235  0.13178117  0.63376982  1
  O  O297  1  0.88587837  0.62289456  0.12503529  1
  O  O298  1  0.86983299  0.62437934  0.64025592  1
  O  O299  1  0.25161262  0.25194538  0.11652210  1
  O  O300  1  0.25710962  0.26500119  0.62134891  1
  O  O301  1  0.24685205  0.75343703  0.11100616  1
  O  O302  1  0.25529527  0.75680687  0.62002862  1
  O  O303  1  0.75907261  0.25650928  0.13072140  1
  O  O304  1  0.75738796  0.25265279  0.61991607  1
  O  O305  1  0.74189411  0.75981497  0.11567825  1
  O  O306  1  0.75107875  0.75459672  0.61869971  1
  O  O307  1  0.24414027  0.24113283  0.37928352  1
  O  O308  1  0.24863544  0.24099466  0.88570311  1
  O  O309  1  0.24096169  0.74733764  0.38267976  1
  O  O310  1  0.24296184  0.74612658  0.88226931  1
  O  O311  1  0.74515885  0.24389654  0.38302580  1
  O  O312  1  0.76102363  0.23412758  0.87372949  1
  O  O313  1  0.74540066  0.74150210  0.38230196  1
  O  O314  1  0.74349973  0.74205510  0.88169021  1
  O  O315  1  -0.00296333  0.11149972  0.00765405  1
  O  O316  1  0.00191597  0.11773147  0.50280504  1
  O  O317  1  0.00381426  0.63329824  0.01023415  1
  O  O318  1  -0.00556101  0.61445107  0.49786229  1
  O  O319  1  0.49057609  0.11513895  -0.01175728  1
  O  O320  1  0.49427332  0.11941376  0.51630117  1
  O  O321  1  0.50348732  0.63755340  0.00848436  1
  O  O322  1  0.49579553  0.61706063  0.50952192  1
  O  O323  1  0.49365301  0.38216742  0.49549577  1
  O  O324  1  0.50732206  0.37340164  0.98211241  1
  O  O325  1  0.50136766  0.87394840  0.48965650  1
  O  O326  1  0.48475093  0.86771772  1.00089418  1
  O  O327  1  1.00117190  0.38053551  0.48922972  1
  O  O328  1  0.99988245  0.36788521  0.98844147  1
  O  O329  1  0.99266821  0.88128262  0.49621824  1
  O  O330  1  0.99410326  0.88163751  0.99471298  1
  O  O331  1  0.50333898  0.49280005  0.38393952  1
  O  O332  1  0.49356673  0.49128970  0.87112715  1
  O  O333  1  0.49345246  0.98963530  0.37857486  1
  O  O334  1  0.50009586  0.99191882  0.83601976  1
  O  O335  1  0.99186262  0.49603651  0.38457177  1
  O  O336  1  0.99166704  0.48976091  0.87034278  1
  O  O337  1  1.00255364  0.99378764  0.38660799  1
  O  O338  1  1.00337952  0.99383864  0.88705884  1
  O  O339  1  -0.00354454  0.00609672  0.11266635  1
  O  O340  1  0.00728638  0.00465174  0.61443795  1
  O  O341  1  0.00250696  0.51584292  0.13033921  1
  O  O342  1  0.00318285  0.49582776  0.61136058  1
  O  O343  1  0.51300117  -0.00471041  0.13117123  1
  O  O344  1  0.50890434  0.00718630  0.63181683  1
  O  O345  1  0.50814405  0.51949894  0.12074496  1
  O  O346  1  0.50597852  0.50731417  0.62051740  1
  O  O347  1  0.23239966  0.37387675  0.26121042  1
  O  O348  1  0.23984100  0.37363805  0.74231201  1
  O  O349  1  0.24011243  0.87121079  0.23947678  1
  O  O350  1  0.24611771  0.88512470  0.74475409  1
  O  O351  1  0.75471038  0.38331515  0.24188578  1
  O  O352  1  0.74021910  0.37421264  0.74126860  1
  O  O353  1  0.74570713  0.87907764  0.24419544  1
  O  O354  1  0.74898103  0.87928788  0.74649898  1
  O  O355  1  0.25684488  0.12281239  0.26126691  1
  O  O356  1  0.25746997  0.12281920  0.75429624  1
  O  O357  1  0.24782805  0.63665093  0.26640660  1
  O  O358  1  0.24828986  0.63261852  0.76385016  1
  O  O359  1  0.75438623  0.11595349  0.25539774  1
  O  O360  1  0.76163988  0.11713963  0.75573148  1
  O  O361  1  0.75163892  0.61848875  0.25887860  1
  O  O362  1  0.75824085  0.62347231  0.76086095  1
  O  O363  1  0.36844783  0.11966162  0.37088680  1
  O  O364  1  0.36439864  0.12490384  0.86667111  1
  O  O365  1  0.35846086  0.62431738  0.37453730  1
  O  O366  1  0.36698481  0.62043828  0.86879122  1
  O  O367  1  0.86335128  0.12926697  0.36147716  1
  O  O368  1  0.87271759  0.12518008  0.86076373  1
  O  O369  1  0.86120906  0.61636058  0.37359948  1
  O  O370  1  0.86808024  0.61932169  0.86810481  1
  O  O371  1  0.11459228  0.37927795  0.14499142  1
  O  O372  1  0.13264086  0.38267761  0.63017009  1
  O  O373  1  0.13184093  0.86652446  0.13223737  1
  O  O374  1  0.13424848  0.88148930  0.63136637  1
  O  O375  1  0.63563377  0.37483255  0.12450275  1
  O  O376  1  0.63032371  0.37957473  0.63407456  1
  O  O377  1  0.63300140  0.88474012  0.12884934  1
  O  O378  1  0.63386167  0.87938080  0.63660984  1
  O  O379  1  0.11775202  0.25847524  0.25830458  1
  O  O380  1  0.11681813  0.26227598  0.74837168  1
  O  O381  1  0.11194366  0.75838983  0.25644229  1
  O  O382  1  0.11794030  0.75692320  0.75448545  1
  O  O383  1  0.62471757  0.24291733  0.26347719  1
  O  O384  1  0.62741544  0.26116708  0.74522337  1
  O  O385  1  0.61834932  0.75725719  0.26026119  1
  O  O386  1  0.62151709  0.75559021  0.75814066  1
  O  O387  1  0.37674452  0.23301339  0.25204884  1
  O  O388  1  0.36700813  0.24605821  0.73898622  1
  O  O389  1  0.38240927  0.74642069  0.24659243  1
  O  O390  1  0.38289270  0.74883064  0.73823120  1
  O  O391  1  0.88050069  0.24146245  0.24318894  1
  O  O392  1  0.88369906  0.24234663  0.73967249  1
  O  O393  1  0.88686180  0.74825836  0.25647899  1
  O  O394  1  0.88252605  0.74223894  0.74895456  1
  O  O395  1  0.38595508  0.49108622  0.49801832  1
  O  O396  1  0.38788333  0.50947703  0.97898469  1
  O  O397  1  0.37546271  1.00201024  0.48740319  1
  O  O398  1  0.37110257  0.98276012  0.99821226  1
  O  O399  1  0.88465625  0.50050096  0.49112225  1
  O  O400  1  0.87479116  0.50013972  0.98731642  1
  O  O401  1  0.88384329  0.99134032  0.50550994  1
  O  O402  1  0.88398027  0.98738858  1.00170311  1
  O  O403  1  0.11167791  -0.00620467  0.00073212  1
  O  O404  1  0.11790948  0.00547011  0.50280990  1
  O  O405  1  0.12188854  0.51335701  -0.00417082  1
  O  O406  1  0.10773427  0.49857636  0.50719496  1
  O  O407  1  0.62751973  0.00450398  0.01177006  1
  O  O408  1  0.62284456  -0.00729771  0.51730498  1
  O  O409  1  0.62231298  0.50503450  -0.00039892  1
  O  O410  1  0.61328499  0.49271722  0.51305423  1
  O  O411  1  0.37534256  0.38358975  0.14125691  1
  O  O412  1  0.37004481  0.37445403  0.62217256  1
  O  O413  1  0.36345964  0.87117697  0.11745912  1
  O  O414  1  0.36368236  0.86926281  0.63068547  1
  O  O415  1  0.87364277  0.36543559  0.12673886  1
  O  O416  1  0.86590324  0.36549232  0.63432981  1
  O  O417  1  0.86090640  0.87730199  0.11790633  1
  O  O418  1  0.86952685  0.87044329  0.61317176  1
  O  O419  1  0.13152670  0.12982363  0.37767761  1
  O  O420  1  0.14193876  0.13077179  0.86743789  1
  O  O421  1  0.13087463  0.63763386  0.37101504  1
  O  O422  1  0.12874976  0.62930220  0.87967389  1
  O  O423  1  0.63759286  0.12966246  0.37576417  1
  O  O424  1  0.64609437  0.12248779  0.86783829  1
  O  O425  1  0.63658511  0.62997132  0.37558137  1
  O  O426  1  0.63590671  0.63352672  0.86658120  1
