# generated using pymatgen
data_V85Zn86O256
_symmetry_space_group_name_H-M   'P 1'
_cell_length_a   16.95328502
_cell_length_b   16.95498081
_cell_length_c   16.95471967
_cell_angle_alpha   90.01012515
_cell_angle_beta   90.00360667
_cell_angle_gamma   90.00261240
_symmetry_Int_Tables_number   1
_chemical_formula_structural   V85Zn86O256
_chemical_formula_sum   'V85 Zn86 O256'
_cell_volume   4873.50898941
_cell_formula_units_Z   1
loop_
 _symmetry_equiv_pos_site_id
 _symmetry_equiv_pos_as_xyz
  1  'x, y, z'
loop_
 _atom_site_type_symbol
 _atom_site_label
 _atom_site_symmetry_multiplicity
 _atom_site_fract_x
 _atom_site_fract_y
 _atom_site_fract_z
 _atom_site_occupancy
  V  V0  1  0.24867015  0.37482861  0.62555518  1
  V  V1  1  0.11748272  0.25651683  0.37644708  1
  V  V2  1  0.12545765  0.12479365  0.49995790  1
  V  V3  1  0.37556384  -0.00180726  0.37712832  1
  V  V4  1  0.37016613  0.74775317  0.61667609  1
  V  V5  1  0.49737825  0.00657850  0.01463114  1
  V  V6  1  0.69875909  0.68107757  0.32555154  1
  V  V7  1  0.87010246  0.24995540  0.62304012  1
  V  V8  1  0.24467612  0.12567152  0.88227646  1
  V  V9  1  0.37408853  0.24805991  0.62501152  1
  V  V10  1  0.24772900  0.25883485  0.00461915  1
  V  V11  1  0.11396351  0.87498218  0.75279956  1
  V  V12  1  -0.00059742  0.37504674  0.87320109  1
  V  V13  1  0.75330243  0.12777923  0.87697734  1
  V  V14  1  0.12440848  0.00813650  0.11837031  1
  V  V15  1  0.62415140  0.00779868  0.13804459  1
  V  V16  1  0.62510621  0.62414082  0.49709365  1
  V  V17  1  0.12360319  0.50063318  0.62453943  1
  V  V18  1  0.11464419  0.87911248  0.25527719  1
  V  V19  1  0.75240575  0.74348196  0.50833359  1
  V  V20  1  0.39047274  0.49550740  0.87698463  1
  V  V21  1  0.12202758  -0.00053782  0.62544082  1
  V  V22  1  0.50142761  0.25643281  0.75587255  1
  V  V23  1  0.87529789  0.24953665  0.12711012  1
  V  V24  1  0.11643224  0.75109121  0.87395675  1
  V  V25  1  0.87483846  0.37282304  0.49192943  1
  V  V26  1  0.87403357  0.50012881  0.87078701  1
  V  V27  1  0.50402139  0.88000152  0.86971996  1
  V  V28  1  0.25215172  0.00265614  0.25053316  1
  V  V29  1  0.25091450  0.62025498  0.87966182  1
  V  V30  1  0.12332737  0.37648858  0.75101324  1
  V  V31  1  0.74410283  0.62275868  0.88426597  1
  V  V32  1  0.13243174  0.49132092  0.12454240  1
  V  V33  1  0.37542627  0.24745241  0.12638651  1
  V  V34  1  0.49874151  0.61834988  0.61862459  1
  V  V35  1  0.12626502  0.37556403  0.25073690  1
  V  V36  1  0.50735095  0.86338040  0.36954112  1
  V  V37  1  -0.00171077  0.12436687  0.62753018  1
  V  V38  1  0.87693342  -0.01372434  0.87250454  1
  V  V39  1  0.75613451  0.49757250  0.25577127  1
  V  V40  1  0.62208538  0.12777200  0.00458433  1
  V  V41  1  0.12802513  0.62527325  0.00820183  1
  V  V42  1  0.24684690  0.62619751  0.37628308  1
  V  V43  1  0.87452756  0.86933746  0.49461352  1
  V  V44  1  0.86847950  0.63551440  0.74715065  1
  V  V45  1  0.37673057  0.49945679  0.38249800  1
  V  V46  1  -0.00426204  -0.01381887  -0.00207239  1
  V  V47  1  0.38872745  0.37692973  0.00328773  1
  V  V48  1  0.62140091  0.74638157  0.88465994  1
  V  V49  1  0.12232126  0.24728660  0.87926893  1
  V  V50  1  0.25237069  0.12872985  0.37388912  1
  V  V51  1  0.24676533  -0.00011910  0.75053578  1
  V  V52  1  0.50115088  0.37743336  0.38693589  1
  V  V53  1  0.37251718  0.87407146  0.00008980  1
  V  V54  1  0.74795906  0.37274032  0.62094977  1
  V  V55  1  0.74700670  0.50382485  0.74483407  1
  V  V56  1  0.24910061  0.75394769  -0.00317800  1
  V  V57  1  -0.00790103  -0.00226400  0.48614391  1
  V  V58  1  0.61082424  0.49984034  0.11275233  1
  V  V59  1  0.12224722  0.75692228  0.37428891  1
  V  V60  1  0.75770226  0.12731755  0.37954287  1
  V  V61  1  0.37296138  0.12492659  0.74955289  1
  V  V62  1  0.50839712  -0.00355432  0.50218893  1
  V  V63  1  0.12646994  0.63548578  0.50267573  1
  V  V64  1  0.37352009  0.62593948  0.75220819  1
  V  V65  1  0.50023456  0.75490129  0.74719578  1
  V  V66  1  0.25116915  0.25093966  0.49999833  1
  V  V67  1  -0.00738736  0.62536451  0.13432690  1
  V  V68  1  -0.00614137  0.63088091  0.62647508  1
  V  V69  1  0.50054098  0.24385830  0.24945524  1
  V  V70  1  0.24947634  0.87521897  0.12595186  1
  V  V71  1  0.50847111  0.11984666  0.62587709  1
  V  V72  1  0.00146539  0.49617071  0.49413581  1
  V  V73  1  0.62751929  0.24790279  0.38855600  1
  V  V74  1  0.87738956  0.51308731  0.37228452  1
  V  V75  1  0.26438841  0.50549799  0.23732699  1
  V  V76  1  0.00226161  0.50021035  -0.00046208  1
  V  V77  1  0.75163123  0.37705603  0.12434301  1
  V  V78  1  0.62513766  0.37351996  0.25344693  1
  V  V79  1  0.87535276  0.37429213  -0.00148910  1
  V  V80  1  0.73094648  -0.00213117  0.74533017  1
  V  V81  1  0.37348220  0.00061268  0.87556563  1
  V  V82  1  0.00120328  0.12801540  0.11623323  1
  V  V83  1  0.24702728  0.86989504  0.62013671  1
  V  V84  1  0.75963630  -0.00484401  0.25575880  1
  Zn  Zn85  1  0.74847761  0.24997449  -0.00031855  1
  Zn  Zn86  1  -0.00449747  0.74700927  0.25821072  1
  Zn  Zn87  1  -0.00938711  0.75662140  0.74899550  1
  Zn  Zn88  1  0.74290995  0.88195275  0.62200909  1
  Zn  Zn89  1  0.24972073  0.49953794  0.75248911  1
  Zn  Zn90  1  0.76882269  0.76561199  -0.00762950  1
  Zn  Zn91  1  0.61933799  0.25608044  0.88099021  1
  Zn  Zn92  1  0.00044075  0.25299502  0.25196627  1
  Zn  Zn93  1  0.52628560  0.66411018  0.12687926  1
  Zn  Zn94  1  -0.00295431  0.24955733  0.75055205  1
  Zn  Zn95  1  0.59607971  0.83460850  0.22346648  1
  Zn  Zn96  1  0.40147461  0.64500372  0.25587672  1
  Zn  Zn97  1  0.87358859  0.12400090  0.75109140  1
  Zn  Zn98  1  0.87958012  0.12451067  0.25281383  1
  Zn  Zn99  1  0.37200737  0.87197027  0.49833646  1
  Zn  Zn100  1  0.38033771  0.12096401  0.24296308  1
  Zn  Zn101  1  0.62037774  0.49795179  0.61896850  1
  Zn  Zn102  1  0.63324358  0.11863774  0.50522934  1
  Zn  Zn103  1  0.37968605  0.37868736  0.50536622  1
  Zn  Zn104  1  0.87528135  0.76746988  0.12368046  1
  Zn  Zn105  1  0.62153997  0.38035533  0.75237169  1
  Zn  Zn106  1  0.75340818  0.88254261  0.10917138  1
  Zn  Zn107  1  0.18859373  0.18940325  0.18711804  1
  Zn  Zn108  1  0.18454002  0.18857894  0.69156165  1
  Zn  Zn109  1  0.26445991  0.68474569  0.18269667  1
  Zn  Zn110  1  0.18588954  0.68788231  0.69069587  1
  Zn  Zn111  1  0.69027319  0.18643940  0.19209611  1
  Zn  Zn112  1  0.68895899  0.18626725  0.68965369  1
  Zn  Zn113  1  0.70639775  0.67694511  0.16099273  1
  Zn  Zn114  1  0.66387893  0.72660648  0.66706472  1
  Zn  Zn115  1  0.31099946  0.31977242  0.31093336  1
  Zn  Zn116  1  0.31312342  0.31431858  0.81437071  1
  Zn  Zn117  1  0.30280196  0.81470531  0.31890802  1
  Zn  Zn118  1  0.30912297  0.81277650  0.80957356  1
  Zn  Zn119  1  0.81228181  0.30973130  0.31400101  1
  Zn  Zn120  1  0.80898114  0.31259814  0.80740488  1
  Zn  Zn121  1  0.82711621  0.82094877  0.30862642  1
  Zn  Zn122  1  0.80251330  0.81475642  0.81211386  1
  Zn  Zn123  1  0.18961067  0.43923123  0.43624085  1
  Zn  Zn124  1  0.19180062  0.43656962  0.93884049  1
  Zn  Zn125  1  0.18543466  0.94047575  0.43949261  1
  Zn  Zn126  1  0.17997995  0.93950072  0.93704098  1
  Zn  Zn127  1  0.68927245  0.44133675  0.43946542  1
  Zn  Zn128  1  0.68501529  0.43324433  0.93328639  1
  Zn  Zn129  1  0.68953964  0.93138543  0.43034880  1
  Zn  Zn130  1  0.68210335  0.94628931  0.93115716  1
  Zn  Zn131  1  0.31196607  0.06652066  0.06263965  1
  Zn  Zn132  1  0.31439314  0.05984828  0.56214359  1
  Zn  Zn133  1  0.39046594  0.56731391  0.07195596  1
  Zn  Zn134  1  0.30912583  0.56271225  0.56149491  1
  Zn  Zn135  1  0.81384920  0.05800968  0.06255146  1
  Zn  Zn136  1  0.81323014  0.05904150  0.56402066  1
  Zn  Zn137  1  0.81466479  0.55947260  0.06193389  1
  Zn  Zn138  1  0.81046669  0.56367394  0.55963043  1
  Zn  Zn139  1  0.43810324  0.42654794  0.19158118  1
  Zn  Zn140  1  0.43346969  0.43881835  0.68932463  1
  Zn  Zn141  1  0.42735303  0.82024856  0.18761582  1
  Zn  Zn142  1  0.43498146  0.93770363  0.68523330  1
  Zn  Zn143  1  0.94362827  0.43661408  0.19036549  1
  Zn  Zn144  1  0.93521204  0.44005427  0.68414070  1
  Zn  Zn145  1  0.93376728  0.93980782  0.18592222  1
  Zn  Zn146  1  0.92891055  0.93804029  0.68135726  1
  Zn  Zn147  1  0.06467271  0.07011148  0.30722335  1
  Zn  Zn148  1  0.05869210  0.06208945  0.81542001  1
  Zn  Zn149  1  0.06832359  0.55934317  0.31371760  1
  Zn  Zn150  1  0.06123677  0.56525840  0.81163976  1
  Zn  Zn151  1  0.56174224  0.06360648  0.32007878  1
  Zn  Zn152  1  0.55995401  0.07036173  0.81930845  1
  Zn  Zn153  1  0.55896957  0.55745567  0.30383821  1
  Zn  Zn154  1  0.56520116  0.56866368  0.80607631  1
  Zn  Zn155  1  0.43991253  0.18553731  0.43903537  1
  Zn  Zn156  1  0.43390876  0.18686524  0.93953447  1
  Zn  Zn157  1  0.43554886  0.68442707  0.43794231  1
  Zn  Zn158  1  0.44100419  0.68965757  0.94284344  1
  Zn  Zn159  1  0.93707793  0.18724472  0.44292726  1
  Zn  Zn160  1  0.93570593  0.18411493  0.94029896  1
  Zn  Zn161  1  0.93947791  0.68832674  0.43922323  1
  Zn  Zn162  1  0.93782971  0.68571334  0.93807201  1
  Zn  Zn163  1  0.06281461  0.31296841  0.06222124  1
  Zn  Zn164  1  0.05959538  0.31219590  0.56215301  1
  Zn  Zn165  1  0.06492399  0.81107945  0.06765568  1
  Zn  Zn166  1  0.05647882  0.81475744  0.56286512  1
  Zn  Zn167  1  0.56321368  0.31108144  0.06646389  1
  Zn  Zn168  1  0.56326511  0.30952824  0.56884850  1
  Zn  Zn169  1  0.57515558  0.83148101  0.05226757  1
  Zn  Zn170  1  0.56465767  0.81246177  0.55295521  1
  O  O171  1  0.11974290  0.11493547  0.12826192  1
  O  O172  1  0.11842563  0.12174105  0.61974266  1
  O  O173  1  0.12269147  0.61477040  0.11169002  1
  O  O174  1  0.12043157  0.61956890  0.62041416  1
  O  O175  1  0.63015370  0.12274927  0.11350764  1
  O  O176  1  0.61201490  0.12923861  0.62318731  1
  O  O177  1  0.62961622  0.60256603  0.12260016  1
  O  O178  1  0.61331808  0.62927693  0.61625404  1
  O  O179  1  0.38429621  0.37870493  0.38284498  1
  O  O180  1  0.37284266  0.38813996  0.88202225  1
  O  O181  1  0.37262985  0.88732021  0.37799489  1
  O  O182  1  0.37592400  0.88337837  0.88081337  1
  O  O183  1  0.87123785  0.37509742  0.38918859  1
  O  O184  1  0.87917235  0.37956890  0.87723898  1
  O  O185  1  0.86946694  0.88618921  0.39471647  1
  O  O186  1  0.87260472  0.88760147  0.87219209  1
  O  O187  1  0.25357644  0.00762750  0.37018786  1
  O  O188  1  0.25067065  0.00876612  0.87212567  1
  O  O189  1  0.25835777  0.50647044  0.36904151  1
  O  O190  1  0.25530094  0.50985296  0.87510719  1
  O  O191  1  0.73982500  0.01402042  0.36274655  1
  O  O192  1  0.75861307  0.00918325  0.86637491  1
  O  O193  1  0.75997262  0.49258057  0.36307315  1
  O  O194  1  0.75399512  0.50504600  0.86596299  1
  O  O195  1  0.23491880  0.49186143  0.12878935  1
  O  O196  1  0.24232500  0.49287642  0.62767809  1
  O  O197  1  0.24271282  0.99933028  0.12987366  1
  O  O198  1  0.24199694  0.99552138  0.63178456  1
  O  O199  1  0.75050301  0.48961592  0.13522909  1
  O  O200  1  0.74999784  0.49359273  0.63140614  1
  O  O201  1  0.74279087  1.00806560  0.14116092  1
  O  O202  1  0.74537768  1.00661684  0.64121701  1
  O  O203  1  0.01827775  0.37220261  0.24946597  1
  O  O204  1  0.00572120  0.37492635  0.75522711  1
  O  O205  1  0.01370080  0.88813355  0.24972470  1
  O  O206  1  0.00994006  0.87503761  0.73979945  1
  O  O207  1  0.50897890  0.36533614  0.26280345  1
  O  O208  1  0.49845648  0.35927339  0.74268249  1
  O  O209  1  0.49531540  0.88004623  0.26610288  1
  O  O210  1  0.48725994  0.86766637  0.75898093  1
  O  O211  1  0.49742012  0.13982794  0.25944611  1
  O  O212  1  0.49196624  0.12991140  0.74342731  1
  O  O213  1  0.50681242  0.62526316  0.23416193  1
  O  O214  1  0.49037181  0.63292087  0.74151589  1
  O  O215  1  0.99819899  0.12943644  0.23544327  1
  O  O216  1  0.99999865  0.12632768  0.73801722  1
  O  O217  1  1.01019993  0.62142322  0.23557857  1
  O  O218  1  0.98888204  0.62463558  0.74257010  1
  O  O219  1  0.36954049  0.25862357  0.00443936  1
  O  O220  1  0.36939443  0.24982554  0.50914674  1
  O  O221  1  0.36615815  0.76862522  -0.00701419  1
  O  O222  1  0.37267631  0.74922924  0.51338245  1
  O  O223  1  0.87290357  0.25642241  0.01113233  1
  O  O224  1  0.88101651  0.25917520  0.51276965  1
  O  O225  1  0.87821599  0.73983938  0.01021189  1
  O  O226  1  0.87297576  0.76236314  0.49597744  1
  O  O227  1  0.13028298  0.24593350  0.49425854  1
  O  O228  1  0.13265733  0.25637423  0.98802857  1
  O  O229  1  0.12074769  0.73981437  0.49918299  1
  O  O230  1  0.12706707  0.74275312  0.99210888  1
  O  O231  1  0.62256651  0.24690621  0.49079135  1
  O  O232  1  0.62757033  0.24308625  1.00071071  1
  O  O233  1  0.63855261  0.73614564  0.49405398  1
  O  O234  1  0.61419029  0.74698989  0.98543438  1
  O  O235  1  0.49085736  0.25713239  0.13808790  1
  O  O236  1  0.49180703  0.24043349  0.63278411  1
  O  O237  1  0.52247556  0.77864040  0.14044656  1
  O  O238  1  0.48774278  0.74293789  0.63160617  1
  O  O239  1  0.99316775  0.24441672  0.12348865  1
  O  O240  1  0.99460026  0.23979055  0.62557384  1
  O  O241  1  1.00747040  0.73075663  0.12503276  1
  O  O242  1  1.00289535  0.73506536  0.62760138  1
  O  O243  1  0.01443551  0.24197242  0.37522473  1
  O  O244  1  0.00651533  0.25443810  0.87557885  1
  O  O245  1  0.01626113  0.74469097  0.37714038  1
  O  O246  1  0.01350829  0.74082121  0.86927865  1
  O  O247  1  0.50763020  0.25660220  0.37182997  1
  O  O248  1  0.49582173  0.24295663  0.85829401  1
  O  O249  1  0.48696410  0.76528475  0.37529262  1
  O  O250  1  0.49817951  0.75878236  0.86859172  1
  O  O251  1  0.24416987  0.12976858  0.49565880  1
  O  O252  1  0.25490273  0.13624054  0.98706424  1
  O  O253  1  0.23808900  0.61859643  0.48934752  1
  O  O254  1  0.24362193  0.63434187  0.99058899  1
  O  O255  1  0.74980247  0.11595794  0.48496065  1
  O  O256  1  0.74343238  0.12384964  0.99264830  1
  O  O257  1  0.74415805  0.63104071  0.49567025  1
  O  O258  1  0.75397381  0.61923149  0.98543172  1
  O  O259  1  0.26135702  0.36177861  -0.00761815  1
  O  O260  1  0.24965496  0.36892796  0.51048192  1
  O  O261  1  0.25316823  0.87649331  0.00471949  1
  O  O262  1  0.24973981  0.88205477  0.51649760  1
  O  O263  1  0.75806546  0.37474685  0.00950377  1
  O  O264  1  0.75883058  0.38143721  0.51277787  1
  O  O265  1  0.73371210  0.87366581  -0.00566027  1
  O  O266  1  0.75505000  0.86467513  0.49820878  1
  O  O267  1  0.13214049  0.49333143  0.24217774  1
  O  O268  1  0.12571447  0.49301047  0.74437979  1
  O  O269  1  0.13570470  0.99955764  0.24424756  1
  O  O270  1  0.12701169  0.99368181  0.74666592  1
  O  O271  1  0.63416619  0.48502417  0.24536457  1
  O  O272  1  0.63625607  0.50247243  0.74290178  1
  O  O273  1  0.62877079  1.01350467  0.24110367  1
  O  O274  1  0.63279614  1.00366644  0.75798225  1
  O  O275  1  0.35895581  0.00323422  0.25850245  1
  O  O276  1  0.36563136  0.00522772  0.75536928  1
  O  O277  1  0.36518565  0.47963151  0.26471700  1
  O  O278  1  0.37148777  0.50494006  0.76286632  1
  O  O279  1  0.86272218  0.00575357  0.25285632  1
  O  O280  1  0.87651030  0.00359064  0.76382675  1
  O  O281  1  0.86895724  0.49044095  0.26002581  1
  O  O282  1  0.86590670  0.50506970  0.75435226  1
  O  O283  1  0.13018330  0.36514475  0.37020012  1
  O  O284  1  0.12033633  0.37007895  0.86963792  1
  O  O285  1  0.13324133  0.86911529  0.36814651  1
  O  O286  1  0.12927867  0.86491198  0.86436367  1
  O  O287  1  0.62193470  0.36946146  0.37146976  1
  O  O288  1  0.63307781  0.36637803  0.86386143  1
  O  O289  1  0.60856888  0.87153747  0.37147641  1
  O  O290  1  0.60734677  0.87026020  0.87408957  1
  O  O291  1  0.37353686  0.14087361  0.12511658  1
  O  O292  1  0.37942164  0.12986515  0.63168436  1
  O  O293  1  0.33634893  0.59397128  0.16599896  1
  O  O294  1  0.37643768  0.63004908  0.62947316  1
  O  O295  1  0.88081968  0.13455703  0.12505220  1
  O  O296  1  0.88147898  0.13230064  0.62509444  1
  O  O297  1  0.89301971  0.61418651  0.12622612  1
  O  O298  1  0.88355491  0.61527050  0.63517607  1
  O  O299  1  0.25618483  0.24698375  0.11380626  1
  O  O300  1  0.25393283  0.25442596  0.62189108  1
  O  O301  1  0.23500547  0.76493420  0.11044955  1
  O  O302  1  0.25711779  0.75832647  0.63333870  1
  O  O303  1  0.75678431  0.26173082  0.12672172  1
  O  O304  1  0.75761674  0.25793796  0.62902702  1
  O  O305  1  0.75309609  0.76016991  0.11135991  1
  O  O306  1  0.76391611  0.73950939  0.60888649  1
  O  O307  1  0.24693955  0.24604008  0.38152669  1
  O  O308  1  0.24280498  0.24431104  0.87969613  1
  O  O309  1  0.23604937  0.73906596  0.37544519  1
  O  O310  1  0.24040381  0.74335746  0.87844017  1
  O  O311  1  0.74069534  0.23762247  0.37105087  1
  O  O312  1  0.75301331  0.23686652  0.87506535  1
  O  O313  1  0.75936482  0.74342103  0.37911242  1
  O  O314  1  0.73813832  0.74136349  0.87465770  1
  O  O315  1  -0.00106602  0.11813196  0.01189305  1
  O  O316  1  0.00477600  0.11660987  0.50875093  1
  O  O317  1  0.01106739  0.61516342  0.00431124  1
  O  O318  1  0.00644456  0.61706289  0.50843402  1
  O  O319  1  0.50740510  0.11748712  -0.00622981  1
  O  O320  1  0.50156283  0.11532436  0.50916697  1
  O  O321  1  0.47138858  0.63204897  0.03196954  1
  O  O322  1  0.50844324  0.63126033  0.50769433  1
  O  O323  1  0.50206955  0.37130156  0.49089759  1
  O  O324  1  0.48676372  0.36562735  0.99624816  1
  O  O325  1  0.49461947  0.87995579  0.49109289  1
  O  O326  1  0.48919526  0.88750766  0.99086668  1
  O  O327  1  0.99050389  0.38711174  0.50769809  1
  O  O328  1  0.99550868  0.38132960  0.99310598  1
  O  O329  1  0.99014048  0.88806846  0.50359945  1
  O  O330  1  1.00504198  0.88788551  1.00363133  1
  O  O331  1  0.49093810  0.48888739  0.36920368  1
  O  O332  1  0.48856601  0.50643559  0.87055725  1
  O  O333  1  0.49094888  0.99447287  0.38265289  1
  O  O334  1  0.49186680  0.99548883  0.87939460  1
  O  O335  1  0.99572751  0.50242983  0.38613535  1
  O  O336  1  0.99505960  0.49525936  0.87960055  1
  O  O337  1  1.00783551  1.00940643  0.38912304  1
  O  O338  1  0.99024746  1.00249612  0.88663675  1
  O  O339  1  0.00523036  0.00720126  0.11461980  1
  O  O340  1  0.00413489  0.00890587  0.61884861  1
  O  O341  1  0.00994257  0.50687871  0.11941545  1
  O  O342  1  0.00601329  0.50853718  0.61757745  1
  O  O343  1  0.50809112  0.00185745  0.11477872  1
  O  O344  1  0.49295618  0.00784741  0.61611424  1
  O  O345  1  0.50993688  0.48809860  0.12601785  1
  O  O346  1  0.49815966  0.51426751  0.63030053  1
  O  O347  1  0.23861654  0.38990264  0.25346438  1
  O  O348  1  0.24215304  0.37512531  0.74276274  1
  O  O349  1  0.24081645  0.88544948  0.24158918  1
  O  O350  1  0.23941001  0.88168813  0.74152031  1
  O  O351  1  0.74452114  0.37874184  0.24494656  1
  O  O352  1  0.75275966  0.38535430  0.73653436  1
  O  O353  1  0.74639137  0.89436164  0.25902674  1
  O  O354  1  0.75103723  0.89470504  0.74904613  1
  O  O355  1  0.25224874  0.12024641  0.25738284  1
  O  O356  1  0.25297251  0.12088092  0.75955662  1
  O  O357  1  0.23036434  0.61234341  0.26834132  1
  O  O358  1  0.25469330  0.62473809  0.76260046  1
  O  O359  1  0.75378845  0.12015845  0.26198550  1
  O  O360  1  0.75019499  0.11564478  0.75874179  1
  O  O361  1  0.74740105  0.61662108  0.25769052  1
  O  O362  1  0.75722914  0.61678100  0.75659799  1
  O  O363  1  0.36947627  0.11440989  0.37528345  1
  O  O364  1  0.36519859  0.12003590  0.86921517  1
  O  O365  1  0.36728827  0.61797839  0.36973472  1
  O  O366  1  0.36838253  0.61531363  0.87505375  1
  O  O367  1  0.86169821  0.13501144  0.37341236  1
  O  O368  1  0.86759920  0.11839455  0.87370657  1
  O  O369  1  0.87931480  0.61227834  0.37738927  1
  O  O370  1  0.86929299  0.61650388  0.86509408  1
  O  O371  1  0.12156071  0.38141209  0.13243313  1
  O  O372  1  0.12849306  0.37883969  0.63133755  1
  O  O373  1  0.13120357  0.88907683  0.13104143  1
  O  O374  1  0.12930408  0.87838842  0.63125037  1
  O  O375  1  0.63350330  0.37928233  0.13370657  1
  O  O376  1  0.63300194  0.37725431  0.62895155  1
  O  O377  1  0.63299315  0.89600701  0.13027836  1
  O  O378  1  0.63795594  0.83627263  0.63211832  1
  O  O379  1  0.12871699  0.25770547  0.25956520  1
  O  O380  1  0.12212388  0.25893310  0.76150949  1
  O  O381  1  0.11749892  0.76614704  0.26058592  1
  O  O382  1  0.12192030  0.75822773  0.75717540  1
  O  O383  1  0.61973598  0.25881671  0.25611678  1
  O  O384  1  0.60722572  0.24589105  0.74910289  1
  O  O385  1  0.65077399  0.73905667  0.25746844  1
  O  O386  1  0.60330617  0.74286224  0.76413763  1
  O  O387  1  0.38114789  0.25377435  0.24246273  1
  O  O388  1  0.38137094  0.24570650  0.74492380  1
  O  O389  1  0.35227762  0.74958360  0.23916290  1
  O  O390  1  0.38025576  0.74357234  0.74537703  1
  O  O391  1  0.87886825  0.25271536  0.23772832  1
  O  O392  1  0.87786723  0.24787495  0.73692388  1
  O  O393  1  0.88601617  0.75808000  0.24014619  1
  O  O394  1  0.87249026  0.73948534  0.75571779  1
  O  O395  1  0.37153533  0.49916052  0.48746527  1
  O  O396  1  0.37359185  0.48475179  0.99140423  1
  O  O397  1  0.38297081  0.99766926  0.49223708  1
  O  O398  1  0.37896794  0.99549073  0.99640747  1
  O  O399  1  0.88218471  0.49376711  0.49228081  1
  O  O400  1  0.88192847  0.49331264  0.99159400  1
  O  O401  1  0.88887400  1.00034898  0.49823822  1
  O  O402  1  0.88665765  1.00376949  0.98779344  1
  O  O403  1  0.11147478  0.00113337  0.00625924  1
  O  O404  1  0.11534559  0.00474652  0.50747023  1
  O  O405  1  0.12303860  0.50367840  0.00535538  1
  O  O406  1  0.11760375  0.50602566  0.50447230  1
  O  O407  1  0.61520994  0.01073615  0.00633029  1
  O  O408  1  0.61202181  -0.00278353  0.49477008  1
  O  O409  1  0.62645792  0.48772584  0.01570495  1
  O  O410  1  0.63075177  0.51656560  0.50198140  1
  O  O411  1  0.37616299  0.36700506  0.11047205  1
  O  O412  1  0.36660483  0.36896584  0.62458687  1
  O  O413  1  0.35737598  0.88143492  0.11567338  1
  O  O414  1  0.36463714  0.86528119  0.62548637  1
  O  O415  1  0.87084229  0.37069360  0.12059398  1
  O  O416  1  0.86918306  0.36875142  0.61769979  1
  O  O417  1  0.86754388  0.88474474  0.11956539  1
  O  O418  1  0.86267817  0.88806169  0.60386850  1
  O  O419  1  0.13434608  0.13330188  0.38076075  1
  O  O420  1  0.13179124  0.13586208  0.86933972  1
  O  O421  1  0.12896523  0.62930517  0.38641389  1
  O  O422  1  0.13218347  0.62838751  0.88283612  1
  O  O423  1  0.63263626  0.13429683  0.37935055  1
  O  O424  1  0.63317671  0.12974398  0.88748685  1
  O  O425  1  0.62744701  0.62418657  0.37644766  1
  O  O426  1  0.63282001  0.63176423  0.87317998  1
