# generated using pymatgen
data_V85Zn86O256
_symmetry_space_group_name_H-M   'P 1'
_cell_length_a   16.96343275
_cell_length_b   16.97471740
_cell_length_c   16.96121500
_cell_angle_alpha   89.98489723
_cell_angle_beta   90.08802842
_cell_angle_gamma   89.94164452
_symmetry_Int_Tables_number   1
_chemical_formula_structural   V85Zn86O256
_chemical_formula_sum   'V85 Zn86 O256'
_cell_volume   4883.96452046
_cell_formula_units_Z   1
loop_
 _symmetry_equiv_pos_site_id
 _symmetry_equiv_pos_as_xyz
  1  'x, y, z'
loop_
 _atom_site_type_symbol
 _atom_site_label
 _atom_site_symmetry_multiplicity
 _atom_site_fract_x
 _atom_site_fract_y
 _atom_site_fract_z
 _atom_site_occupancy
  V  V0  1  -0.00270765  0.13340694  0.12620974  1
  V  V1  1  0.62014250  0.86526289  0.24849719  1
  V  V2  1  0.12608398  0.87233418  0.74134921  1
  V  V3  1  0.12873692  0.14928974  0.48511420  1
  V  V4  1  0.74936790  0.25071522  0.50310510  1
  V  V5  1  0.87317222  0.62118846  0.75005056  1
  V  V6  1  0.62637043  0.25224497  0.37630209  1
  V  V7  1  0.61712928  0.00296403  0.62307383  1
  V  V8  1  0.88095536  0.00175091  0.37621821  1
  V  V9  1  0.11940512  0.36729916  0.25181015  1
  V  V10  1  0.37563284  0.00114380  0.87115897  1
  V  V11  1  0.74861045  -0.00191579  0.25093395  1
  V  V12  1  0.12675959  0.74814447  0.87290132  1
  V  V13  1  0.25415663  0.86950384  0.62044093  1
  V  V14  1  0.49951860  0.74390456  0.73930494  1
  V  V15  1  0.62366157  0.75116303  0.87421550  1
  V  V16  1  0.87356558  0.74889602  0.62639074  1
  V  V17  1  0.25575286  0.87313706  0.12612432  1
  V  V18  1  0.37573731  0.24473368  0.12436005  1
  V  V19  1  0.12623362  0.37287051  0.74363444  1
  V  V20  1  0.24790262  0.49882922  0.74085732  1
  V  V21  1  0.87511914  -0.00232065  0.87558402  1
  V  V22  1  0.37885081  0.86966005  0.00290984  1
  V  V23  1  0.25507464  0.75073150  0.00078972  1
  V  V24  1  0.24455769  0.11883467  0.86937626  1
  V  V25  1  0.87495637  0.24856452  0.62404784  1
  V  V26  1  0.25079407  0.24344632  -0.00462190  1
  V  V27  1  0.12741600  0.50290612  0.12510717  1
  V  V28  1  0.64031968  0.37424615  0.24764370  1
  V  V29  1  0.61344790  0.12472068  0.50317633  1
  V  V30  1  0.74761568  -0.00228924  0.74899276  1
  V  V31  1  0.49825739  0.49685319  0.00259968  1
  V  V32  1  0.87338413  0.36987817  0.01490448  1
  V  V33  1  0.49715005  0.89505418  0.38076052  1
  V  V34  1  0.75326459  0.74541036  0.00910803  1
  V  V35  1  0.75815554  0.50265322  0.24610259  1
  V  V36  1  0.00083022  0.86978909  0.87481452  1
  V  V37  1  0.62286154  0.62191286  0.00147248  1
  V  V38  1  0.61573269  0.50380302  0.62650055  1
  V  V39  1  0.11601694  0.50106469  0.61877283  1
  V  V40  1  0.25885893  0.50190581  0.25379467  1
  V  V41  1  0.37438986  0.37186147  -0.00266836  1
  V  V42  1  0.62607850  0.49564613  0.12597447  1
  V  V43  1  0.62868296  0.37960045  0.75151355  1
  V  V44  1  0.50401569  0.24997015  0.25250352  1
  V  V45  1  0.37786150  0.63800588  0.25148634  1
  V  V46  1  0.75307931  0.25243587  0.01438535  1
  V  V47  1  -0.00285017  0.24775103  0.75250010  1
  V  V48  1  0.74712715  0.61932265  0.87062358  1
  V  V49  1  0.12418470  -0.00241249  0.12881996  1
  V  V50  1  0.62673739  0.12296451  0.00356287  1
  V  V51  1  0.11621368  0.62562954  0.48841517  1
  V  V52  1  0.74866693  0.75037845  0.49993570  1
  V  V53  1  0.62633776  0.24864756  0.87734811  1
  V  V54  1  -0.00105321  0.37254153  0.87745404  1
  V  V55  1  0.87949534  0.88108429  0.50173672  1
  V  V56  1  0.49907694  0.37153253  0.87335963  1
  V  V57  1  0.61604588  0.62378217  0.50292321  1
  V  V58  1  0.88279752  0.50260190  0.38062142  1
  V  V59  1  0.50266363  0.23596173  0.73995743  1
  V  V60  1  0.50103500  -0.00160674  0.00065160  1
  V  V61  1  0.25265195  0.62408003  0.87220806  1
  V  V62  1  0.88349603  0.38288128  0.50337047  1
  V  V63  1  0.25211456  0.37418171  0.12196108  1
  V  V64  1  0.74788071  0.38392323  0.62886029  1
  V  V65  1  0.61330453  0.75152052  0.37648746  1
  V  V66  1  0.49623799  0.12213376  0.13009997  1
  V  V67  1  0.87412683  0.12367749  0.74700962  1
  V  V68  1  0.12619218  0.62400101  -0.00153898  1
  V  V69  1  0.00123146  -0.00177279  -0.00007400  1
  V  V70  1  0.87567540  0.86867714  0.00676081  1
  V  V71  1  0.00080873  0.49956284  -0.00054248  1
  V  V72  1  0.00372982  0.86744469  0.37735200  1
  V  V73  1  0.87710763  0.13291199  0.24400516  1
  V  V74  1  0.50177473  0.38914877  0.37675006  1
  V  V75  1  0.37279548  0.49598318  0.87232621  1
  V  V76  1  0.25264621  -0.00077968  0.74029041  1
  V  V77  1  0.31997120  0.17349326  0.30755861  1
  V  V78  1  0.86931002  0.49463584  0.86993883  1
  V  V79  1  0.34196987  0.37920614  0.52709634  1
  V  V80  1  0.24674612  0.74930519  0.48884182  1
  V  V81  1  0.26120236  -0.00236114  0.26356646  1
  V  V82  1  0.75167230  0.62709339  0.36850927  1
  V  V83  1  0.49525622  0.63530790  0.12589245  1
  V  V84  1  0.12586379  0.86470632  0.25599492  1
  Zn  Zn85  1  0.48593552  0.50415644  0.50008045  1
  Zn  Zn86  1  -0.00605978  0.61983039  0.61715075  1
  Zn  Zn87  1  0.62721085  -0.00418494  0.12639504  1
  Zn  Zn88  1  0.00044160  0.74416036  0.74924726  1
  Zn  Zn89  1  -0.01499824  0.74258696  0.24574445  1
  Zn  Zn90  1  0.04594923  0.05252449  0.57941798  1
  Zn  Zn91  1  0.74849464  0.87714125  0.62401190  1
  Zn  Zn92  1  0.12389311  0.24433644  0.87431716  1
  Zn  Zn93  1  0.36361353  0.23530769  0.63888906  1
  Zn  Zn94  1  0.62371269  0.87453172  0.74807957  1
  Zn  Zn95  1  0.75436106  0.12524567  0.37824156  1
  Zn  Zn96  1  0.75240090  0.12485892  0.88011573  1
  Zn  Zn97  1  0.37265593  0.88191924  0.49163741  1
  Zn  Zn98  1  0.75724712  0.86739271  0.13327878  1
  Zn  Zn99  1  0.37802913  0.73896493  0.61304531  1
  Zn  Zn100  1  0.12355024  0.12119619  -0.00154687  1
  Zn  Zn101  1  0.44528117  0.04967783  0.55673643  1
  Zn  Zn102  1  0.50176026  0.87341056  0.87473323  1
  Zn  Zn103  1  -0.01483716  0.62890775  0.13092896  1
  Zn  Zn104  1  0.38209653  0.61799887  0.73862384  1
  Zn  Zn105  1  0.25267090  0.62445815  0.37403284  1
  Zn  Zn106  1  0.01295990  0.36598010  0.38372244  1
  Zn  Zn107  1  0.18393639  0.18461321  0.18321931  1
  Zn  Zn108  1  0.18682396  0.18637461  0.67957167  1
  Zn  Zn109  1  0.18539526  0.68890031  0.18525751  1
  Zn  Zn110  1  0.19053447  0.68348925  0.68101283  1
  Zn  Zn111  1  0.69002141  0.18363467  0.19002526  1
  Zn  Zn112  1  0.68748114  0.18543074  0.68811450  1
  Zn  Zn113  1  0.82312675  0.68170898  0.18781960  1
  Zn  Zn114  1  0.68757442  0.68555160  0.68751025  1
  Zn  Zn115  1  0.31497150  0.33604982  0.31710694  1
  Zn  Zn116  1  0.30163789  0.29800262  0.78984364  1
  Zn  Zn117  1  0.31567223  0.81352673  0.31306628  1
  Zn  Zn118  1  0.31698983  0.81272114  0.81123478  1
  Zn  Zn119  1  0.84282818  0.29803575  0.33240924  1
  Zn  Zn120  1  0.80870048  0.31077729  0.81694769  1
  Zn  Zn121  1  0.80901306  0.81544705  0.31898267  1
  Zn  Zn122  1  0.80992260  0.81028021  0.81529594  1
  Zn  Zn123  1  0.18484878  0.44148203  0.43530543  1
  Zn  Zn124  1  0.18760660  0.43421233  0.93277742  1
  Zn  Zn125  1  0.17708764  0.94581847  0.44487030  1
  Zn  Zn126  1  0.18789113  0.93617136  0.93607224  1
  Zn  Zn127  1  0.69026730  0.44001804  0.43751230  1
  Zn  Zn128  1  0.68960459  0.43397270  0.94029904  1
  Zn  Zn129  1  0.68933694  0.93956436  0.43815119  1
  Zn  Zn130  1  0.69034914  0.93420928  0.93901764  1
  Zn  Zn131  1  0.31302529  0.05743587  0.06242913  1
  Zn  Zn132  1  0.27836524  0.06250380  0.54377335  1
  Zn  Zn133  1  0.31424025  0.56273144  0.06320154  1
  Zn  Zn134  1  0.30932185  0.56367962  0.56044266  1
  Zn  Zn135  1  0.81101183  0.05699976  0.06543565  1
  Zn  Zn136  1  0.81085011  0.06396551  0.56283040  1
  Zn  Zn137  1  0.80788675  0.55177424  0.05485263  1
  Zn  Zn138  1  0.80391693  0.56376709  0.56120495  1
  Zn  Zn139  1  0.44101832  0.43450193  0.19074534  1
  Zn  Zn140  1  0.43977592  0.43213559  0.68830705  1
  Zn  Zn141  1  0.43911355  0.93594247  0.18920724  1
  Zn  Zn142  1  0.43581126  0.92652167  0.69103582  1
  Zn  Zn143  1  0.94104200  0.44800755  0.18950848  1
  Zn  Zn144  1  0.93768053  0.43644573  0.68896776  1
  Zn  Zn145  1  0.93984830  0.93480018  0.19168536  1
  Zn  Zn146  1  0.93749540  0.93123224  0.68836186  1
  Zn  Zn147  1  0.06502493  0.05612002  0.31417556  1
  Zn  Zn148  1  0.05151062  0.04627267  0.77928873  1
  Zn  Zn149  1  0.05965037  0.56269063  0.30709515  1
  Zn  Zn150  1  0.05957911  0.56078542  0.81093304  1
  Zn  Zn151  1  0.56664074  0.06648934  0.31407843  1
  Zn  Zn152  1  0.56483285  0.06028455  0.81589798  1
  Zn  Zn153  1  0.56713940  0.56827362  0.30658710  1
  Zn  Zn154  1  0.56178160  0.56063692  0.81183260  1
  Zn  Zn155  1  0.39796151  0.18263009  0.47449333  1
  Zn  Zn156  1  0.43722005  0.18245396  0.93304949  1
  Zn  Zn157  1  0.43329671  0.69047900  0.43548954  1
  Zn  Zn158  1  0.43810563  0.68456916  0.93391545  1
  Zn  Zn159  1  0.97700557  0.18035809  0.41528901  1
  Zn  Zn160  1  0.93586936  0.18501938  0.94008638  1
  Zn  Zn161  1  0.93526693  0.68937608  0.43433980  1
  Zn  Zn162  1  0.93770772  0.68326865  0.94141015  1
  Zn  Zn163  1  0.06685740  0.31303504  0.06270787  1
  Zn  Zn164  1  0.06205825  0.30215608  0.56618811  1
  Zn  Zn165  1  0.06400082  0.81085324  0.06476662  1
  Zn  Zn166  1  0.06053275  0.80568129  0.56095031  1
  Zn  Zn167  1  0.56371679  0.31126568  0.06443102  1
  Zn  Zn168  1  0.55869328  0.31383790  0.56143291  1
  Zn  Zn169  1  0.56672212  0.81085761  0.06256684  1
  Zn  Zn170  1  0.56343615  0.81911593  0.56083525  1
  O  O171  1  0.11826045  0.11139140  0.12353854  1
  O  O172  1  0.12972188  0.13990553  0.60034037  1
  O  O173  1  0.13680274  0.61148997  0.11470358  1
  O  O174  1  0.11946000  0.61629517  0.61638377  1
  O  O175  1  0.61700312  0.12406743  0.11566997  1
  O  O176  1  0.62973248  0.11721136  0.61580811  1
  O  O177  1  0.60800205  0.60924342  0.11736814  1
  O  O178  1  0.63045920  0.61524974  0.61669243  1
  O  O179  1  0.40273701  0.38914550  0.35831737  1
  O  O180  1  0.37792796  0.38330346  0.87658059  1
  O  O181  1  0.39538206  0.87457784  0.36830378  1
  O  O182  1  0.37638711  0.88469952  0.88384765  1
  O  O183  1  0.85213034  0.39416674  0.39522578  1
  O  O184  1  0.88290933  0.37911846  0.87703887  1
  O  O185  1  0.87940099  0.88251960  0.38575960  1
  O  O186  1  0.87977144  0.87973900  0.88168712  1
  O  O187  1  0.25066513  -0.00935393  0.36121538  1
  O  O188  1  0.25826219  0.00220113  0.87037838  1
  O  O189  1  0.25096739  0.50104950  0.35659721  1
  O  O190  1  0.25696035  0.50596493  0.87079220  1
  O  O191  1  0.76075480  0.00243780  0.36930728  1
  O  O192  1  0.76134822  -0.00056048  0.87106991  1
  O  O193  1  0.74963761  0.51186243  0.36583274  1
  O  O194  1  0.75735081  0.50666545  0.87946634  1
  O  O195  1  0.24600619  0.49308017  0.12761918  1
  O  O196  1  0.23676480  0.50271989  0.63765547  1
  O  O197  1  0.24313753  0.98997281  0.12827518  1
  O  O198  1  0.24750841  0.98873330  0.63588364  1
  O  O199  1  0.73843291  0.50345315  0.13355762  1
  O  O200  1  0.73985502  0.48802443  0.62527252  1
  O  O201  1  0.74708393  0.99150299  0.13543599  1
  O  O202  1  0.74325838  0.99996864  0.63514884  1
  O  O203  1  0.01913214  0.38164207  0.24177899  1
  O  O204  1  0.00176771  0.36662013  0.75969841  1
  O  O205  1  0.01179297  0.87311891  0.25748943  1
  O  O206  1  0.00965605  0.86413707  0.75841368  1
  O  O207  1  0.51614968  0.37006022  0.25478440  1
  O  O208  1  0.51306728  0.36708577  0.75705701  1
  O  O209  1  0.51471184  0.88336980  0.25981118  1
  O  O210  1  0.50405920  0.85877770  0.75635982  1
  O  O211  1  0.51115722  0.13453920  0.23936643  1
  O  O212  1  0.51276534  0.13736423  0.75002425  1
  O  O213  1  0.48874400  0.61974421  0.23693762  1
  O  O214  1  0.50174900  0.63928294  0.75439801  1
  O  O215  1  0.98518690  0.11708986  0.24047450  1
  O  O216  1  0.98859195  0.14143131  0.76131859  1
  O  O217  1  0.99344846  0.62608513  0.24710426  1
  O  O218  1  0.98363396  0.62572287  0.75153600  1
  O  O219  1  0.36671469  0.25186391  0.00046501  1
  O  O220  1  0.37549805  0.29301291  0.48409112  1
  O  O221  1  0.37174387  0.76184539  -0.00864559  1
  O  O222  1  0.36433012  0.75871988  0.49682231  1
  O  O223  1  0.86494002  0.25740610  -0.00423597  1
  O  O224  1  0.86317348  0.26222023  0.51411161  1
  O  O225  1  0.86516135  0.75803605  -0.01154301  1
  O  O226  1  0.86822078  0.75553685  0.50820408  1
  O  O227  1  0.11901503  0.25285065  0.48606747  1
  O  O228  1  0.13920825  0.24767046  0.99594844  1
  O  O229  1  0.12971507  0.73309754  0.50252662  1
  O  O230  1  0.13471165  0.74676622  0.98748673  1
  O  O231  1  0.63036969  0.24609205  0.49571879  1
  O  O232  1  0.62994976  0.24345952  0.99505372  1
  O  O233  1  0.62933239  0.74528313  0.49555811  1
  O  O234  1  0.63203418  0.74169958  0.99294220  1
  O  O235  1  0.49454547  0.24389693  0.13125136  1
  O  O236  1  0.49783489  0.25257817  0.63744881  1
  O  O237  1  0.50459068  0.73317876  0.12023682  1
  O  O238  1  0.50193916  0.75401795  0.63677917  1
  O  O239  1  1.00759650  0.23220479  0.11684093  1
  O  O240  1  0.98165029  0.26002730  0.63914247  1
  O  O241  1  1.02079226  0.73852190  0.13355644  1
  O  O242  1  0.98441741  0.74418233  0.62718135  1
  O  O243  1  -0.04856894  0.27513734  0.36494374  1
  O  O244  1  -0.00082152  0.25732909  0.87222716  1
  O  O245  1  -0.00725098  0.76436415  0.37028287  1
  O  O246  1  0.01041890  0.75148581  0.87532105  1
  O  O247  1  0.51911723  0.26341261  0.36828988  1
  O  O248  1  0.51355166  0.25254605  0.87620310  1
  O  O249  1  0.51199262  0.75345204  0.37573059  1
  O  O250  1  0.51403764  0.74723127  0.87231080  1
  O  O251  1  0.23038006  0.13810413  0.47393466  1
  O  O252  1  0.24877461  0.12897528  0.99373395  1
  O  O253  1  0.24013084  0.63173820  0.49409199  1
  O  O254  1  0.24789412  0.63019779  0.99237954  1
  O  O255  1  0.74669441  0.14035926  0.50139398  1
  O  O256  1  0.74299212  0.12924895  1.00169448  1
  O  O257  1  0.73797734  0.63334437  0.49289899  1
  O  O258  1  0.74318074  0.62853928  0.98780929  1
  O  O259  1  0.25564125  0.36496365  0.00128688  1
  O  O260  1  0.24324489  0.38036615  0.51199189  1
  O  O261  1  0.25907498  0.87205760  0.00661759  1
  O  O262  1  0.24009268  0.86668587  0.50735978  1
  O  O263  1  0.76113078  0.36484856  -0.00278661  1
  O  O264  1  0.74773551  0.36657640  0.51342809  1
  O  O265  1  0.75861848  0.86364707  0.00145282  1
  O  O266  1  0.76076236  0.86713571  0.50009784  1
  O  O267  1  0.13794552  0.49771250  0.23937102  1
  O  O268  1  0.12822947  0.49426482  0.74493454  1
  O  O269  1  0.13547312  0.99339278  0.24391632  1
  O  O270  1  0.14302309  0.97824657  0.76669441  1
  O  O271  1  0.63409770  0.49535615  0.24217092  1
  O  O272  1  0.62156874  0.49061382  0.74297868  1
  O  O273  1  0.63692359  0.99444298  0.25253111  1
  O  O274  1  0.63283146  0.99925539  0.74557457  1
  O  O275  1  0.35978276  -0.00181742  0.24497872  1
  O  O276  1  0.36534212  -0.00954142  0.75906387  1
  O  O277  1  0.36187047  0.50592339  0.23781838  1
  O  O278  1  0.36637706  0.49580906  0.75569583  1
  O  O279  1  0.86393567  -0.00186019  0.25685133  1
  O  O280  1  0.86736925  0.00589790  0.75671528  1
  O  O281  1  0.86260817  0.49273337  0.26019188  1
  O  O282  1  0.87595009  0.50433841  0.76174541  1
  O  O283  1  0.12510914  0.38113557  0.35741800  1
  O  O284  1  0.11008412  0.37392157  0.86887584  1
  O  O285  1  0.11413039  0.88217988  0.36878200  1
  O  O286  1  0.12267216  0.86282607  0.87003382  1
  O  O287  1  0.62630068  0.37087229  0.36593010  1
  O  O288  1  0.62187006  0.36787169  0.87017362  1
  O  O289  1  0.61718708  0.87165602  0.37058090  1
  O  O290  1  0.62533271  0.86377711  0.87388065  1
  O  O291  1  0.38844013  0.12847494  0.11742798  1
  O  O292  1  0.36928496  0.13931620  0.57837639  1
  O  O293  1  0.38829119  0.62122245  0.12970077  1
  O  O294  1  0.37266627  0.62681137  0.62642979  1
  O  O295  1  0.88317851  0.11345054  0.13562931  1
  O  O296  1  0.86761317  0.13396909  0.63894622  1
  O  O297  1  0.87312681  0.62242198  0.10836713  1
  O  O298  1  0.87072733  0.62877787  0.63348488  1
  O  O299  1  0.25726479  0.25016109  0.11515820  1
  O  O300  1  0.26507563  0.26129823  0.68649156  1
  O  O301  1  0.24385359  0.76538017  0.11645575  1
  O  O302  1  0.24999757  0.75490162  0.61260712  1
  O  O303  1  0.74123450  0.24985560  0.11281678  1
  O  O304  1  0.75632647  0.25875369  0.62435886  1
  O  O305  1  0.74664658  0.74812202  0.11056030  1
  O  O306  1  0.75867746  0.75125019  0.61993705  1
  O  O307  1  0.26465366  0.24156746  0.35387230  1
  O  O308  1  0.25112866  0.23650605  0.87901185  1
  O  O309  1  0.25126451  0.74946503  0.38471909  1
  O  O310  1  0.24635193  0.74369521  0.87803104  1
  O  O311  1  0.74442496  0.25151866  0.38669639  1
  O  O312  1  0.73748768  0.24690872  0.88297222  1
  O  O313  1  0.74059107  0.74483389  0.38266237  1
  O  O314  1  0.73909842  0.74058783  0.87962151  1
  O  O315  1  0.00022261  0.11424105  0.00611329  1
  O  O316  1  0.00551178  0.13653541  0.51265124  1
  O  O317  1  0.01127506  0.61494744  -0.00383447  1
  O  O318  1  0.01168259  0.62870872  0.49786178  1
  O  O319  1  0.50814146  0.11986418  0.00656605  1
  O  O320  1  0.51186316  0.12987448  0.49706336  1
  O  O321  1  0.50090591  0.61725139  0.00771581  1
  O  O322  1  0.51191547  0.62225846  0.49113626  1
  O  O323  1  0.51339607  0.38254097  0.48152796  1
  O  O324  1  0.49403013  0.37635853  0.99309737  1
  O  O325  1  0.50017372  0.87573410  0.48413140  1
  O  O326  1  0.49513130  0.87878770  1.00000325  1
  O  O327  1  0.98570934  0.37461679  0.50386116  1
  O  O328  1  0.99526757  0.37771479  0.99378061  1
  O  O329  1  0.98867973  0.87061321  0.49563786  1
  O  O330  1  0.99538489  0.87727737  0.99366470  1
  O  O331  1  0.51601885  0.49171974  0.37520110  1
  O  O332  1  0.49272530  0.49256743  0.88038026  1
  O  O333  1  0.50519922  0.99363344  0.37690858  1
  O  O334  1  0.49332901  0.99785073  0.88134044  1
  O  O335  1  0.98387779  0.49068427  0.36994619  1
  O  O336  1  0.99200567  0.49159187  0.87952417  1
  O  O337  1  0.98544961  0.98643742  0.36744046  1
  O  O338  1  0.98891526  0.99194427  0.87462578  1
  O  O339  1  0.00891235  0.00182291  0.12072668  1
  O  O340  1  0.01377924  0.00810130  0.67339648  1
  O  O341  1  0.01200577  0.50433666  0.11612581  1
  O  O342  1  0.01116005  0.50215602  0.63088593  1
  O  O343  1  0.50414199  0.00730358  0.12081955  1
  O  O344  1  0.51147177  -0.00369887  0.63378898  1
  O  O345  1  0.50389852  0.50050028  0.11725850  1
  O  O346  1  0.51216172  0.49215125  0.62037109  1
  O  O347  1  0.24561400  0.38773605  0.24080801  1
  O  O348  1  0.23187975  0.39115655  0.77077466  1
  O  O349  1  0.24804060  0.88224389  0.24387151  1
  O  O350  1  0.24560675  0.87416176  0.74101383  1
  O  O351  1  0.74165023  0.38376311  0.25314854  1
  O  O352  1  0.73691107  0.36850237  0.74522387  1
  O  O353  1  0.73597220  0.88175672  0.25321203  1
  O  O354  1  0.75025177  0.88743123  0.75070284  1
  O  O355  1  0.25166866  0.11403679  0.24986997  1
  O  O356  1  0.24421191  0.10727732  0.75682713  1
  O  O357  1  0.26125974  0.61744354  0.24555210  1
  O  O358  1  0.25017282  0.61479638  0.75740683  1
  O  O359  1  0.75858320  0.11385322  0.25097713  1
  O  O360  1  0.75562867  0.11461159  0.75594189  1
  O  O361  1  0.75100762  0.61736641  0.25878442  1
  O  O362  1  0.75837165  0.62736412  0.76242391  1
  O  O363  1  0.38119414  0.13066485  0.37317439  1
  O  O364  1  0.36474803  0.10838207  0.88139233  1
  O  O365  1  0.37592314  0.62633856  0.35593275  1
  O  O366  1  0.37243796  0.60957865  0.87157056  1
  O  O367  1  0.87681533  0.11616622  0.35991835  1
  O  O368  1  0.87307819  0.11529885  0.86705493  1
  O  O369  1  0.86004407  0.61735439  0.38560241  1
  O  O370  1  0.86714413  0.61545649  0.87075991  1
  O  O371  1  0.13356817  0.38573659  0.12660849  1
  O  O372  1  0.11522666  0.38060783  0.63864261  1
  O  O373  1  0.13259452  0.88441714  0.13300445  1
  O  O374  1  0.13056245  0.86343229  0.63649904  1
  O  O375  1  0.61991302  0.38652178  0.13170761  1
  O  O376  1  0.62960918  0.37950262  0.63359649  1
  O  O377  1  0.62557700  0.87414950  0.13889597  1
  O  O378  1  0.63005591  0.88610087  0.62643874  1
  O  O379  1  0.13265925  0.26940624  0.23884054  1
  O  O380  1  0.11139093  0.25702796  0.75441115  1
  O  O381  1  0.13609510  0.76458594  0.25459674  1
  O  O382  1  0.12760921  0.75184415  0.75965527  1
  O  O383  1  0.62786576  0.25690615  0.25707414  1
  O  O384  1  0.62004200  0.25457431  0.75881303  1
  O  O385  1  0.62837443  0.76583971  0.26055285  1
  O  O386  1  0.61841532  0.74940889  0.75636330  1
  O  O387  1  0.37911399  0.24313650  0.24705164  1
  O  O388  1  0.40373189  0.24686507  0.76407835  1
  O  O389  1  0.36945846  0.73610463  0.24351801  1
  O  O390  1  0.39221610  0.74588548  0.75450591  1
  O  O391  1  0.85991456  0.22984934  0.23895735  1
  O  O392  1  0.87524908  0.24258659  0.74805355  1
  O  O393  1  0.87043048  0.76537609  0.24283845  1
  O  O394  1  0.87242553  0.74109713  0.74385214  1
  O  O395  1  0.37149142  0.48046699  0.50515878  1
  O  O396  1  0.37789719  0.49173749  0.99224777  1
  O  O397  1  0.36234592  0.99251125  0.50914645  1
  O  O398  1  0.38159801  0.98881815  0.99457270  1
  O  O399  1  0.86917034  0.49535135  0.49618034  1
  O  O400  1  0.87919033  0.48791863  0.98651025  1
  O  O401  1  0.87018114  0.99207325  0.49331784  1
  O  O402  1  0.87922852  0.99184095  0.99155355  1
  O  O403  1  0.11822030  -0.00381359  0.00822216  1
  O  O404  1  0.12305053  0.02529435  0.49827183  1
  O  O405  1  0.12247929  0.50180913  0.00405946  1
  O  O406  1  0.12794540  0.51265856  0.50804518  1
  O  O407  1  0.62153043  0.00667378  0.00121786  1
  O  O408  1  0.63331392  0.01178709  0.51051045  1
  O  O409  1  0.61967499  0.50157286  0.00538291  1
  O  O410  1  0.62844116  0.51018250  0.50916370  1
  O  O411  1  0.37132922  0.36504293  0.11909387  1
  O  O412  1  0.37009004  0.36656189  0.62615866  1
  O  O413  1  0.36825126  0.87854622  0.11604323  1
  O  O414  1  0.36150152  0.86422661  0.62593052  1
  O  O415  1  0.88196563  0.38300825  0.11281212  1
  O  O416  1  0.86497482  0.37286676  0.62316090  1
  O  O417  1  0.87694673  0.88010988  0.10958182  1
  O  O418  1  0.87286478  0.86744923  0.61987822  1
  O  O419  1  0.08983634  0.13980823  0.38256121  1
  O  O420  1  0.13747167  0.12046148  0.87686954  1
  O  O421  1  0.12797250  0.61444373  0.38636816  1
  O  O422  1  0.13092119  0.62980633  0.87782366  1
  O  O423  1  0.63159801  0.13598955  0.38311566  1
  O  O424  1  0.62667692  0.13069500  0.88847606  1
  O  O425  1  0.63251260  0.63447513  0.37863289  1
  O  O426  1  0.63105803  0.62670230  0.88058782  1
