# generated using pymatgen
data_V85Zn86O256
_symmetry_space_group_name_H-M   'P 1'
_cell_length_a   16.94304048
_cell_length_b   16.93448133
_cell_length_c   16.94241480
_cell_angle_alpha   90.01057062
_cell_angle_beta   89.91960955
_cell_angle_gamma   89.96300478
_symmetry_Int_Tables_number   1
_chemical_formula_structural   V85Zn86O256
_chemical_formula_sum   'V85 Zn86 O256'
_cell_volume   4861.13892873
_cell_formula_units_Z   1
loop_
 _symmetry_equiv_pos_site_id
 _symmetry_equiv_pos_as_xyz
  1  'x, y, z'
loop_
 _atom_site_type_symbol
 _atom_site_label
 _atom_site_symmetry_multiplicity
 _atom_site_fract_x
 _atom_site_fract_y
 _atom_site_fract_z
 _atom_site_occupancy
  V  V0  1  0.74871233  0.75062467  0.49890365  1
  V  V1  1  0.74565151  0.25156347  0.49426625  1
  V  V2  1  0.24930985  0.12662262  0.86809684  1
  V  V3  1  0.00227302  0.75032163  0.74987874  1
  V  V4  1  0.25373205  0.62650196  0.37572772  1
  V  V5  1  0.25050098  0.12656812  0.38495836  1
  V  V6  1  0.49335509  0.22639885  0.75110232  1
  V  V7  1  0.87603241  0.75393418  0.62389724  1
  V  V8  1  0.14119368  0.74596722  0.87270216  1
  V  V9  1  0.49926314  -0.00154516  0.00174639  1
  V  V10  1  0.87619277  0.87575674  0.49182197  1
  V  V11  1  0.60812127  0.37803424  0.74231584  1
  V  V12  1  0.87462663  0.87209401  0.00028984  1
  V  V13  1  0.00198488  0.49464694  0.49628270  1
  V  V14  1  0.13107750  -0.00574078  0.12468345  1
  V  V15  1  0.73417939  -0.00477787  0.74674909  1
  V  V16  1  0.11638418  0.25768498  0.87683866  1
  V  V17  1  0.87465412  0.62329310  0.74864496  1
  V  V18  1  0.37328091  0.37468399  -0.01443596  1
  V  V19  1  0.36991305  0.87305937  0.01369652  1
  V  V20  1  0.49512232  0.75337016  0.24706927  1
  V  V21  1  0.62491857  0.75349997  0.36870769  1
  V  V22  1  0.62418919  0.37476831  0.25534204  1
  V  V23  1  0.00843793  0.62300220  0.11949375  1
  V  V24  1  0.62434327  0.61787336  0.50060234  1
  V  V25  1  0.00137241  -0.00191822  -0.00003583  1
  V  V26  1  0.87891879  0.49194413  0.37058101  1
  V  V27  1  0.00214873  0.86911324  0.87536447  1
  V  V28  1  0.75213129  0.37457915  0.11991115  1
  V  V29  1  0.12471737  0.62645386  0.50078194  1
  V  V30  1  0.11813138  0.37110284  0.74225421  1
  V  V31  1  0.62477495  0.75236764  0.87178436  1
  V  V32  1  0.50151810  0.87445377  0.87368549  1
  V  V33  1  0.50211177  0.25028400  0.25436514  1
  V  V34  1  0.37574523  0.12562055  0.25314554  1
  V  V35  1  0.49702747  0.49387033  0.50398436  1
  V  V36  1  0.38116096  0.25083930  0.62176827  1
  V  V37  1  -0.00470695  0.12414448  0.13521813  1
  V  V38  1  0.25439796  0.75333102  0.49863328  1
  V  V39  1  0.87174346  0.37455071  0.50331360  1
  V  V40  1  -0.00234395  0.12875226  0.63191723  1
  V  V41  1  0.75010925  0.74962638  -0.00148043  1
  V  V42  1  0.50101988  0.61870942  0.62595366  1
  V  V43  1  0.37808997  0.75167913  0.61848965  1
  V  V44  1  0.87408623  0.00961138  0.36936222  1
  V  V45  1  0.12477816  0.00200480  0.62565377  1
  V  V46  1  0.50403991  0.87924655  0.37486945  1
  V  V47  1  0.25380626  0.74568631  0.01644896  1
  V  V48  1  0.37795234  -0.00457042  0.38436308  1
  V  V49  1  -0.00131639  -0.00252627  0.49962855  1
  V  V50  1  0.50636011  -0.00219541  0.51457558  1
  V  V51  1  0.74563694  0.49252413  0.72854627  1
  V  V52  1  0.75034624  0.62340733  0.37192118  1
  V  V53  1  0.49968806  0.36919136  0.38017894  1
  V  V54  1  0.36761860  0.62182638  0.76178366  1
  V  V55  1  0.12506994  0.12595350  0.00110149  1
  V  V56  1  0.62097652  0.49924651  0.12485651  1
  V  V57  1  0.11720051  0.36985160  0.25305824  1
  V  V58  1  0.74814158  0.61535729  0.87222436  1
  V  V59  1  0.49900493  0.12652220  0.12449233  1
  V  V60  1  0.74875454  0.24948767  -0.00249849  1
  V  V61  1  0.61855188  0.13092049  0.50519600  1
  V  V62  1  0.12824704  0.87753625  0.74911278  1
  V  V63  1  0.50427151  0.75120329  0.74839481  1
  V  V64  1  0.25169075  0.27121547  0.50737110  1
  V  V65  1  0.49302046  0.62770952  0.12516891  1
  V  V66  1  0.87610269  0.74999764  0.12353882  1
  V  V67  1  0.12565074  0.87759359  0.25469989  1
  V  V68  1  0.37305703  0.00173419  0.86946588  1
  V  V69  1  0.49621661  0.49393876  -0.01452139  1
  V  V70  1  0.62301866  0.62380185  -0.00161112  1
  V  V71  1  0.74503858  0.87432480  0.13233534  1
  V  V72  1  0.25055455  0.49721536  0.24650291  1
  V  V73  1  0.00086502  0.75516660  0.25433183  1
  V  V74  1  0.86939890  0.12170391  0.75304083  1
  V  V75  1  0.25639201  0.87861976  0.62005499  1
  V  V76  1  0.12446787  0.75477326  0.37537134  1
  V  V77  1  0.73625077  0.87656414  0.62765029  1
  V  V78  1  0.62312503  -0.00339031  0.13475463  1
  V  V79  1  0.87270271  -0.00326667  0.87105141  1
  V  V80  1  0.87768262  0.62387359  0.24885673  1
  V  V81  1  0.25384182  -0.00344027  0.24956521  1
  V  V82  1  0.25392251  0.48729870  0.75367161  1
  V  V83  1  0.37591828  0.49595126  0.37723222  1
  V  V84  1  0.86781894  0.25292016  0.62692011  1
  Zn  Zn85  1  0.12171356  0.25340246  0.37935848  1
  Zn  Zn86  1  0.25558427  0.36931509  0.12679608  1
  Zn  Zn87  1  0.12318671  0.12985408  0.50182266  1
  Zn  Zn88  1  0.25308610  0.24903458  0.00140512  1
  Zn  Zn89  1  0.00292421  0.62535424  0.62319780  1
  Zn  Zn90  1  0.12818934  0.49533100  0.11840016  1
  Zn  Zn91  1  0.75104185  0.49980499  0.24762269  1
  Zn  Zn92  1  0.25568220  0.00582701  0.74464929  1
  Zn  Zn93  1  0.01022017  0.47172716  -0.01728822  1
  Zn  Zn94  1  0.74278669  0.12152034  0.87479709  1
  Zn  Zn95  1  0.37602431  0.25549578  0.12467580  1
  Zn  Zn96  1  0.75097724  0.00467222  0.25000162  1
  Zn  Zn97  1  0.61552052  0.25193023  0.87546903  1
  Zn  Zn98  1  -0.01317798  0.24657624  0.26572667  1
  Zn  Zn99  1  0.74388232  0.13470133  0.36690995  1
  Zn  Zn100  1  0.13355955  0.61696465  -0.01088991  1
  Zn  Zn101  1  0.37278090  0.62810766  0.24668192  1
  Zn  Zn102  1  0.13415067  0.49329533  0.61934926  1
  Zn  Zn103  1  0.86672172  0.24036423  0.13070522  1
  Zn  Zn104  1  0.62188051  0.12577952  -0.00250263  1
  Zn  Zn105  1  -0.04277950  0.29509164  0.79314945  1
  Zn  Zn106  1  0.87869053  0.47246144  0.87482076  1
  Zn  Zn107  1  0.19040976  0.18595381  0.18851918  1
  Zn  Zn108  1  0.18846549  0.19223560  0.68566377  1
  Zn  Zn109  1  0.18859919  0.68642898  0.19014590  1
  Zn  Zn110  1  0.19081110  0.68815213  0.68503049  1
  Zn  Zn111  1  0.68465584  0.18663708  0.18931758  1
  Zn  Zn112  1  0.68220319  0.18774663  0.68297810  1
  Zn  Zn113  1  0.68462871  0.68648032  0.18742453  1
  Zn  Zn114  1  0.68615018  0.68585410  0.68468986  1
  Zn  Zn115  1  0.31303612  0.31288712  0.31657805  1
  Zn  Zn116  1  0.31334352  0.30735455  0.81044531  1
  Zn  Zn117  1  0.31614931  0.81651319  0.31242841  1
  Zn  Zn118  1  0.31833238  0.81485076  0.80866533  1
  Zn  Zn119  1  0.81187188  0.31208400  0.30903567  1
  Zn  Zn120  1  0.79264060  0.31167800  0.81139946  1
  Zn  Zn121  1  0.81338264  0.81496781  0.31211960  1
  Zn  Zn122  1  0.81068949  0.81144881  0.81103620  1
  Zn  Zn123  1  0.18560817  0.43986966  0.43050167  1
  Zn  Zn124  1  0.19234442  0.43905716  0.93069603  1
  Zn  Zn125  1  0.18754365  0.94006607  0.43904013  1
  Zn  Zn126  1  0.19210299  0.93481980  0.93777563  1
  Zn  Zn127  1  0.68962044  0.43692930  0.43826912  1
  Zn  Zn128  1  0.68221846  0.43224397  0.93125777  1
  Zn  Zn129  1  0.68677752  0.94001456  0.43910585  1
  Zn  Zn130  1  0.68515838  0.93891429  0.94102969  1
  Zn  Zn131  1  0.31297441  0.06257479  0.06159104  1
  Zn  Zn132  1  0.32077978  0.06763321  0.56614139  1
  Zn  Zn133  1  0.31546291  0.56006317  0.05866866  1
  Zn  Zn134  1  0.31414817  0.55980412  0.56681326  1
  Zn  Zn135  1  0.81114876  0.06241690  0.05969929  1
  Zn  Zn136  1  0.80508260  0.06468680  0.56312369  1
  Zn  Zn137  1  0.81382109  0.55775198  0.06050018  1
  Zn  Zn138  1  0.81647837  0.56593933  0.55826445  1
  Zn  Zn139  1  0.43469500  0.43740986  0.18514484  1
  Zn  Zn140  1  0.42688292  0.43348471  0.68228738  1
  Zn  Zn141  1  0.44017794  0.93751831  0.19320780  1
  Zn  Zn142  1  0.43886721  0.93463746  0.69082307  1
  Zn  Zn143  1  0.94022875  0.43505245  0.17779596  1
  Zn  Zn144  1  0.93696201  0.44359562  0.67980797  1
  Zn  Zn145  1  0.94057084  0.93678603  0.18775154  1
  Zn  Zn146  1  0.93447858  0.93700378  0.68575078  1
  Zn  Zn147  1  0.06358913  0.06252991  0.31925460  1
  Zn  Zn148  1  0.06163891  0.06394590  0.81308088  1
  Zn  Zn149  1  0.06470296  0.56197374  0.31140988  1
  Zn  Zn150  1  0.06850540  0.55990800  0.80783134  1
  Zn  Zn151  1  0.56828740  0.06673989  0.31710671  1
  Zn  Zn152  1  0.56283596  0.06160134  0.81554480  1
  Zn  Zn153  1  0.56050991  0.56241947  0.31228398  1
  Zn  Zn154  1  0.56516867  0.56097570  0.80594426  1
  Zn  Zn155  1  0.43597853  0.18566134  0.44381408  1
  Zn  Zn156  1  0.43622227  0.18757743  0.93429753  1
  Zn  Zn157  1  0.43905883  0.68520694  0.43599640  1
  Zn  Zn158  1  0.43544234  0.68914074  0.94047089  1
  Zn  Zn159  1  0.93768325  0.18614718  0.44142793  1
  Zn  Zn160  1  0.93146537  0.30757656  0.95769623  1
  Zn  Zn161  1  0.93888227  0.68519548  0.43484654  1
  Zn  Zn162  1  0.93862925  0.61399722  0.93602466  1
  Zn  Zn163  1  0.07253566  0.30743288  0.07376411  1
  Zn  Zn164  1  0.05832598  0.31052157  0.56100476  1
  Zn  Zn165  1  0.06793119  0.80983302  0.06378468  1
  Zn  Zn166  1  0.06338341  0.81527479  0.56225788  1
  Zn  Zn167  1  0.56195319  0.31313150  0.06260089  1
  Zn  Zn168  1  0.56370812  0.31237667  0.57030466  1
  Zn  Zn169  1  0.56213395  0.81261659  0.06165694  1
  Zn  Zn170  1  0.55949265  0.81060958  0.55514110  1
  O  O171  1  0.12185130  0.11268503  0.12125712  1
  O  O172  1  0.11566032  0.12020565  0.62612961  1
  O  O173  1  0.11550707  0.62366815  0.12677731  1
  O  O174  1  0.12551392  0.62941720  0.60983595  1
  O  O175  1  0.61030320  0.11683469  0.12398836  1
  O  O176  1  0.63342204  0.11851983  0.60511585  1
  O  O177  1  0.61762347  0.61749467  0.11819242  1
  O  O178  1  0.61079368  0.63092287  0.61486796  1
  O  O179  1  0.38471163  0.38766909  0.37308624  1
  O  O180  1  0.37271978  0.37473738  0.88602417  1
  O  O181  1  0.38345109  0.88843707  0.37479239  1
  O  O182  1  0.38462718  0.87965715  0.88293758  1
  O  O183  1  0.87118180  0.38841938  0.38075019  1
  O  O184  1  0.88336206  0.35835440  0.86520650  1
  O  O185  1  0.87482355  0.87716380  0.38830301  1
  O  O186  1  0.88373114  0.87544189  0.87910054  1
  O  O187  1  0.26001683  0.00561777  0.37351750  1
  O  O188  1  0.25720022  0.00502695  0.87268561  1
  O  O189  1  0.25859560  0.50560345  0.36755130  1
  O  O190  1  0.24496005  0.50860551  0.85217986  1
  O  O191  1  0.76565019  -0.00675846  0.37447931  1
  O  O192  1  0.75607420  -0.00426235  0.86720579  1
  O  O193  1  0.75917964  0.50748410  0.37276178  1
  O  O194  1  0.75312247  0.50909799  0.87039153  1
  O  O195  1  0.25172727  0.50502377  0.13875214  1
  O  O196  1  0.24720543  0.51065954  0.64396125  1
  O  O197  1  0.24381506  1.00649619  0.13759159  1
  O  O198  1  0.24683927  0.99430108  0.62372754  1
  O  O199  1  0.73534339  0.49641989  0.12174657  1
  O  O200  1  0.74894138  0.50782579  0.63089676  1
  O  O201  1  0.74098023  0.99178598  0.12377771  1
  O  O202  1  0.75464641  0.98718086  0.63343670  1
  O  O203  1  0.01483336  0.37406761  0.24143989  1
  O  O204  1  0.01292966  0.38264559  0.74562169  1
  O  O205  1  0.01106835  0.86614996  0.24767107  1
  O  O206  1  0.00582169  0.87089488  0.75556391  1
  O  O207  1  0.50330406  0.36981661  0.25782757  1
  O  O208  1  0.50776003  0.38401861  0.74904602  1
  O  O209  1  0.49937788  0.86788075  0.26351030  1
  O  O210  1  0.49601928  0.86296790  0.76037891  1
  O  O211  1  0.49782294  0.13289294  0.24772240  1
  O  O212  1  0.49860814  0.12788331  0.74592617  1
  O  O213  1  0.49978367  0.63257976  0.24172582  1
  O  O214  1  0.49305076  0.62721847  0.74176632  1
  O  O215  1  1.00623961  0.11819787  0.23703742  1
  O  O216  1  0.98896169  0.11843505  0.73993324  1
  O  O217  1  0.99801186  0.63299931  0.24123294  1
  O  O218  1  0.99094949  0.63206271  0.74477449  1
  O  O219  1  0.37827125  0.26458667  -0.00048199  1
  O  O220  1  0.36385576  0.24916286  0.50859387  1
  O  O221  1  0.36463833  0.76053483  -0.00152185  1
  O  O222  1  0.37352547  0.74541516  0.51095135  1
  O  O223  1  0.85348199  0.24443852  0.01303011  1
  O  O224  1  0.86783496  0.25714251  0.50601303  1
  O  O225  1  0.86605855  0.75574580  0.00834701  1
  O  O226  1  0.87190725  0.75497029  0.50462897  1
  O  O227  1  0.13876305  0.25035647  0.50070874  1
  O  O228  1  0.12968113  0.24079607  0.99463214  1
  O  O229  1  0.12953437  0.74629699  0.49336356  1
  O  O230  1  0.14334751  0.75544054  0.99230648  1
  O  O231  1  0.62969308  0.24123044  0.50535331  1
  O  O232  1  0.63044087  0.24809262  0.99854563  1
  O  O233  1  0.62658942  0.73776537  0.48850726  1
  O  O234  1  0.62916169  0.74208980  0.99317224  1
  O  O235  1  0.49776761  0.24177008  0.13412528  1
  O  O236  1  0.48927572  0.24913078  0.63310840  1
  O  O237  1  0.50915351  0.74166928  0.13546321  1
  O  O238  1  0.49462499  0.74558680  0.62962814  1
  O  O239  1  1.00390473  0.22806404  0.12874636  1
  O  O240  1  0.98577408  0.23860352  0.62024694  1
  O  O241  1  0.99924235  0.74464677  0.13637581  1
  O  O242  1  0.99251205  0.75086405  0.63029893  1
  O  O243  1  0.00911391  0.23752221  0.37597885  1
  O  O244  1  0.01284179  0.24560243  0.88139728  1
  O  O245  1  0.00710788  0.74482937  0.36219553  1
  O  O246  1  0.01077172  0.76340421  0.86819934  1
  O  O247  1  0.49371567  0.26241883  0.37294600  1
  O  O248  1  0.49777851  0.24451947  0.85608945  1
  O  O249  1  0.50638598  0.75725599  0.37194301  1
  O  O250  1  0.50343245  0.75488213  0.86835267  1
  O  O251  1  0.25013099  0.12386909  0.49081195  1
  O  O252  1  0.23831418  0.12021280  0.99252648  1
  O  O253  1  0.24487213  0.63117118  0.49499831  1
  O  O254  1  0.25251409  0.64060072  1.00307262  1
  O  O255  1  0.74262128  0.13474635  0.49529857  1
  O  O256  1  0.74346822  0.13528598  1.00232806  1
  O  O257  1  0.74301025  0.63103043  0.49432807  1
  O  O258  1  0.74292456  0.62956387  0.99041779  1
  O  O259  1  0.26455878  0.37801176  0.00036137  1
  O  O260  1  0.24932833  0.36944471  0.49679999  1
  O  O261  1  0.26383954  0.86755929  0.00029918  1
  O  O262  1  0.24643035  0.86982806  0.51190288  1
  O  O263  1  0.73978899  0.36335035  0.00646829  1
  O  O264  1  0.76233020  0.37133801  0.49900442  1
  O  O265  1  0.75491781  0.86894756  0.00756834  1
  O  O266  1  0.75731021  0.86880180  0.50640685  1
  O  O267  1  0.13391759  0.49150864  0.24993356  1
  O  O268  1  0.13353239  0.48835242  0.74471685  1
  O  O269  1  0.13254839  0.99405830  0.24766499  1
  O  O270  1  0.12666960  0.99334864  0.74260179  1
  O  O271  1  0.62377795  0.49468674  0.24056091  1
  O  O272  1  0.63697041  0.49210399  0.74912100  1
  O  O273  1  0.62099345  0.99814853  0.23770900  1
  O  O274  1  0.63506722  0.99578748  0.75440543  1
  O  O275  1  0.36983187  0.00495785  0.25917733  1
  O  O276  1  0.37450262  -0.00517847  0.76507921  1
  O  O277  1  0.36921450  0.50337236  0.25819435  1
  O  O278  1  0.36511567  0.51086272  0.74637155  1
  O  O279  1  0.87857690  -0.00731543  0.26739211  1
  O  O280  1  0.86801490  0.00268396  0.75466928  1
  O  O281  1  0.87719921  0.50417467  0.25578187  1
  O  O282  1  0.86416548  0.50872899  0.74801877  1
  O  O283  1  0.12782330  0.37425558  0.35804735  1
  O  O284  1  0.12774043  0.36703512  0.86384342  1
  O  O285  1  0.12914574  0.87184854  0.36382450  1
  O  O286  1  0.12083283  0.87175567  0.86788346  1
  O  O287  1  0.61553253  0.38406752  0.36282304  1
  O  O288  1  0.63786454  0.36683559  0.84916218  1
  O  O289  1  0.61862510  0.86487165  0.38021386  1
  O  O290  1  0.60947085  0.86920316  0.88414021  1
  O  O291  1  0.38632211  0.12161593  0.13370029  1
  O  O292  1  0.36038016  0.14877600  0.63239370  1
  O  O293  1  0.38968267  0.62191727  0.12500020  1
  O  O294  1  0.38633022  0.63315090  0.63017205  1
  O  O295  1  0.89265757  0.11614369  0.12176687  1
  O  O296  1  0.87812871  0.12842221  0.63406963  1
  O  O297  1  0.88475084  0.63191537  0.13008572  1
  O  O298  1  0.87448999  0.63720982  0.63189321  1
  O  O299  1  0.25794767  0.24678076  0.11993887  1
  O  O300  1  0.25126422  0.25226947  0.61031145  1
  O  O301  1  0.24811233  0.75210210  0.11524560  1
  O  O302  1  0.25921444  0.75711073  0.61830724  1
  O  O303  1  0.74112580  0.25896796  0.11692703  1
  O  O304  1  0.76177822  0.24439060  0.61468371  1
  O  O305  1  0.75226967  0.75581916  0.12056355  1
  O  O306  1  0.75743751  0.75349292  0.61852388  1
  O  O307  1  0.25219760  0.24369558  0.38913992  1
  O  O308  1  0.24193236  0.24127075  0.87906688  1
  O  O309  1  0.24769597  0.74776627  0.38045384  1
  O  O310  1  0.24432868  0.75977494  0.87902632  1
  O  O311  1  0.75216706  0.25477419  0.38997318  1
  O  O312  1  0.74546885  0.24390147  0.88894278  1
  O  O313  1  0.74349704  0.74600341  0.37869228  1
  O  O314  1  0.74135824  0.74389174  0.87695680  1
  O  O315  1  0.01719386  0.11212932  0.01057465  1
  O  O316  1  -0.00239954  0.11233525  0.51507481  1
  O  O317  1  0.01174041  0.64569455  0.01716105  1
  O  O318  1  0.00961324  0.62058641  0.49997686  1
  O  O319  1  0.49536138  0.11778401  0.00973635  1
  O  O320  1  0.50949796  0.11458581  0.49950415  1
  O  O321  1  0.50342830  0.61740319  0.00531483  1
  O  O322  1  0.50630369  0.61636677  0.50518010  1
  O  O323  1  0.50976151  0.38484435  0.49375766  1
  O  O324  1  0.49312804  0.38738116  1.00069557  1
  O  O325  1  0.50299483  0.88734067  0.48927714  1
  O  O326  1  0.48829019  0.87606489  0.99486923  1
  O  O327  1  0.98823469  0.38347875  0.50073915  1
  O  O328  1  0.99343333  0.36999824  1.02522876  1
  O  O329  1  0.99093479  0.88773253  0.50753181  1
  O  O330  1  0.99738910  0.87661077  0.99347197  1
  O  O331  1  0.49371046  0.49299849  0.38156561  1
  O  O332  1  0.50569752  0.50521951  0.88811204  1
  O  O333  1  0.49535594  0.99368551  0.37763769  1
  O  O334  1  0.49298230  0.99255515  0.88196194  1
  O  O335  1  0.99239468  0.50793509  0.38587072  1
  O  O336  1  0.99038653  0.52084816  0.87831015  1
  O  O337  1  0.98737689  1.00476906  0.38715644  1
  O  O338  1  0.99554636  0.98880077  0.87932464  1
  O  O339  1  0.00943960  0.00337120  0.12003200  1
  O  O340  1  0.00487427  0.00462974  0.62097733  1
  O  O341  1  0.00219571  0.51809991  0.12494773  1
  O  O342  1  0.00480048  0.50599851  0.60923202  1
  O  O343  1  0.50416816  0.00457013  0.12218035  1
  O  O344  1  0.49794845  -0.00785920  0.61281501  1
  O  O345  1  0.50875864  0.50706018  0.11909603  1
  O  O346  1  0.49236192  0.50677876  0.61566672  1
  O  O347  1  0.24727376  0.38372583  0.25124073  1
  O  O348  1  0.24327467  0.38261216  0.75215185  1
  O  O349  1  0.24582929  0.88895524  0.25476610  1
  O  O350  1  0.24661971  0.87653227  0.73700136  1
  O  O351  1  0.73713965  0.37865094  0.24339254  1
  O  O352  1  0.75260318  0.39129022  0.74099605  1
  O  O353  1  0.75419576  0.87731530  0.23568697  1
  O  O354  1  0.75389832  0.88141740  0.73910411  1
  O  O355  1  0.25483528  0.11599618  0.26283728  1
  O  O356  1  0.24073324  0.12356699  0.76401254  1
  O  O357  1  0.25135129  0.61919639  0.25910284  1
  O  O358  1  0.26624671  0.63000127  0.74841232  1
  O  O359  1  0.74161547  0.11866362  0.25461532  1
  O  O360  1  0.75324879  0.11356402  0.74676576  1
  O  O361  1  0.75816974  0.62312963  0.25310336  1
  O  O362  1  0.75232032  0.61589301  0.75279585  1
  O  O363  1  0.37149634  0.11642351  0.37146212  1
  O  O364  1  0.36225333  0.11327710  0.88474037  1
  O  O365  1  0.37122639  0.61475776  0.37327593  1
  O  O366  1  0.38119724  0.62865074  0.85946447  1
  O  O367  1  0.86815667  0.11093196  0.38228939  1
  O  O368  1  0.86916493  0.11589695  0.85851336  1
  O  O369  1  0.87009767  0.61728386  0.36837525  1
  O  O370  1  0.86056726  0.64044190  0.85594656  1
  O  O371  1  0.13735259  0.37763528  0.13893904  1
  O  O372  1  0.12366139  0.37239743  0.63789822  1
  O  O373  1  0.12334191  0.88658259  0.13609491  1
  O  O374  1  0.13317509  0.88119477  0.63031059  1
  O  O375  1  0.62544452  0.38337044  0.13476249  1
  O  O376  1  0.62761758  0.37368257  0.64241550  1
  O  O377  1  0.63375662  0.88233251  0.11928590  1
  O  O378  1  0.63774428  0.86407555  0.61878601  1
  O  O379  1  0.12800777  0.26222011  0.25217898  1
  O  O380  1  0.12663020  0.26333445  0.75728275  1
  O  O381  1  0.12165715  0.75857008  0.25472794  1
  O  O382  1  0.12383586  0.75730244  0.75470715  1
  O  O383  1  0.61010273  0.25992835  0.24809221  1
  O  O384  1  0.60665009  0.25544220  0.74396990  1
  O  O385  1  0.61568973  0.74364488  0.26297904  1
  O  O386  1  0.61151319  0.74217631  0.75408566  1
  O  O387  1  0.38591292  0.24449596  0.25198285  1
  O  O388  1  0.38891219  0.25123867  0.74400477  1
  O  O389  1  0.38996366  0.74756400  0.25588602  1
  O  O390  1  0.38515650  0.74043206  0.74190148  1
  O  O391  1  0.87760637  0.25679077  0.24035570  1
  O  O392  1  0.86738869  0.24041678  0.74331895  1
  O  O393  1  0.88398702  0.74713967  0.24543950  1
  O  O394  1  0.87952890  0.74671519  0.73980429  1
  O  O395  1  0.38602900  0.50529025  0.49191214  1
  O  O396  1  0.38805996  0.49206907  0.99901412  1
  O  O397  1  0.39108763  1.00775859  0.49369991  1
  O  O398  1  0.37810028  0.98801207  0.99386177  1
  O  O399  1  0.88174213  0.49500188  0.49393686  1
  O  O400  1  0.88569783  0.51945096  0.98510983  1
  O  O401  1  0.87881048  0.99268528  0.49580382  1
  O  O402  1  0.87976977  0.99212490  0.99111485  1
  O  O403  1  0.12393038  -0.00009810  0.00851827  1
  O  O404  1  0.11526087  0.00077120  0.50802498  1
  O  O405  1  0.12453989  0.50206041  0.00021702  1
  O  O406  1  0.11991084  0.50737956  0.49832192  1
  O  O407  1  0.61383102  0.00078540  0.01041006  1
  O  O408  1  0.61162457  0.00491799  0.49956884  1
  O  O409  1  0.61460058  0.50155673  0.00379598  1
  O  O410  1  0.61764736  0.51197285  0.49339919  1
  O  O411  1  0.37400921  0.37507886  0.11308967  1
  O  O412  1  0.36722669  0.35389761  0.62987001  1
  O  O413  1  0.38031464  0.87920615  0.11213411  1
  O  O414  1  0.36819746  0.86435336  0.62962693  1
  O  O415  1  0.85305967  0.38288631  0.12669121  1
  O  O416  1  0.87898340  0.36535019  0.61687051  1
  O  O417  1  0.86958080  0.87003920  0.11963074  1
  O  O418  1  0.86947724  0.86458565  0.61637893  1
  O  O419  1  0.13807423  0.12370049  0.38071721  1
  O  O420  1  0.12902648  0.12917389  0.88325614  1
  O  O421  1  0.13233872  0.63166981  0.38403638  1
  O  O422  1  0.12193824  0.64270266  0.87316160  1
  O  O423  1  0.62967418  0.11896399  0.39541879  1
  O  O424  1  0.62569445  0.12972974  0.87906257  1
  O  O425  1  0.63008007  0.62999487  0.38024437  1
  O  O426  1  0.63260108  0.62906001  0.87697575  1
