# generated using pymatgen
data_V85Zn86O256
_symmetry_space_group_name_H-M   'P 1'
_cell_length_a   16.93857234
_cell_length_b   16.95748851
_cell_length_c   16.94466533
_cell_angle_alpha   90.00580087
_cell_angle_beta   90.04939899
_cell_angle_gamma   89.92918025
_symmetry_Int_Tables_number   1
_chemical_formula_structural   V85Zn86O256
_chemical_formula_sum   'V85 Zn86 O256'
_cell_volume   4867.10633756
_cell_formula_units_Z   1
loop_
 _symmetry_equiv_pos_site_id
 _symmetry_equiv_pos_as_xyz
  1  'x, y, z'
loop_
 _atom_site_type_symbol
 _atom_site_label
 _atom_site_symmetry_multiplicity
 _atom_site_fract_x
 _atom_site_fract_y
 _atom_site_fract_z
 _atom_site_occupancy
  V  V0  1  0.37469969  0.12467239  0.74700579  1
  V  V1  1  0.75677374  0.36702342  0.62439796  1
  V  V2  1  0.63011082  0.87560560  0.74628625  1
  V  V3  1  0.76324259  0.24572662  0.49957696  1
  V  V4  1  0.37567597  0.62044656  0.76116781  1
  V  V5  1  0.49847029  0.12778629  0.12536231  1
  V  V6  1  0.87855499  0.62418127  0.24872196  1
  V  V7  1  0.37382272  0.25770785  0.12248157  1
  V  V8  1  0.36930673  0.75444917  0.13146265  1
  V  V9  1  0.49749757  0.49684400  0.49941241  1
  V  V10  1  0.88147917  0.62171655  0.73797834  1
  V  V11  1  0.49874981  0.87524655  0.87686348  1
  V  V12  1  0.37392943  0.37532834  0.49678859  1
  V  V13  1  0.24835832  0.00064491  0.74644960  1
  V  V14  1  0.12110301  0.62539954  0.50581206  1
  V  V15  1  0.39073477  0.87780434  0.49467265  1
  V  V16  1  0.75814129  0.87288428  0.11935898  1
  V  V17  1  0.62613710  0.36453903  0.75594244  1
  V  V18  1  0.38736650  0.00239112  0.37719454  1
  V  V19  1  0.25243920  0.87677139  0.62158213  1
  V  V20  1  0.75134205  0.76321851  0.50759417  1
  V  V21  1  0.49788211  0.62072925  0.62735264  1
  V  V22  1  0.24958099  -0.00084740  0.25301316  1
  V  V23  1  0.63298419  0.49417665  0.13236908  1
  V  V24  1  0.12539517  0.86968554  0.75113730  1
  V  V25  1  -0.00485697  0.50499917  0.50047311  1
  V  V26  1  0.75562069  -0.00168708  0.25733422  1
  V  V27  1  0.62298468  0.12210093  0.49656948  1
  V  V28  1  0.87330884  0.37396602  0.00195562  1
  V  V29  1  0.24022607  0.24049676  0.48992622  1
  V  V30  1  0.87756797  0.76663970  0.62653476  1
  V  V31  1  0.49880203  0.62811901  0.13413207  1
  V  V32  1  0.23822482  0.62497414  0.87437529  1
  V  V33  1  0.00166889  0.86470624  0.87409948  1
  V  V34  1  0.25269468  0.49584447  0.75502450  1
  V  V35  1  0.49988326  0.74818553  0.75291894  1
  V  V36  1  0.62396500  0.12588936  -0.00361533  1
  V  V37  1  0.63066411  0.62487879  0.00265638  1
  V  V38  1  0.87708345  0.49811143  0.87478143  1
  V  V39  1  0.12671037  0.87510056  0.24327061  1
  V  V40  1  0.88139252  0.24477283  0.12793420  1
  V  V41  1  0.37313011  0.00146174  0.87474388  1
  V  V42  1  0.62940758  0.25165684  0.36763834  1
  V  V43  1  0.62418110  0.49399700  0.62579399  1
  V  V44  1  0.36745025  0.13062514  0.25419502  1
  V  V45  1  0.24666248  0.75732562  -0.00430184  1
  V  V46  1  0.74486388  0.24805583  0.00031996  1
  V  V47  1  -0.02407466  -0.00610757  0.50311709  1
  V  V48  1  0.49598245  0.37121421  0.87450636  1
  V  V49  1  0.12580132  0.12350801  0.00014351  1
  V  V50  1  0.24938926  0.25383165  -0.00380207  1
  V  V51  1  0.74898509  0.49816340  0.74838054  1
  V  V52  1  0.50095265  0.11650472  0.61937130  1
  V  V53  1  0.12228384  0.62202584  0.01759461  1
  V  V54  1  0.00010906  0.37660569  0.36563032  1
  V  V55  1  0.12440616  0.00105838  0.60976897  1
  V  V56  1  0.37731624  0.24986471  0.62242115  1
  V  V57  1  0.37594411  0.74909532  0.62498078  1
  V  V58  1  -0.01835969  0.87643401  0.38013471  1
  V  V59  1  0.75082812  0.62419829  0.87433289  1
  V  V60  1  0.25243319  0.75187978  0.49894332  1
  V  V61  1  0.37483424  0.50344682  0.36515884  1
  V  V62  1  0.87594986  0.37731417  0.49182621  1
  V  V63  1  -0.00056307  -0.00620762  0.00098268  1
  V  V64  1  0.62629009  0.62415767  0.50128321  1
  V  V65  1  0.11532028  0.37183788  0.74817280  1
  V  V66  1  0.62531234  -0.00124638  0.12628829  1
  V  V67  1  0.49575418  0.50185685  -0.00429338  1
  V  V68  1  0.88448507  0.12087935  0.25596469  1
  V  V69  1  -0.00025045  0.13616323  0.62550818  1
  V  V70  1  0.50397337  0.37519315  0.36446736  1
  V  V71  1  0.87965441  0.13633053  0.74932462  1
  V  V72  1  0.87639530  -0.00588001  0.87724205  1
  V  V73  1  0.75172326  -0.00201666  0.74204325  1
  V  V74  1  0.12136914  0.37538453  0.23880465  1
  V  V75  1  0.25191690  0.62588598  0.37121587  1
  V  V76  1  0.24323577  0.50513295  0.24120000  1
  V  V77  1  0.75723152  0.62181349  0.37983747  1
  V  V78  1  0.11445700  0.24823976  0.87037666  1
  V  V79  1  0.61785757  0.87033920  0.25479144  1
  V  V80  1  0.62512165  0.74935383  0.87648103  1
  V  V81  1  0.74694301  0.12601291  0.87389037  1
  V  V82  1  0.24707424  0.37577245  0.62116007  1
  V  V83  1  0.12413853  0.75696084  0.37745034  1
  V  V84  1  0.49738413  0.00110037  -0.00007921  1
  Zn  Zn85  1  0.01143000  0.49720354  0.01204606  1
  Zn  Zn86  1  0.49016519  0.75135167  0.25988343  1
  Zn  Zn87  1  0.13287869  -0.00272032  0.12302400  1
  Zn  Zn88  1  0.12533068  0.23997551  0.36230516  1
  Zn  Zn89  1  0.36943933  0.38415161  -0.00881188  1
  Zn  Zn90  1  0.88976877  0.74672627  0.11063645  1
  Zn  Zn91  1  0.00270871  0.12113387  0.12571515  1
  Zn  Zn92  1  0.00885097  0.73975869  0.74527550  1
  Zn  Zn93  1  -0.00318527  0.74776780  0.24970579  1
  Zn  Zn94  1  0.11978664  0.50437521  0.62702000  1
  Zn  Zn95  1  0.62527900  -0.00684014  0.61610121  1
  Zn  Zn96  1  0.74935094  0.48686004  0.26825755  1
  Zn  Zn97  1  0.75675334  0.75711643  -0.00391310  1
  Zn  Zn98  1  0.24960866  0.12704606  0.87177132  1
  Zn  Zn99  1  0.36987483  0.87843204  0.00415324  1
  Zn  Zn100  1  0.50363368  0.25365236  0.24616547  1
  Zn  Zn101  1  0.24221611  0.38551727  0.11760629  1
  Zn  Zn102  1  0.74523206  0.36530497  0.13912597  1
  Zn  Zn103  1  0.61833677  0.75486572  0.38238009  1
  Zn  Zn104  1  -0.00495408  0.37101676  0.87164875  1
  Zn  Zn105  1  0.50526949  0.24545450  0.75365680  1
  Zn  Zn106  1  0.75719671  0.12099566  0.37715758  1
  Zn  Zn107  1  0.18831257  0.19116076  0.18358454  1
  Zn  Zn108  1  0.18476115  0.18766844  0.68239351  1
  Zn  Zn109  1  0.18746049  0.69265206  0.18925829  1
  Zn  Zn110  1  0.19115299  0.68742073  0.68640163  1
  Zn  Zn111  1  0.69251084  0.18364534  0.18830266  1
  Zn  Zn112  1  0.68955590  0.18480642  0.68419439  1
  Zn  Zn113  1  0.69290921  0.68691414  0.18779123  1
  Zn  Zn114  1  0.69033466  0.68736490  0.68663164  1
  Zn  Zn115  1  0.30754153  0.31734834  0.30942858  1
  Zn  Zn116  1  0.31235637  0.31239638  0.81141968  1
  Zn  Zn117  1  0.31272846  0.81828529  0.31419834  1
  Zn  Zn118  1  0.31197674  0.81224901  0.81455304  1
  Zn  Zn119  1  0.81670535  0.30772134  0.31253463  1
  Zn  Zn120  1  0.80914482  0.30976142  0.81542287  1
  Zn  Zn121  1  0.80324730  0.80650913  0.31210209  1
  Zn  Zn122  1  0.81503583  0.81070953  0.81218633  1
  Zn  Zn123  1  0.18259288  0.43753225  0.43233125  1
  Zn  Zn124  1  0.18451381  0.43948474  0.93372044  1
  Zn  Zn125  1  0.19652527  0.94055735  0.43168868  1
  Zn  Zn126  1  0.18492799  0.93798654  0.93280919  1
  Zn  Zn127  1  0.68625963  0.43471920  0.43917496  1
  Zn  Zn128  1  0.68640083  0.43748013  0.93940329  1
  Zn  Zn129  1  0.68667529  0.93997549  0.43498320  1
  Zn  Zn130  1  0.68652631  0.94031026  0.93539896  1
  Zn  Zn131  1  0.30979776  0.06604345  0.06595287  1
  Zn  Zn132  1  0.31305088  0.06281034  0.55635444  1
  Zn  Zn133  1  0.31551998  0.57146776  0.06154966  1
  Zn  Zn134  1  0.31051410  0.56177336  0.56154545  1
  Zn  Zn135  1  0.81431748  0.05870709  0.06369623  1
  Zn  Zn136  1  0.81391020  0.06715652  0.56642964  1
  Zn  Zn137  1  0.83871260  0.54911864  0.07745873  1
  Zn  Zn138  1  0.81167853  0.55878325  0.56070783  1
  Zn  Zn139  1  0.43800019  0.44193514  0.18349165  1
  Zn  Zn140  1  0.43644044  0.43485445  0.69060764  1
  Zn  Zn141  1  0.43456068  0.93842435  0.18761516  1
  Zn  Zn142  1  0.43914421  0.93628163  0.68740100  1
  Zn  Zn143  1  0.92861823  0.44324314  0.18911245  1
  Zn  Zn144  1  0.93660068  0.43740201  0.68070864  1
  Zn  Zn145  1  0.94255365  0.93474614  0.18859940  1
  Zn  Zn146  1  0.93952133  0.94132200  0.69309910  1
  Zn  Zn147  1  0.06402266  0.05671491  0.31939832  1
  Zn  Zn148  1  0.06302069  0.05895348  0.80944178  1
  Zn  Zn149  1  0.06164736  0.56168095  0.31684677  1
  Zn  Zn150  1  0.06012499  0.55683910  0.81423188  1
  Zn  Zn151  1  0.56267751  0.06652002  0.30901827  1
  Zn  Zn152  1  0.56250030  0.06255775  0.80957466  1
  Zn  Zn153  1  0.56530345  0.56641642  0.31424103  1
  Zn  Zn154  1  0.56397917  0.55679046  0.81491786  1
  Zn  Zn155  1  0.43816092  0.18894054  0.43585223  1
  Zn  Zn156  1  0.43703771  0.19095634  0.93534747  1
  Zn  Zn157  1  0.43880384  0.68729437  0.43590539  1
  Zn  Zn158  1  0.43574969  0.68709576  0.94337542  1
  Zn  Zn159  1  0.97268226  0.17064164  0.42089792  1
  Zn  Zn160  1  0.93529073  0.18222990  0.93972026  1
  Zn  Zn161  1  0.93579091  0.69237963  0.44226928  1
  Zn  Zn162  1  0.93773272  0.68483709  0.93652340  1
  Zn  Zn163  1  0.05926903  0.31241112  0.06079062  1
  Zn  Zn164  1  0.06153757  0.31638803  0.55780728  1
  Zn  Zn165  1  0.06347964  0.80971119  0.06232641  1
  Zn  Zn166  1  0.06051827  0.81421888  0.56362872  1
  Zn  Zn167  1  0.56194976  0.31477564  0.05909643  1
  Zn  Zn168  1  0.56536302  0.30691194  0.55822947  1
  Zn  Zn169  1  0.56231927  0.81235716  0.06494282  1
  Zn  Zn170  1  0.56358553  0.80918158  0.56608038  1
  O  O171  1  0.12388273  0.12578888  0.11079831  1
  O  O172  1  0.10947875  0.11437987  0.63051097  1
  O  O173  1  0.12637294  0.62565963  0.11659887  1
  O  O174  1  0.13267808  0.62459308  0.61014545  1
  O  O175  1  0.62118143  0.11419011  0.12066777  1
  O  O176  1  0.61643341  0.12501845  0.61674420  1
  O  O177  1  0.62151570  0.62053848  0.11824019  1
  O  O178  1  0.62126228  0.61687669  0.61817602  1
  O  O179  1  0.38123060  0.38254328  0.37872640  1
  O  O180  1  0.38827718  0.37460225  0.87227268  1
  O  O181  1  0.37440805  0.88896416  0.38218736  1
  O  O182  1  0.38136062  0.88342520  0.87684772  1
  O  O183  1  0.88249896  0.37660707  0.38415307  1
  O  O184  1  0.87482577  0.37923851  0.87888218  1
  O  O185  1  0.88389357  0.86863418  0.37289049  1
  O  O186  1  0.88373779  0.88677388  0.86746518  1
  O  O187  1  0.26211268  0.00488707  0.36219459  1
  O  O188  1  0.25798773  0.00177797  0.86641343  1
  O  O189  1  0.25619845  0.50726957  0.36820468  1
  O  O190  1  0.24920743  0.50686510  0.86238200  1
  O  O191  1  0.75088625  0.00038207  0.36135330  1
  O  O192  1  0.75765594  0.00786666  0.87030113  1
  O  O193  1  0.74306890  0.51729603  0.38340645  1
  O  O194  1  0.75171776  0.50383548  0.86444213  1
  O  O195  1  0.26041530  0.50464512  0.13824751  1
  O  O196  1  0.24924013  0.48805952  0.63124394  1
  O  O197  1  0.25116713  1.00581748  0.14346990  1
  O  O198  1  0.24450767  0.99714807  0.62675237  1
  O  O199  1  0.73639299  0.49880315  0.12122695  1
  O  O200  1  0.74382894  0.48922012  0.62924255  1
  O  O201  1  0.74221725  0.99211073  0.13109853  1
  O  O202  1  0.74666750  1.00529334  0.63926881  1
  O  O203  1  0.00392369  0.38849633  0.25762715  1
  O  O204  1  0.01174574  0.37862073  0.74784144  1
  O  O205  1  0.00925612  0.88180730  0.26995031  1
  O  O206  1  0.00997804  0.87445165  0.75597572  1
  O  O207  1  0.49725283  0.37610428  0.26130328  1
  O  O208  1  0.50869501  0.37332516  0.75686120  1
  O  O209  1  0.51534777  0.87495888  0.24265987  1
  O  O210  1  0.50500108  0.86928100  0.75924626  1
  O  O211  1  0.48813263  0.12848929  0.24093648  1
  O  O212  1  0.49290871  0.12748553  0.74190767  1
  O  O213  1  0.50499905  0.62792840  0.23730981  1
  O  O214  1  0.49321497  0.62542569  0.74779116  1
  O  O215  1  0.98690103  0.11186420  0.24365000  1
  O  O216  1  0.99307739  0.11830849  0.73700043  1
  O  O217  1  0.98279149  0.62476394  0.25959805  1
  O  O218  1  0.98852161  0.62460516  0.75476811  1
  O  O219  1  0.36585685  0.25310216  0.00483692  1
  O  O220  1  0.36653020  0.25556903  0.50679991  1
  O  O221  1  0.36304069  0.75218122  0.00662626  1
  O  O222  1  0.37131819  0.75717355  0.50482892  1
  O  O223  1  0.86481088  0.25277178  0.00347984  1
  O  O224  1  0.86487158  0.25679488  0.49373988  1
  O  O225  1  0.86845138  0.74345440  -0.00066409  1
  O  O226  1  0.86251096  0.74882885  0.51454184  1
  O  O227  1  0.13963320  0.25814715  0.49735313  1
  O  O228  1  0.13042959  0.24503819  0.99203661  1
  O  O229  1  0.13082921  0.74607274  0.49639810  1
  O  O230  1  0.14060118  0.73999785  1.00540918  1
  O  O231  1  0.63447787  0.24010090  0.49024237  1
  O  O232  1  0.63685243  0.24243240  1.00614664  1
  O  O233  1  0.63507856  0.74066074  0.50762534  1
  O  O234  1  0.62747307  0.74251942  0.99383924  1
  O  O235  1  0.49322701  0.24698216  0.12446387  1
  O  O236  1  0.49053929  0.24339531  0.62540727  1
  O  O237  1  0.49081915  0.74383689  0.12646440  1
  O  O238  1  0.49548888  0.74025707  0.63387645  1
  O  O239  1  0.98495767  0.24315816  0.11540682  1
  O  O240  1  1.00488706  0.23418419  0.61619707  1
  O  O241  1  0.99678487  0.76640887  0.13812073  1
  O  O242  1  0.98297463  0.75317555  0.62511568  1
  O  O243  1  -0.00318263  0.27529344  0.37587543  1
  O  O244  1  0.01124318  0.24848450  0.87874768  1
  O  O245  1  0.00670341  0.76276433  0.37828950  1
  O  O246  1  -0.00591918  0.76254370  0.86732684  1
  O  O247  1  0.50727044  0.25977395  0.37312689  1
  O  O248  1  0.50072765  0.26290439  0.87249224  1
  O  O249  1  0.50581157  0.74555392  0.37146978  1
  O  O250  1  0.50393822  0.75446838  0.87194721  1
  O  O251  1  0.25008585  0.14254086  0.50372841  1
  O  O252  1  0.24262397  0.13409173  0.99628272  1
  O  O253  1  0.24380701  0.62980014  0.49018267  1
  O  O254  1  0.24182529  0.63045341  0.99187976  1
  O  O255  1  0.74717286  0.13141891  0.49859470  1
  O  O256  1  0.74565168  0.12731589  0.99331012  1
  O  O257  1  0.74360140  0.63013820  0.49682160  1
  O  O258  1  0.73710720  0.62113476  0.99192586  1
  O  O259  1  0.25080459  0.37063274  -0.00052262  1
  O  O260  1  0.25499770  0.37328041  0.50556274  1
  O  O261  1  0.24793906  0.86094305  -0.00607988  1
  O  O262  1  0.25962195  0.86993196  0.50452927  1
  O  O263  1  0.75553928  0.36206455  -0.00171785  1
  O  O264  1  0.75679199  0.36888558  0.50525663  1
  O  O265  1  0.74336561  0.87927476  0.01516367  1
  O  O266  1  0.74044722  0.86130029  0.50109103  1
  O  O267  1  0.13436420  0.49475881  0.25515608  1
  O  O268  1  0.13313969  0.49115444  0.74715357  1
  O  O269  1  0.13241601  0.99371445  0.25340930  1
  O  O270  1  0.13250293  0.99077617  0.74028878  1
  O  O271  1  0.62916120  0.50715051  0.23562960  1
  O  O272  1  0.62944133  0.48962592  0.74267597  1
  O  O273  1  0.63139539  0.99422608  0.24311179  1
  O  O274  1  0.63377590  0.99156567  0.75103072  1
  O  O275  1  0.37128611  0.00699132  0.25770131  1
  O  O276  1  0.36841410  0.00440767  0.75340831  1
  O  O277  1  0.36838714  0.49697553  0.26095225  1
  O  O278  1  0.36518526  0.50890688  0.74386919  1
  O  O279  1  0.86715335  0.01003462  0.24190545  1
  O  O280  1  0.86780272  0.00717637  0.75786398  1
  O  O281  1  0.86250513  0.51902178  0.25389357  1
  O  O282  1  0.87034296  0.50310351  0.75514439  1
  O  O283  1  0.11384004  0.37425301  0.36297675  1
  O  O284  1  0.12118141  0.36684286  0.86611563  1
  O  O285  1  0.12536012  0.86488317  0.37484866  1
  O  O286  1  0.11631337  0.87928762  0.86170819  1
  O  O287  1  0.61510111  0.36545917  0.38241541  1
  O  O288  1  0.61733337  0.37975708  0.86418548  1
  O  O289  1  0.62911265  0.87538154  0.35831910  1
  O  O290  1  0.61824319  0.87060198  0.86757642  1
  O  O291  1  0.37855911  0.13944293  0.12986307  1
  O  O292  1  0.38167697  0.13083507  0.62513926  1
  O  O293  1  0.38726969  0.64100452  0.11925557  1
  O  O294  1  0.37794250  0.62963527  0.63284558  1
  O  O295  1  0.87609349  0.12909349  0.13130995  1
  O  O296  1  0.88805595  0.12076020  0.63676971  1
  O  O297  1  0.85137119  0.63890302  0.14779727  1
  O  O298  1  0.86838372  0.62538904  0.63621344  1
  O  O299  1  0.25598971  0.25557699  0.11080844  1
  O  O300  1  0.25524771  0.26015181  0.61637072  1
  O  O301  1  0.26260929  0.74336688  0.11417540  1
  O  O302  1  0.25881560  0.75539575  0.61865285  1
  O  O303  1  0.75796454  0.24615392  0.11565405  1
  O  O304  1  0.74614756  0.25710769  0.61393871  1
  O  O305  1  0.74464098  0.76800011  0.12266921  1
  O  O306  1  0.75875614  0.74715099  0.61538298  1
  O  O307  1  0.24739562  0.25418960  0.38580150  1
  O  O308  1  0.24371425  0.24980111  0.88412378  1
  O  O309  1  0.24596342  0.74437698  0.38007707  1
  O  O310  1  0.25489251  0.74145089  0.88769115  1
  O  O311  1  0.74421873  0.24556388  0.38290297  1
  O  O312  1  0.75295744  0.23366001  0.88325285  1
  O  O313  1  0.74302031  0.74132567  0.39225292  1
  O  O314  1  0.74235651  0.74246726  0.87372035  1
  O  O315  1  0.00893286  0.11180313  -0.00233195  1
  O  O316  1  -0.01399899  0.10394590  0.51733318  1
  O  O317  1  0.02278909  0.62837906  -0.00894685  1
  O  O318  1  0.00817855  0.61841829  0.49295895  1
  O  O319  1  0.50386710  0.12117739  0.00463434  1
  O  O320  1  0.50942303  0.13209805  0.50801818  1
  O  O321  1  0.51111419  0.61959362  0.00454432  1
  O  O322  1  0.50688568  0.61741661  0.50813804  1
  O  O323  1  0.49357737  0.37931419  0.49304871  1
  O  O324  1  0.49912286  0.38326425  0.99025496  1
  O  O325  1  0.48987014  0.87306288  0.50679746  1
  O  O326  1  0.50024417  0.88266085  0.99197724  1
  O  O327  1  0.99271291  0.38215392  0.49260848  1
  O  O328  1  0.98437858  0.37573462  0.99626919  1
  O  O329  1  0.99933366  0.88251220  0.49137284  1
  O  O330  1  1.01353616  0.88613777  0.98780519  1
  O  O331  1  0.49425134  0.49573233  0.37798076  1
  O  O332  1  0.50426249  0.49027958  0.88558315  1
  O  O333  1  0.48648548  1.00218600  0.36846272  1
  O  O334  1  0.49198985  0.99578663  0.87855492  1
  O  O335  1  1.00436491  0.48873220  0.38852895  1
  O  O336  1  0.98755206  0.49566954  0.88215739  1
  O  O337  1  0.99601905  0.98698834  0.39366884  1
  O  O338  1  0.99314454  0.99284420  0.87812363  1
  O  O339  1  0.00663872  -0.00240142  0.11375433  1
  O  O340  1  0.00656753  -0.00565432  0.61379064  1
  O  O341  1  -0.05269997  0.50982055  0.10245058  1
  O  O342  1  0.00398796  0.49494029  0.60781441  1
  O  O343  1  0.50545272  0.00602420  0.12009148  1
  O  O344  1  0.50229811  0.01283959  0.62878910  1
  O  O345  1  0.51010507  0.50866327  0.11961515  1
  O  O346  1  0.50354625  0.50221006  0.62106805  1
  O  O347  1  0.23955883  0.38740804  0.24475784  1
  O  O348  1  0.24501228  0.38121436  0.74246082  1
  O  O349  1  0.23910734  0.88522817  0.25674646  1
  O  O350  1  0.24632112  0.88036772  0.74308315  1
  O  O351  1  0.75253209  0.37560994  0.25183274  1
  O  O352  1  0.74475778  0.37627716  0.74279619  1
  O  O353  1  0.74130514  0.88113300  0.24112172  1
  O  O354  1  0.74076004  0.88458007  0.75926744  1
  O  O355  1  0.26242590  0.12414680  0.24687286  1
  O  O356  1  0.25654254  0.11841908  0.74654943  1
  O  O357  1  0.24302990  0.62122977  0.26382147  1
  O  O358  1  0.25640299  0.61842338  0.75503645  1
  O  O359  1  0.75985272  0.11347304  0.25123735  1
  O  O360  1  0.75521326  0.11893328  0.75695953  1
  O  O361  1  0.74774917  0.62889848  0.27210989  1
  O  O362  1  0.75480900  0.61767490  0.75605289  1
  O  O363  1  0.37937078  0.11646591  0.36720152  1
  O  O364  1  0.37415734  0.11908120  0.86610677  1
  O  O365  1  0.36442365  0.61459341  0.38230942  1
  O  O366  1  0.36834359  0.62867313  0.86434695  1
  O  O367  1  0.87897281  0.12879934  0.35950448  1
  O  O368  1  0.86964406  0.11421876  0.86902571  1
  O  O369  1  0.86056303  0.62972666  0.37568825  1
  O  O370  1  0.86801954  0.61472690  0.86693355  1
  O  O371  1  0.12005482  0.37890724  0.13267911  1
  O  O372  1  0.13290110  0.37486337  0.63064503  1
  O  O373  1  0.12607318  0.87595429  0.14069809  1
  O  O374  1  0.13271693  0.88250649  0.62813961  1
  O  O375  1  0.62510216  0.39082484  0.12073576  1
  O  O376  1  0.63342975  0.37674476  0.62881082  1
  O  O377  1  0.62947806  0.88547014  0.13174863  1
  O  O378  1  0.61808682  0.87656126  0.64154978  1
  O  O379  1  0.13159582  0.26616468  0.24822686  1
  O  O380  1  0.13396953  0.25897392  0.75901023  1
  O  O381  1  0.12376185  0.75788552  0.26109378  1
  O  O382  1  0.12564469  0.76400489  0.73970228  1
  O  O383  1  0.62423404  0.24163833  0.26315564  1
  O  O384  1  0.62593007  0.26100284  0.74503184  1
  O  O385  1  0.62636241  0.76539157  0.24791747  1
  O  O386  1  0.61994759  0.75489562  0.75540486  1
  O  O387  1  0.37415412  0.24674156  0.24233972  1
  O  O388  1  0.37254142  0.24420024  0.73551530  1
  O  O389  1  0.37132634  0.75449842  0.23652836  1
  O  O390  1  0.38035893  0.74208160  0.74600426  1
  O  O391  1  0.87142707  0.23200269  0.24006684  1
  O  O392  1  0.87245459  0.23553165  0.75573935  1
  O  O393  1  0.87425505  0.73633674  0.25860060  1
  O  O394  1  0.87261687  0.74036719  0.73737647  1
  O  O395  1  0.37885032  0.49439810  0.49151895  1
  O  O396  1  0.39096441  0.50211184  1.00680638  1
  O  O397  1  0.37306396  0.99461455  0.48580816  1
  O  O398  1  0.37814106  1.00061058  0.99461192  1
  O  O399  1  0.88185029  0.49049094  0.50205352  1
  O  O400  1  0.85300245  0.48597835  0.98093435  1
  O  O401  1  0.87773663  0.98934883  0.50836768  1
  O  O402  1  0.88600152  1.00288084  0.99007646  1
  O  O403  1  0.12287538  0.00836337  -0.00009717  1
  O  O404  1  0.12638887  -0.00499593  0.50861571  1
  O  O405  1  0.12746034  0.51531324  -0.00064868  1
  O  O406  1  0.11996135  0.51004782  0.49978725  1
  O  O407  1  0.61809396  0.00530542  0.00749112  1
  O  O408  1  0.63165767  0.01551245  0.50032850  1
  O  O409  1  0.61720311  0.50704364  0.00812290  1
  O  O410  1  0.61799417  0.50478542  0.50731798  1
  O  O411  1  0.37515023  0.36532257  0.12184781  1
  O  O412  1  0.36886979  0.36733612  0.61980187  1
  O  O413  1  0.38045446  0.85973515  0.12075318  1
  O  O414  1  0.37124966  0.87034472  0.61908339  1
  O  O415  1  0.86766672  0.36213956  0.11666812  1
  O  O416  1  0.86310632  0.37562392  0.61503217  1
  O  O417  1  0.85942200  0.87636739  0.13068504  1
  O  O418  1  0.87130610  0.86439573  0.63616497  1
  O  O419  1  0.08021278  0.14067458  0.38748875  1
  O  O420  1  0.12694678  0.13025583  0.88115012  1
  O  O421  1  0.13020516  0.63827089  0.38374029  1
  O  O422  1  0.13690687  0.62546320  0.87011538  1
  O  O423  1  0.62671246  0.13199426  0.38085301  1
  O  O424  1  0.63450032  0.11698887  0.88284433  1
  O  O425  1  0.63030857  0.62580632  0.39131621  1
  O  O426  1  0.62959138  0.62903009  0.88034850  1
