# generated using pymatgen
data_V85Zn86O256
_symmetry_space_group_name_H-M   'P 1'
_cell_length_a   16.91654190
_cell_length_b   16.92132325
_cell_length_c   16.91553505
_cell_angle_alpha   90.03631155
_cell_angle_beta   89.95279279
_cell_angle_gamma   90.10703693
_symmetry_Int_Tables_number   1
_chemical_formula_structural   V85Zn86O256
_chemical_formula_sum   'V85 Zn86 O256'
_cell_volume   4842.06547957
_cell_formula_units_Z   1
loop_
 _symmetry_equiv_pos_site_id
 _symmetry_equiv_pos_as_xyz
  1  'x, y, z'
loop_
 _atom_site_type_symbol
 _atom_site_label
 _atom_site_symmetry_multiplicity
 _atom_site_fract_x
 _atom_site_fract_y
 _atom_site_fract_z
 _atom_site_occupancy
  V  V0  1  -0.00489862  0.87332972  0.38345949  1
  V  V1  1  0.50312590  0.24470957  0.25074897  1
  V  V2  1  0.75322215  0.25118751  0.00018146  1
  V  V3  1  0.00093411  0.75260982  0.25024893  1
  V  V4  1  0.86959529  0.50654117  0.87715765  1
  V  V5  1  0.74935398  0.37184202  0.62166946  1
  V  V6  1  0.37723453  0.38442514  0.00157328  1
  V  V7  1  0.37627448  0.24912496  0.12449629  1
  V  V8  1  0.36727018  0.50319590  0.85841167  1
  V  V9  1  0.75887063  0.74392020  0.49523337  1
  V  V10  1  0.49687658  0.11545465  0.12229722  1
  V  V11  1  0.50030911  0.87165182  0.36990972  1
  V  V12  1  0.74614356  0.12754996  0.38630001  1
  V  V13  1  0.13192120  0.01078613  0.13009051  1
  V  V14  1  0.50194887  0.00404733  0.49531747  1
  V  V15  1  0.86897200  0.63129325  0.75139037  1
  V  V16  1  0.37742020  0.63397195  0.24970705  1
  V  V17  1  0.62425190  0.37599322  0.74892155  1
  V  V18  1  0.62545879  0.73864068  0.38209171  1
  V  V19  1  0.24139158  0.37319106  0.12913542  1
  V  V20  1  0.00210376  0.49960150  0.50822111  1
  V  V21  1  0.62472952  0.00026131  0.61860504  1
  V  V22  1  0.87568324  -0.00859484  0.87802321  1
  V  V23  1  0.01211169  0.37703098  0.36903387  1
  V  V24  1  0.50156391  0.87818942  0.88390908  1
  V  V25  1  0.75171514  0.74537680  -0.00845582  1
  V  V26  1  0.75038493  0.00063788  0.25020376  1
  V  V27  1  0.87364070  0.50103077  0.37584998  1
  V  V28  1  0.49647858  0.74270342  0.75148768  1
  V  V29  1  0.62216745  -0.00294795  0.12254494  1
  V  V30  1  0.12771652  0.75695593  0.86617150  1
  V  V31  1  0.62590310  0.50703687  0.61623498  1
  V  V32  1  0.24137289  0.49740814  0.25125014  1
  V  V33  1  0.24682768  0.38023254  0.62283165  1
  V  V34  1  0.87227667  0.37098655  0.49734529  1
  V  V35  1  0.37567071  0.49918882  0.37130774  1
  V  V36  1  0.12587583  0.23471569  0.37134231  1
  V  V37  1  0.37067861  -0.00000339  0.88123738  1
  V  V38  1  0.24424125  0.86674323  0.12510124  1
  V  V39  1  -0.00178795  0.25053241  0.74900406  1
  V  V40  1  0.87179424  0.25074855  0.62177432  1
  V  V41  1  0.88056630  0.76146423  0.62498746  1
  V  V42  1  0.62344706  0.87323789  0.74764937  1
  V  V43  1  0.25295051  0.88194834  0.63887777  1
  V  V44  1  0.74744781  0.00099906  0.74933833  1
  V  V45  1  0.37240394  0.87445837  0.50109556  1
  V  V46  1  0.12794150  0.62268786  0.50574472  1
  V  V47  1  0.50168446  0.62744251  0.12291203  1
  V  V48  1  0.37490424  0.74279748  0.62847121  1
  V  V49  1  0.36381149  0.11987879  0.25344549  1
  V  V50  1  0.75550234  0.37492582  0.12379632  1
  V  V51  1  0.62694678  0.24382994  0.39014007  1
  V  V52  1  0.62246027  0.25000162  0.87564382  1
  V  V53  1  0.13388584  0.63495253  0.00134890  1
  V  V54  1  0.88150137  0.24756509  0.12181618  1
  V  V55  1  -0.00637631  0.00080018  0.01066139  1
  V  V56  1  0.36769410  0.11667235  0.74780507  1
  V  V57  1  0.88028662  0.12610925  0.24798701  1
  V  V58  1  0.87236876  -0.00383987  0.38380490  1
  V  V59  1  0.00124751  0.62524494  0.12549533  1
  V  V60  1  0.00302803  0.12639937  0.61465037  1
  V  V61  1  0.50412580  0.12566566  0.62313933  1
  V  V62  1  0.87554967  0.75357588  0.11989331  1
  V  V63  1  0.49911650  0.38068235  0.87929519  1
  V  V64  1  0.61969570  0.12012982  -0.00162482  1
  V  V65  1  0.37631454  0.74932798  0.11357600  1
  V  V66  1  0.62642838  0.61922023  -0.00893516  1
  V  V67  1  0.25172963  0.24796679  -0.00360925  1
  V  V68  1  -0.00267654  0.49847205  0.00187339  1
  V  V69  1  0.37405867  0.25030123  0.62331159  1
  V  V70  1  0.12741359  0.75036309  0.37526027  1
  V  V71  1  0.74853831  0.50225648  0.25361618  1
  V  V72  1  0.75321416  0.87504803  0.11815017  1
  V  V73  1  0.00329563  0.62895338  0.63408904  1
  V  V74  1  0.50067932  0.37288182  0.37498491  1
  V  V75  1  -0.00950837  0.37403977  0.87846918  1
  V  V76  1  0.24251328  0.23884249  0.49719806  1
  V  V77  1  0.12459764  0.24973958  0.87356585  1
  V  V78  1  0.62299160  0.86608369  0.24849779  1
  V  V79  1  0.87349439  0.12479097  0.75136407  1
  V  V80  1  0.87109793  0.62708138  0.25531938  1
  V  V81  1  0.12608985  0.38171931  0.74654558  1
  V  V82  1  0.35836480  0.00010992  0.37093124  1
  V  V83  1  0.61748186  0.49675796  0.12247566  1
  V  V84  1  0.13132038  0.00797256  0.62550031  1
  Zn  Zn85  1  0.11802396  0.88405461  0.75180594  1
  Zn  Zn86  1  0.24276528  0.11780249  0.86886819  1
  Zn  Zn87  1  0.74835800  0.50369903  0.75412771  1
  Zn  Zn88  1  0.75420119  0.87728550  0.61575001  1
  Zn  Zn89  1  0.13037959  0.88264013  0.25551511  1
  Zn  Zn90  1  0.37335454  0.37523342  0.49767662  1
  Zn  Zn91  1  0.00615184  0.25356998  0.24336269  1
  Zn  Zn92  1  0.50166681  0.62656675  0.62100008  1
  Zn  Zn93  1  0.62727778  0.37084240  0.25016411  1
  Zn  Zn94  1  0.37654722  0.87840957  0.00302866  1
  Zn  Zn95  1  -0.00450269  0.87089147  0.87702286  1
  Zn  Zn96  1  0.00199892  -0.00106966  0.50090224  1
  Zn  Zn97  1  0.25162703  0.75043583  0.49904057  1
  Zn  Zn98  1  0.74676801  0.12498204  0.87481519  1
  Zn  Zn99  1  0.11848460  0.12749254  0.00121656  1
  Zn  Zn100  1  0.25289448  0.62650387  0.86461970  1
  Zn  Zn101  1  0.49725220  0.24941944  0.75051699  1
  Zn  Zn102  1  0.62760600  0.74479003  0.87131354  1
  Zn  Zn103  1  0.25127716  0.62619701  0.37477931  1
  Zn  Zn104  1  0.50610246  0.50908607  0.49151984  1
  Zn  Zn105  1  0.19420301  0.54336547  0.69263312  1
  Zn  Zn106  1  0.12254702  0.49763579  0.12660645  1
  Zn  Zn107  1  0.18704901  0.18976836  0.18937263  1
  Zn  Zn108  1  0.18649437  0.19050835  0.68670913  1
  Zn  Zn109  1  0.18908855  0.68658083  0.18885365  1
  Zn  Zn110  1  0.19116941  0.70329799  0.69013908  1
  Zn  Zn111  1  0.68952225  0.18481635  0.18946423  1
  Zn  Zn112  1  0.68611553  0.18944233  0.68507666  1
  Zn  Zn113  1  0.68760138  0.68659042  0.18613550  1
  Zn  Zn114  1  0.69346238  0.69056856  0.68457056  1
  Zn  Zn115  1  0.31072847  0.30942791  0.31212147  1
  Zn  Zn116  1  0.31168301  0.31447813  0.80864888  1
  Zn  Zn117  1  0.31027673  0.81524689  0.30755635  1
  Zn  Zn118  1  0.31113330  0.80968326  0.81830592  1
  Zn  Zn119  1  0.81223045  0.31164630  0.31203480  1
  Zn  Zn120  1  0.80947145  0.31372695  0.81200529  1
  Zn  Zn121  1  0.80868312  0.81257254  0.31241536  1
  Zn  Zn122  1  0.81232893  0.81358818  0.80685849  1
  Zn  Zn123  1  0.18924200  0.43718703  0.44138759  1
  Zn  Zn124  1  0.18534053  0.43787634  0.93837128  1
  Zn  Zn125  1  0.18304264  0.93817640  0.44558416  1
  Zn  Zn126  1  0.18872551  0.93818181  0.94649299  1
  Zn  Zn127  1  0.68870951  0.43329106  0.43507664  1
  Zn  Zn128  1  0.68866064  0.43555358  0.94033406  1
  Zn  Zn129  1  0.69013472  0.93128328  0.43841791  1
  Zn  Zn130  1  0.68816007  0.93699575  0.93650300  1
  Zn  Zn131  1  0.30899517  0.06177065  0.05951730  1
  Zn  Zn132  1  0.31460247  0.06102510  0.55991628  1
  Zn  Zn133  1  0.31193102  0.56069056  0.06353244  1
  Zn  Zn134  1  0.31893461  0.56417260  0.55513904  1
  Zn  Zn135  1  0.81115615  0.06542155  0.06169232  1
  Zn  Zn136  1  0.81268259  0.06332351  0.56289520  1
  Zn  Zn137  1  0.81226292  0.56414687  0.06497881  1
  Zn  Zn138  1  0.81203453  0.56536679  0.56399101  1
  Zn  Zn139  1  0.43524543  0.43608269  0.19047719  1
  Zn  Zn140  1  0.44051228  0.43504474  0.68497497  1
  Zn  Zn141  1  0.43467421  0.93472102  0.18953534  1
  Zn  Zn142  1  0.43886601  0.93602868  0.69143812  1
  Zn  Zn143  1  0.93562874  0.43567448  0.18749656  1
  Zn  Zn144  1  0.93661511  0.44060428  0.69038065  1
  Zn  Zn145  1  0.93948846  0.93648478  0.19236522  1
  Zn  Zn146  1  0.94412860  0.93970019  0.69212489  1
  Zn  Zn147  1  0.05787686  0.06154699  0.31103637  1
  Zn  Zn148  1  0.05837564  0.05904216  0.80958113  1
  Zn  Zn149  1  0.06084729  0.56492065  0.31631409  1
  Zn  Zn150  1  0.05845551  0.56730303  0.82009749  1
  Zn  Zn151  1  0.56247006  0.05994669  0.31044718  1
  Zn  Zn152  1  0.55613729  0.06050226  0.81018784  1
  Zn  Zn153  1  0.56046402  0.56170586  0.30586866  1
  Zn  Zn154  1  0.55790704  0.55816920  0.80978042  1
  Zn  Zn155  1  0.43351941  0.18476094  0.43733363  1
  Zn  Zn156  1  0.43693715  0.18771541  0.93606708  1
  Zn  Zn157  1  0.44205672  0.68674571  0.43987587  1
  Zn  Zn158  1  0.44164410  0.68207001  0.93677414  1
  Zn  Zn159  1  0.93549151  0.18974285  0.43225945  1
  Zn  Zn160  1  0.93750495  0.18110372  0.93883271  1
  Zn  Zn161  1  0.93947522  0.68627785  0.44069249  1
  Zn  Zn162  1  0.94272734  0.68741456  0.93809267  1
  Zn  Zn163  1  0.06203662  0.31384473  0.05820375  1
  Zn  Zn164  1  0.06310715  0.31201094  0.56020996  1
  Zn  Zn165  1  0.06026126  0.81826775  0.05823233  1
  Zn  Zn166  1  0.06657633  0.81416899  0.56485714  1
  Zn  Zn167  1  0.56304199  0.31056800  0.06246806  1
  Zn  Zn168  1  0.56009934  0.31614840  0.56063204  1
  Zn  Zn169  1  0.56342846  0.80508830  0.06160178  1
  Zn  Zn170  1  0.56166122  0.81163228  0.55891964  1
  O  O171  1  0.12832031  0.11474260  0.12401123  1
  O  O172  1  0.11463268  0.12311403  0.62806951  1
  O  O173  1  0.12110131  0.62227000  0.11667105  1
  O  O174  1  0.12088747  0.62687416  0.62096886  1
  O  O175  1  0.61718407  0.11946646  0.11910502  1
  O  O176  1  0.61174707  0.11868718  0.62924626  1
  O  O177  1  0.61842232  0.61759355  0.12104319  1
  O  O178  1  0.62959727  0.60825773  0.63133274  1
  O  O179  1  0.38275762  0.38063848  0.37180541  1
  O  O180  1  0.38011407  0.38059112  0.88005215  1
  O  O181  1  0.38221020  0.87825503  0.37938160  1
  O  O182  1  0.38035599  0.88476458  0.87788671  1
  O  O183  1  0.88099292  0.37901810  0.38269645  1
  O  O184  1  0.88601733  0.38152497  0.86882098  1
  O  O185  1  0.88135138  0.88449148  0.36696652  1
  O  O186  1  0.86992760  0.88855128  0.87388193  1
  O  O187  1  0.25915083  -0.00740630  0.37747651  1
  O  O188  1  0.26420666  0.00073505  0.87886742  1
  O  O189  1  0.25775938  0.49942357  0.36811692  1
  O  O190  1  0.26410180  0.49507601  0.87539926  1
  O  O191  1  0.75437990  0.00385250  0.37025324  1
  O  O192  1  0.75573989  0.00425524  0.86911901  1
  O  O193  1  0.75494884  0.49418681  0.36164276  1
  O  O194  1  0.76605144  0.49288794  0.87734658  1
  O  O195  1  0.24955488  0.49026816  0.13324688  1
  O  O196  1  0.25446112  0.48599798  0.61454394  1
  O  O197  1  0.23619038  0.99499201  0.12325405  1
  O  O198  1  0.24530056  0.99444405  0.62116710  1
  O  O199  1  0.74574938  0.49191976  0.13252173  1
  O  O200  1  0.74137333  0.49002092  0.62661487  1
  O  O201  1  0.74445507  0.99218143  0.12774475  1
  O  O202  1  0.74122446  0.99900070  0.62832609  1
  O  O203  1  -0.00615774  0.37307841  0.26421299  1
  O  O204  1  0.00418228  0.36864430  0.75548333  1
  O  O205  1  0.00428380  0.86733638  0.26166738  1
  O  O206  1  0.00402663  0.88239322  0.76409708  1
  O  O207  1  0.50061636  0.36410998  0.25840460  1
  O  O208  1  0.50814657  0.37091769  0.75659731  1
  O  O209  1  0.50931313  0.87766491  0.25879483  1
  O  O210  1  0.51044855  0.86797614  0.75690509  1
  O  O211  1  0.49476151  0.12892132  0.24121311  1
  O  O212  1  0.48955209  0.12830872  0.73994226  1
  O  O213  1  0.48995291  0.61837313  0.23470307  1
  O  O214  1  0.50582111  0.63873046  0.74483560  1
  O  O215  1  0.98436548  0.13135812  0.25465306  1
  O  O216  1  0.98996546  0.13195564  0.74241838  1
  O  O217  1  0.99409054  0.63122089  0.24399110  1
  O  O218  1  0.99446279  0.61947027  0.73813185  1
  O  O219  1  0.36735551  0.25681222  0.00282909  1
  O  O220  1  0.36572796  0.25026823  0.50761596  1
  O  O221  1  0.37778522  0.74861120  0.01043955  1
  O  O222  1  0.37577998  0.75981478  0.50742351  1
  O  O223  1  0.86462291  0.24147311  0.00722580  1
  O  O224  1  0.88032939  0.26324782  0.50509531  1
  O  O225  1  0.86855708  0.74130975  0.01232506  1
  O  O226  1  0.86694056  0.74759771  0.50577768  1
  O  O227  1  0.13527401  0.25052391  0.49128531  1
  O  O228  1  0.13138594  0.24892187  0.99124405  1
  O  O229  1  0.12623569  0.73993342  0.49394291  1
  O  O230  1  0.12640147  0.73719834  1.00422356  1
  O  O231  1  0.62043138  0.24906647  0.48941847  1
  O  O232  1  0.62997585  0.23999183  0.99560665  1
  O  O233  1  0.63154452  0.75032945  0.48755452  1
  O  O234  1  0.63415503  0.73858259  0.99721659  1
  O  O235  1  0.49497314  0.24171997  0.13244808  1
  O  O236  1  0.49176550  0.24289815  0.62199096  1
  O  O237  1  0.49146134  0.74029821  0.12586649  1
  O  O238  1  0.49231675  0.75353701  0.63266627  1
  O  O239  1  0.98632062  0.25815328  0.12418312  1
  O  O240  1  0.99294178  0.24591454  0.62953780  1
  O  O241  1  0.99257548  0.74883297  0.12883012  1
  O  O242  1  0.99292065  0.74026734  0.61689488  1
  O  O243  1  0.01340857  0.25752078  0.37694273  1
  O  O244  1  0.00346062  0.25643396  0.87225837  1
  O  O245  1  0.00583324  0.75461784  0.37117003  1
  O  O246  1  0.02132388  0.75450604  0.89045795  1
  O  O247  1  0.50473486  0.25211782  0.36944049  1
  O  O248  1  0.50433620  0.26051773  0.87269344  1
  O  O249  1  0.51187260  0.76281531  0.38046068  1
  O  O250  1  0.50096633  0.75713084  0.86747948  1
  O  O251  1  0.25330809  0.14013932  0.50237163  1
  O  O252  1  0.24788197  0.13831430  0.99484594  1
  O  O253  1  0.24169835  0.62748414  0.49658545  1
  O  O254  1  0.23489365  0.61522114  0.99748884  1
  O  O255  1  0.75260650  0.12368671  0.48622428  1
  O  O256  1  0.73935967  0.13537765  0.99940332  1
  O  O257  1  0.75020760  0.64235709  0.50459041  1
  O  O258  1  0.74002080  0.63399384  1.00788101  1
  O  O259  1  0.25569373  0.36607516  0.00618041  1
  O  O260  1  0.25179467  0.36417338  0.50662487  1
  O  O261  1  0.25755874  0.88099815  0.01986851  1
  O  O262  1  0.26364016  0.87568562  0.50564314  1
  O  O263  1  0.74483578  0.36033630  0.00841003  1
  O  O264  1  0.76138603  0.37909538  0.50735030  1
  O  O265  1  0.74334284  0.86662015  0.01260097  1
  O  O266  1  0.74592365  0.85623375  0.50197473  1
  O  O267  1  0.13747671  0.50556471  0.25085240  1
  O  O268  1  0.11546116  0.48627895  0.75550648  1
  O  O269  1  0.11610679  0.99963818  0.23383339  1
  O  O270  1  0.12401462  1.00303933  0.73417404  1
  O  O271  1  0.63341214  0.49710026  0.24159103  1
  O  O272  1  0.62701463  0.48931614  0.74345328  1
  O  O273  1  0.63062423  0.98932503  0.24273654  1
  O  O274  1  0.62604221  0.99485710  0.73917761  1
  O  O275  1  0.37966124  0.00720476  0.25993295  1
  O  O276  1  0.37866348  0.00735227  0.76042213  1
  O  O277  1  0.36811827  0.50698999  0.25708944  1
  O  O278  1  0.37502593  0.49490111  0.75941286  1
  O  O279  1  0.86977315  0.00734363  0.25669197  1
  O  O280  1  0.86806605  0.00816602  0.75604179  1
  O  O281  1  0.86857363  0.50743018  0.25413759  1
  O  O282  1  0.87351490  0.50922725  0.75887638  1
  O  O283  1  0.11475629  0.37017489  0.38171061  1
  O  O284  1  0.11635035  0.36628972  0.86933433  1
  O  O285  1  0.11927733  0.86589228  0.37587658  1
  O  O286  1  0.13218146  0.86459486  0.87839244  1
  O  O287  1  0.61814469  0.36420813  0.37147413  1
  O  O288  1  0.61763706  0.37364011  0.86955073  1
  O  O289  1  0.61865476  0.86899617  0.36685236  1
  O  O290  1  0.61806196  0.87487620  0.86650107  1
  O  O291  1  0.38094024  0.12788400  0.12881270  1
  O  O292  1  0.38360300  0.12830469  0.62914827  1
  O  O293  1  0.38070443  0.62964615  0.12747503  1
  O  O294  1  0.37352691  0.63975648  0.62315996  1
  O  O295  1  0.86665974  0.13564045  0.13490892  1
  O  O296  1  0.87873348  0.12931026  0.63425203  1
  O  O297  1  0.88123404  0.63248331  0.13544278  1
  O  O298  1  0.88353450  0.63210742  0.63282059  1
  O  O299  1  0.25578860  0.25535485  0.11829050  1
  O  O300  1  0.25390931  0.25616583  0.61396350  1
  O  O301  1  0.25683581  0.75929111  0.12675499  1
  O  O302  1  0.25915750  0.76430435  0.62040905  1
  O  O303  1  0.75506755  0.25606523  0.11983461  1
  O  O304  1  0.75456921  0.26312942  0.62716939  1
  O  O305  1  0.75681606  0.75636395  0.11848013  1
  O  O306  1  0.76101940  0.75336427  0.61494320  1
  O  O307  1  0.23784528  0.25388726  0.38535526  1
  O  O308  1  0.24169751  0.25233215  0.88082712  1
  O  O309  1  0.24059376  0.75012650  0.37579960  1
  O  O310  1  0.23590936  0.74526931  0.87757259  1
  O  O311  1  0.73845502  0.24075527  0.36822619  1
  O  O312  1  0.74250755  0.24925866  0.88295998  1
  O  O313  1  0.73959024  0.75095512  0.38371477  1
  O  O314  1  0.75060877  0.75582633  0.88827982  1
  O  O315  1  0.00192462  0.10885646  -0.00039753  1
  O  O316  1  -0.00865840  0.12696320  0.51222245  1
  O  O317  1  0.00994527  0.61898159  0.00844604  1
  O  O318  1  0.00667538  0.61792801  0.50964023  1
  O  O319  1  0.50717249  0.13191586  0.01096205  1
  O  O320  1  0.49449373  0.11143716  0.50635633  1
  O  O321  1  0.51077471  0.62531213  0.01260830  1
  O  O322  1  0.50004110  0.62102286  0.50712228  1
  O  O323  1  0.49622017  0.37744848  0.48537853  1
  O  O324  1  0.49037860  0.36807193  0.99204103  1
  O  O325  1  0.49071590  0.88438936  0.49458398  1
  O  O326  1  0.50094795  0.86970792  0.98771574  1
  O  O327  1  0.99399028  0.38327353  0.49547222  1
  O  O328  1  1.00226592  0.38466055  0.98995126  1
  O  O329  1  1.00220846  0.87378125  0.48710350  1
  O  O330  1  1.00174469  0.89402354  0.99457405  1
  O  O331  1  0.49531134  0.48960470  0.36928170  1
  O  O332  1  0.48830896  0.48730989  0.87176024  1
  O  O333  1  0.49957707  0.98952861  0.38165422  1
  O  O334  1  0.48883135  0.98875625  0.87038493  1
  O  O335  1  0.99491504  0.49339172  0.38384752  1
  O  O336  1  0.99131986  0.49320653  0.88231949  1
  O  O337  1  0.99138762  0.99224471  0.37675975  1
  O  O338  1  0.98946699  1.00293364  0.88510396  1
  O  O339  1  0.00783235  -0.00533916  0.11675872  1
  O  O340  1  0.00418222  0.01155402  0.62225474  1
  O  O341  1  0.00061844  0.50345420  0.11926739  1
  O  O342  1  -0.00465477  0.50684610  0.61354871  1
  O  O343  1  0.50413065  0.00878913  0.12803172  1
  O  O344  1  0.50505506  0.00581755  0.61809476  1
  O  O345  1  0.51245509  0.50081952  0.12934806  1
  O  O346  1  0.51574001  0.49743796  0.62370156  1
  O  O347  1  0.25774869  0.38272168  0.23993493  1
  O  O348  1  0.23874657  0.36976478  0.73787881  1
  O  O349  1  0.24879562  0.87746815  0.23300998  1
  O  O350  1  0.24937581  0.87426860  0.74066169  1
  O  O351  1  0.74850926  0.38190843  0.24176011  1
  O  O352  1  0.74180876  0.37848364  0.74228241  1
  O  O353  1  0.74294869  0.88027145  0.23963908  1
  O  O354  1  0.73745091  0.88148008  0.74544723  1
  O  O355  1  0.26486754  0.12990924  0.24737341  1
  O  O356  1  0.26374436  0.13236750  0.75051538  1
  O  O357  1  0.25927456  0.61533691  0.25088534  1
  O  O358  1  0.24163342  0.62407313  0.75064405  1
  O  O359  1  0.75696864  0.11700469  0.25635733  1
  O  O360  1  0.75566021  0.12005949  0.74927333  1
  O  O361  1  0.75949785  0.61551938  0.24337146  1
  O  O362  1  0.76370047  0.62267218  0.74801670  1
  O  O363  1  0.38012089  0.11216697  0.36609002  1
  O  O364  1  0.37654140  0.11472424  0.86673538  1
  O  O365  1  0.37644110  0.61914908  0.36533899  1
  O  O366  1  0.37510807  0.60627768  0.87991703  1
  O  O367  1  0.86668034  0.11953074  0.36817779  1
  O  O368  1  0.87187380  0.12049736  0.86220428  1
  O  O369  1  0.88193374  0.61931147  0.36290698  1
  O  O370  1  0.88538023  0.61861054  0.86465438  1
  O  O371  1  0.13725546  0.37566615  0.12190682  1
  O  O372  1  0.13234407  0.37064657  0.63325060  1
  O  O373  1  0.13412275  0.88105797  0.12620427  1
  O  O374  1  0.13700408  0.88238632  0.62676870  1
  O  O375  1  0.63379600  0.38012794  0.12591341  1
  O  O376  1  0.63053372  0.37895158  0.63079188  1
  O  O377  1  0.62921991  0.87573035  0.13058740  1
  O  O378  1  0.62235858  0.88356684  0.63152714  1
  O  O379  1  0.12472742  0.24914303  0.26525705  1
  O  O380  1  0.11829604  0.25896992  0.75641599  1
  O  O381  1  0.11897392  0.74933446  0.25911438  1
  O  O382  1  0.12017352  0.75658215  0.76369247  1
  O  O383  1  0.61226284  0.24787194  0.25174165  1
  O  O384  1  0.62409177  0.26062617  0.75593059  1
  O  O385  1  0.63391607  0.76063180  0.25951773  1
  O  O386  1  0.62164909  0.75737981  0.75048649  1
  O  O387  1  0.38566875  0.24187807  0.24741352  1
  O  O388  1  0.37505149  0.24484551  0.73591690  1
  O  O389  1  0.37036132  0.73740191  0.24180696  1
  O  O390  1  0.38533418  0.75998197  0.74159846  1
  O  O391  1  0.87447977  0.24312925  0.24097142  1
  O  O392  1  0.87717732  0.24387108  0.74401899  1
  O  O393  1  0.87733813  0.74329453  0.24324438  1
  O  O394  1  0.87261535  0.74344661  0.73986311  1
  O  O395  1  0.37747973  0.49709056  0.48201713  1
  O  O396  1  0.37278279  0.48632055  0.99744132  1
  O  O397  1  0.38268169  0.99409248  0.49084837  1
  O  O398  1  0.37882828  1.00321990  0.98602493  1
  O  O399  1  0.88113001  0.49452301  0.49535435  1
  O  O400  1  0.88789508  0.51055115  0.99424869  1
  O  O401  1  0.87601674  1.00160998  0.48723396  1
  O  O402  1  0.88314704  1.00587604  0.99418651  1
  O  O403  1  0.11694412  0.00479321  0.01248390  1
  O  O404  1  0.11957387  -0.00068753  0.51678104  1
  O  O405  1  0.11289907  0.50824390  -0.00085175  1
  O  O406  1  0.11656698  0.51291263  0.49447057  1
  O  O407  1  0.62942269  0.01257102  0.00512530  1
  O  O408  1  0.61769239  -0.00612073  0.51038098  1
  O  O409  1  0.63291618  0.50653599  0.01123082  1
  O  O410  1  0.62661834  0.49289860  0.51279922  1
  O  O411  1  0.37011616  0.36796957  0.11827849  1
  O  O412  1  0.36883436  0.36570911  0.62258678  1
  O  O413  1  0.36925402  0.86578527  0.12508998  1
  O  O414  1  0.37127194  0.87365692  0.61827844  1
  O  O415  1  0.86204658  0.36740411  0.12698108  1
  O  O416  1  0.86796989  0.37318561  0.61911237  1
  O  O417  1  0.86618845  0.86506495  0.13191635  1
  O  O418  1  0.87753579  0.86492031  0.62926085  1
  O  O419  1  0.11977906  0.13582849  0.37578681  1
  O  O420  1  0.12393718  0.13824805  0.87160902  1
  O  O421  1  0.12420256  0.63590618  0.38351166  1
  O  O422  1  0.12427512  0.63490669  0.88708498  1
  O  O423  1  0.63267279  0.13148048  0.36935192  1
  O  O424  1  0.62081691  0.12936801  0.88150045  1
  O  O425  1  0.61830660  0.64100988  0.36598081  1
  O  O426  1  0.61907814  0.62087759  0.88707097  1
