# generated using pymatgen
data_V85Zn86O256
_symmetry_space_group_name_H-M   'P 1'
_cell_length_a   16.93451396
_cell_length_b   16.93389865
_cell_length_c   16.92836319
_cell_angle_alpha   89.94817192
_cell_angle_beta   90.00526026
_cell_angle_gamma   89.96007672
_symmetry_Int_Tables_number   1
_chemical_formula_structural   V85Zn86O256
_chemical_formula_sum   'V85 Zn86 O256'
_cell_volume   4854.49855182
_cell_formula_units_Z   1
loop_
 _symmetry_equiv_pos_site_id
 _symmetry_equiv_pos_as_xyz
  1  'x, y, z'
loop_
 _atom_site_type_symbol
 _atom_site_label
 _atom_site_symmetry_multiplicity
 _atom_site_fract_x
 _atom_site_fract_y
 _atom_site_fract_z
 _atom_site_occupancy
  V  V0  1  0.87581313  0.62317993  0.75023422  1
  V  V1  1  0.13001458  0.23782575  0.38029001  1
  V  V2  1  0.00405403  0.49733978  0.50549427  1
  V  V3  1  0.25000021  0.74512508  0.49369042  1
  V  V4  1  0.86528907  0.00481172  0.37368835  1
  V  V5  1  0.00449250  0.12556035  0.61805536  1
  V  V6  1  0.61205091  0.62496434  0.49991808  1
  V  V7  1  0.37539207  0.87419062  0.49706126  1
  V  V8  1  0.74979849  0.50280301  0.74696202  1
  V  V9  1  -0.00135712  0.62558548  0.12566408  1
  V  V10  1  0.50254820  0.24828151  0.74838919  1
  V  V11  1  0.38902590  0.74630442  0.62636851  1
  V  V12  1  0.38989052  0.50242124  0.37858560  1
  V  V13  1  -0.00002353  0.25373550  0.25006462  1
  V  V14  1  0.12604821  0.74687682  0.87470748  1
  V  V15  1  0.12202193  0.00050433  0.61578878  1
  V  V16  1  0.87355127  0.50107482  0.37517231  1
  V  V17  1  0.50494885  0.50130282  0.00623745  1
  V  V18  1  0.50076409  0.37549067  0.87604713  1
  V  V19  1  0.12957837  0.61938397  0.49712140  1
  V  V20  1  0.62556636  0.37535125  0.74747958  1
  V  V21  1  0.87479296  0.24903815  0.62564638  1
  V  V22  1  0.23566281  0.87898748  0.13474143  1
  V  V23  1  0.60961113  0.50493277  0.62077107  1
  V  V24  1  0.49983210  0.75309807  0.24568591  1
  V  V25  1  0.12624293  0.37686426  0.74889105  1
  V  V26  1  0.74934456  0.12268887  0.88686685  1
  V  V27  1  -0.00654447  0.49624954  0.00185112  1
  V  V28  1  0.74630452  0.74835334  0.49996060  1
  V  V29  1  0.00221893  0.24796038  0.75294928  1
  V  V30  1  0.62695644  0.25665597  0.36724471  1
  V  V31  1  0.11980831  0.75238546  0.37099317  1
  V  V32  1  0.74739501  -0.00192484  0.75202847  1
  V  V33  1  0.87508045  -0.00923310  0.88368000  1
  V  V34  1  0.87439406  0.37564518  0.49973779  1
  V  V35  1  0.49491542  0.00592078  -0.00123635  1
  V  V36  1  0.13547492  0.24383954  0.88055099  1
  V  V37  1  0.24996374  0.50423802  0.26058901  1
  V  V38  1  0.37749339  0.87341013  0.01366305  1
  V  V39  1  0.38547632  0.37961072  0.49511017  1
  V  V40  1  0.49494876  0.13762242  0.12311157  1
  V  V41  1  0.37092966  0.12036808  0.25646522  1
  V  V42  1  0.86734758  0.75246819  0.10922203  1
  V  V43  1  0.24535335  0.37553559  0.61915818  1
  V  V44  1  0.48958543  0.87553918  0.86918103  1
  V  V45  1  0.12632762  0.62332819  0.00124648  1
  V  V46  1  0.24815895  0.86967203  0.62472412  1
  V  V47  1  0.74493848  0.63092313  0.37492853  1
  V  V48  1  0.62930316  0.87313955  0.24877320  1
  V  V49  1  0.49770816  0.62719311  0.12633903  1
  V  V50  1  0.74983845  0.87506171  0.10964901  1
  V  V51  1  0.25681914  0.37522948  0.12329859  1
  V  V52  1  0.74922406  0.63156371  0.87742315  1
  V  V53  1  0.62718669  0.63126806  0.00509168  1
  V  V54  1  0.62484749  0.01170944  0.12059957  1
  V  V55  1  0.86476226  0.12956129  0.24801103  1
  V  V56  1  -0.00000620  0.74810930  0.74933091  1
  V  V57  1  0.50013189  0.00280911  0.48982941  1
  V  V58  1  0.62613287  0.24421911  0.88180091  1
  V  V59  1  0.00658080  -0.00808064  0.00222886  1
  V  V60  1  0.38970505  0.62861084  0.74606657  1
  V  V61  1  0.74955339  0.24230345  0.49399004  1
  V  V62  1  0.62619107  -0.00142888  0.62237068  1
  V  V63  1  0.62039311  0.75191569  0.86871434  1
  V  V64  1  0.00573838  0.62110740  0.62613960  1
  V  V65  1  0.37042031  0.63228645  0.25232617  1
  V  V66  1  0.49214183  0.26190932  0.25806569  1
  V  V67  1  0.50381605  0.87365412  0.37124617  1
  V  V68  1  0.50381477  0.12710610  0.62009597  1
  V  V69  1  0.37794523  0.25520397  0.62137745  1
  V  V70  1  0.88052758  0.25596857  0.11337063  1
  V  V71  1  0.25207218  0.62415120  0.87425823  1
  V  V72  1  0.12387009  0.87620732  0.75170192  1
  V  V73  1  0.74986330  0.37591780  0.62324611  1
  V  V74  1  0.25025101  0.22900530  0.49999956  1
  V  V75  1  0.87168601  0.62803826  0.24915817  1
  V  V76  1  0.12544974  0.37853518  0.25439338  1
  V  V77  1  0.37564772  0.50021633  0.87584789  1
  V  V78  1  -0.00429597  0.37108951  0.88230948  1
  V  V79  1  0.87505114  0.87432100  0.49862366  1
  V  V80  1  0.24904072  0.50181516  0.74375788  1
  V  V81  1  0.87708350  0.12212550  0.75289197  1
  V  V82  1  0.73540393  0.49413716  0.24607785  1
  V  V83  1  0.03307213  0.08929472  0.15345173  1
  V  V84  1  0.25621196  0.74764917  0.00905487  1
  Zn  Zn85  1  0.37600164  0.11970140  0.75516637  1
  Zn  Zn86  1  0.21152857  0.01306755  0.24694815  1
  Zn  Zn87  1  0.34978031  0.00462871  0.37751716  1
  Zn  Zn88  1  0.74674900  0.38966897  0.10781572  1
  Zn  Zn89  1  -0.00120152  0.87924822  0.36704227  1
  Zn  Zn90  1  0.74487564  0.00603326  0.24990684  1
  Zn  Zn91  1  0.75376530  0.26166237  -0.00268252  1
  Zn  Zn92  1  0.86658570  0.49145294  0.88203114  1
  Zn  Zn93  1  -0.00402880  0.00093920  0.49909096  1
  Zn  Zn94  1  0.87354614  0.75045564  0.62543192  1
  Zn  Zn95  1  0.63157844  0.12123000  0.48808410  1
  Zn  Zn96  1  0.61827848  0.87140054  0.74719229  1
  Zn  Zn97  1  0.12586147  0.50133309  0.12796455  1
  Zn  Zn98  1  -0.00666019  0.86719658  0.88031826  1
  Zn  Zn99  1  0.25470528  0.00257022  0.75227713  1
  Zn  Zn100  1  0.26239601  0.23788854  0.00895275  1
  Zn  Zn101  1  0.00119856  0.75408483  0.24544447  1
  Zn  Zn102  1  0.38019696  0.37303474  0.00711057  1
  Zn  Zn103  1  0.74998345  0.87269867  0.62645627  1
  Zn  Zn104  1  0.00255466  0.37609602  0.37798399  1
  Zn  Zn105  1  0.28409015  0.09144951  0.89125640  1
  Zn  Zn106  1  0.13186922  0.11511157  0.00163000  1
  Zn  Zn107  1  0.19081402  0.19556062  0.19114469  1
  Zn  Zn108  1  0.19264083  0.18406681  0.69245433  1
  Zn  Zn109  1  0.18867796  0.68779949  0.18746988  1
  Zn  Zn110  1  0.18891712  0.68601546  0.68366881  1
  Zn  Zn111  1  0.67585227  0.21839529  0.16888428  1
  Zn  Zn112  1  0.68876525  0.18359560  0.68789320  1
  Zn  Zn113  1  0.68604117  0.69121259  0.18660396  1
  Zn  Zn114  1  0.68306637  0.68788885  0.68462661  1
  Zn  Zn115  1  0.31239418  0.31295832  0.31624031  1
  Zn  Zn116  1  0.31683909  0.31101392  0.81275378  1
  Zn  Zn117  1  0.31279188  0.81480664  0.31559125  1
  Zn  Zn118  1  0.31311394  0.81230914  0.81360618  1
  Zn  Zn119  1  0.81155828  0.31390710  0.31319243  1
  Zn  Zn120  1  0.81240063  0.31133824  0.81397730  1
  Zn  Zn121  1  0.81265148  0.81362826  0.30968095  1
  Zn  Zn122  1  0.80966509  0.81105283  0.81243415  1
  Zn  Zn123  1  0.19012270  0.43566744  0.43695431  1
  Zn  Zn124  1  0.18284395  0.43783711  0.93707121  1
  Zn  Zn125  1  0.18563575  0.93689361  0.43508081  1
  Zn  Zn126  1  0.18877020  0.92963060  0.93915800  1
  Zn  Zn127  1  0.68395511  0.43968431  0.43470986  1
  Zn  Zn128  1  0.68470516  0.43951069  0.93677108  1
  Zn  Zn129  1  0.68869730  0.93583463  0.43433925  1
  Zn  Zn130  1  0.67806957  0.94048726  0.93703109  1
  Zn  Zn131  1  0.31305227  0.05804208  0.07175324  1
  Zn  Zn132  1  0.32455251  0.05159063  0.58679127  1
  Zn  Zn133  1  0.31555617  0.55833947  0.06842129  1
  Zn  Zn134  1  0.31614161  0.56283828  0.56269218  1
  Zn  Zn135  1  0.82164712  0.06556981  0.06910384  1
  Zn  Zn136  1  0.81518516  0.06150384  0.56533618  1
  Zn  Zn137  1  0.81045770  0.56327151  0.06287609  1
  Zn  Zn138  1  0.81286505  0.56466625  0.56343887  1
  Zn  Zn139  1  0.43814691  0.44554600  0.18954024  1
  Zn  Zn140  1  0.43414033  0.43723710  0.68885043  1
  Zn  Zn141  1  0.43710219  0.94251813  0.18576763  1
  Zn  Zn142  1  0.43777887  0.93608545  0.68221844  1
  Zn  Zn143  1  0.93295097  0.43738839  0.18797045  1
  Zn  Zn144  1  0.93839727  0.43648697  0.68962262  1
  Zn  Zn145  1  0.93199077  0.93181073  0.19154136  1
  Zn  Zn146  1  0.93584597  0.93561717  0.68776635  1
  Zn  Zn147  1  0.05512558  0.06313859  0.32432453  1
  Zn  Zn148  1  0.06550777  0.05925996  0.81296325  1
  Zn  Zn149  1  0.06053916  0.56577609  0.31685342  1
  Zn  Zn150  1  0.06297689  0.55734499  0.81558314  1
  Zn  Zn151  1  0.56579095  0.07144217  0.30728694  1
  Zn  Zn152  1  0.55804206  0.06225883  0.81460059  1
  Zn  Zn153  1  0.56309565  0.56719744  0.31439111  1
  Zn  Zn154  1  0.56521246  0.56152222  0.81459233  1
  Zn  Zn155  1  0.43713771  0.18965194  0.43392934  1
  Zn  Zn156  1  0.43514198  0.18977923  0.93863780  1
  Zn  Zn157  1  0.43607485  0.69081918  0.42998691  1
  Zn  Zn158  1  0.43767545  0.69051574  0.93653948  1
  Zn  Zn159  1  0.93659723  0.18886860  0.43259044  1
  Zn  Zn160  1  0.94868167  0.17347817  0.94136801  1
  Zn  Zn161  1  0.93597936  0.68640127  0.43935918  1
  Zn  Zn162  1  0.93654022  0.68235897  0.93600090  1
  Zn  Zn163  1  0.06889761  0.31200735  0.06588119  1
  Zn  Zn164  1  0.06584156  0.30972542  0.56242334  1
  Zn  Zn165  1  0.05984929  0.81054074  0.06116524  1
  Zn  Zn166  1  0.06052194  0.80936843  0.56002444  1
  Zn  Zn167  1  0.56629303  0.31752038  0.06637315  1
  Zn  Zn168  1  0.56855422  0.31436603  0.55637246  1
  Zn  Zn169  1  0.56454076  0.81256463  0.06165374  1
  Zn  Zn170  1  0.56607458  0.81337211  0.55745867  1
  O  O171  1  0.11450575  0.14515426  0.11950422  1
  O  O172  1  0.11666369  0.11294232  0.63304968  1
  O  O173  1  0.11469340  0.62465280  0.12071864  1
  O  O174  1  0.11308834  0.62664197  0.61624773  1
  O  O175  1  0.61105173  0.12151359  0.13277998  1
  O  O176  1  0.61870277  0.11586078  0.62031309  1
  O  O177  1  0.61367571  0.63294652  0.11624699  1
  O  O178  1  0.62724228  0.61834842  0.61078501  1
  O  O179  1  0.37021842  0.39091769  0.38209155  1
  O  O180  1  0.38431248  0.38609323  0.87055676  1
  O  O181  1  0.38595358  0.88072066  0.37929886  1
  O  O182  1  0.38615677  0.87150135  0.88410419  1
  O  O183  1  0.87736603  0.38222481  0.38312148  1
  O  O184  1  0.89158032  0.37431523  0.86798815  1
  O  O185  1  0.87150226  0.88328640  0.38192435  1
  O  O186  1  0.87445442  0.88665519  0.86997128  1
  O  O187  1  0.23896353  -0.00958469  0.35483771  1
  O  O188  1  0.24241431  -0.00990285  0.86458216  1
  O  O189  1  0.25590736  0.49868366  0.36392077  1
  O  O190  1  0.25541987  0.50273187  0.86643420  1
  O  O191  1  0.75959470  0.00159439  0.37091443  1
  O  O192  1  0.75389453  0.00433787  0.87118914  1
  O  O193  1  0.75438533  0.51110876  0.36875551  1
  O  O194  1  0.74648898  0.51042444  0.86138586  1
  O  O195  1  0.24701708  0.49455457  0.13974805  1
  O  O196  1  0.25419125  0.49289017  0.63707491  1
  O  O197  1  0.24729651  0.98465136  0.13465240  1
  O  O198  1  0.23575244  0.98155317  0.62054126  1
  O  O199  1  0.75130995  0.50261043  0.14050276  1
  O  O200  1  0.74587914  0.49726982  0.63441547  1
  O  O201  1  0.74372796  0.99427356  0.12452369  1
  O  O202  1  0.74224537  1.00058234  0.63327856  1
  O  O203  1  0.00764841  0.37345057  0.25384707  1
  O  O204  1  0.00957293  0.36945467  0.75544967  1
  O  O205  1  -0.00733189  0.86543838  0.25457432  1
  O  O206  1  0.00619891  0.86481380  0.75109802  1
  O  O207  1  0.49290184  0.35985456  0.24137191  1
  O  O208  1  0.50673465  0.36835429  0.75282511  1
  O  O209  1  0.50391554  0.87147142  0.25238106  1
  O  O210  1  0.49737945  0.88353864  0.76473402  1
  O  O211  1  0.49081846  0.13537338  0.24178491  1
  O  O212  1  0.50386450  0.13286556  0.73793950  1
  O  O213  1  0.49701544  0.63408164  0.24511210  1
  O  O214  1  0.48876899  0.62257913  0.75437446  1
  O  O215  1  0.99406706  0.13835458  0.24942962  1
  O  O216  1  0.99574064  0.12916973  0.74418493  1
  O  O217  1  0.99077551  0.62752704  0.24186047  1
  O  O218  1  0.99873494  0.62546719  0.74418213  1
  O  O219  1  0.37089313  0.26280502  -0.00914000  1
  O  O220  1  0.36756283  0.25974820  0.50123922  1
  O  O221  1  0.36641584  0.75827862  -0.00320662  1
  O  O222  1  0.36738264  0.75264015  0.50329255  1
  O  O223  1  0.89191130  0.24636618  0.01248443  1
  O  O224  1  0.86978257  0.25693285  0.50330954  1
  O  O225  1  0.87342605  0.74313154  0.00995379  1
  O  O226  1  0.86372723  0.75485011  0.50018867  1
  O  O227  1  0.13778403  0.25377759  0.49297123  1
  O  O228  1  0.13125312  0.25222195  0.98722495  1
  O  O229  1  0.13065970  0.74008438  0.49501847  1
  O  O230  1  0.13151267  0.74172508  0.99385241  1
  O  O231  1  0.63470670  0.24615346  0.49283434  1
  O  O232  1  0.62501814  0.24901500  0.98310235  1
  O  O233  1  0.63655378  0.73939513  0.50297488  1
  O  O234  1  0.61854270  0.73834949  0.98771551  1
  O  O235  1  0.50061554  0.24072674  0.13280421  1
  O  O236  1  0.50376446  0.24493874  0.62905736  1
  O  O237  1  0.50090378  0.74622937  0.13671997  1
  O  O238  1  0.48797717  0.75823110  0.62116873  1
  O  O239  1  0.99393276  0.25933076  0.13984608  1
  O  O240  1  0.99691813  0.24399774  0.63267032  1
  O  O241  1  0.99039228  0.73888952  0.12294950  1
  O  O242  1  0.99816358  0.73976786  0.63291197  1
  O  O243  1  0.00676780  0.25474324  0.36642312  1
  O  O244  1  0.00861773  0.25381428  0.87226880  1
  O  O245  1  0.01151893  0.74561759  0.37656308  1
  O  O246  1  0.00640704  0.74513612  0.86670457  1
  O  O247  1  0.50547034  0.25391120  0.36478432  1
  O  O248  1  0.50918309  0.25463997  0.86477402  1
  O  O249  1  0.49830323  0.76148753  0.36078250  1
  O  O250  1  0.50502337  0.76562477  0.87760284  1
  O  O251  1  0.26117398  0.13171372  0.51512132  1
  O  O252  1  0.24910147  0.12131853  0.99998473  1
  O  O253  1  0.24011999  0.63151149  0.50792437  1
  O  O254  1  0.24833418  0.62857212  0.99767323  1
  O  O255  1  0.75378105  0.13940809  0.50529363  1
  O  O256  1  0.75775495  0.12570284  0.98809491  1
  O  O257  1  0.74706519  0.63128231  0.49295192  1
  O  O258  1  0.73887802  0.61755523  0.98995333  1
  O  O259  1  0.24743526  0.38682497  0.01829691  1
  O  O260  1  0.25664715  0.37577448  0.51176067  1
  O  O261  1  0.25754890  0.86652168  0.01084436  1
  O  O262  1  0.25426697  0.86593407  0.50535172  1
  O  O263  1  0.75572493  0.37648469  -0.00679290  1
  O  O264  1  0.75575332  0.36889472  0.50553497  1
  O  O265  1  0.74397662  0.87915743  0.01100520  1
  O  O266  1  0.75588195  0.86535308  0.49915614  1
  O  O267  1  0.13081274  0.49606919  0.25422282  1
  O  O268  1  0.13359922  0.48552330  0.75645533  1
  O  O269  1  0.09623409  1.02983826  0.22380379  1
  O  O270  1  0.11972171  0.98464051  0.73987818  1
  O  O271  1  0.63665976  0.50314549  0.25412060  1
  O  O272  1  0.63197953  0.49773475  0.74162560  1
  O  O273  1  0.62339780  0.99326707  0.23829782  1
  O  O274  1  0.63120289  0.99982885  0.74136057  1
  O  O275  1  0.38297885  0.01578633  0.25534249  1
  O  O276  1  0.36186042  0.01440445  0.70269719  1
  O  O277  1  0.37051874  0.50902761  0.26100149  1
  O  O278  1  0.36729870  0.50812066  0.75493987  1
  O  O279  1  0.87121800  0.01368977  0.25459884  1
  O  O280  1  0.86777715  0.00409046  0.75704579  1
  O  O281  1  0.87041137  0.51277510  0.25535834  1
  O  O282  1  0.86637621  0.50482718  0.75200521  1
  O  O283  1  0.12561870  0.36951590  0.36547400  1
  O  O284  1  0.11686644  0.36606987  0.86925156  1
  O  O285  1  0.11740296  0.85554368  0.38540636  1
  O  O286  1  0.12018550  0.86297196  0.86617060  1
  O  O287  1  0.62334859  0.35748976  0.38510742  1
  O  O288  1  0.61945367  0.36817509  0.86485838  1
  O  O289  1  0.61297245  0.88180032  0.36442689  1
  O  O290  1  0.61458728  0.86725857  0.87370705  1
  O  O291  1  0.38943176  0.12120905  0.13571314  1
  O  O292  1  0.39471819  0.14078371  0.61838525  1
  O  O293  1  0.38846925  0.62113328  0.13630902  1
  O  O294  1  0.37228751  0.63354220  0.63374712  1
  O  O295  1  0.89564103  0.12865662  0.13981497  1
  O  O296  1  0.88220042  0.13007788  0.63365649  1
  O  O297  1  0.87778953  0.63157416  0.13059266  1
  O  O298  1  0.88734005  0.62513534  0.63167644  1
  O  O299  1  0.24715103  0.27078016  0.12451828  1
  O  O300  1  0.25583555  0.25756312  0.61925011  1
  O  O301  1  0.24840023  0.75304783  0.11324314  1
  O  O302  1  0.25146187  0.75732145  0.61422900  1
  O  O303  1  0.77881274  0.22804170  0.11184744  1
  O  O304  1  0.75496278  0.25547259  0.61940215  1
  O  O305  1  0.75237738  0.76445804  0.12414262  1
  O  O306  1  0.75229004  0.75094932  0.61586048  1
  O  O307  1  0.24296314  0.25151299  0.38745839  1
  O  O308  1  0.23749706  0.25664019  0.87499100  1
  O  O309  1  0.24036521  0.75326337  0.38727169  1
  O  O310  1  0.24514477  0.74386010  0.88426635  1
  O  O311  1  0.74007814  0.25348878  0.38086163  1
  O  O312  1  0.74454376  0.24006117  0.87376716  1
  O  O313  1  0.75328688  0.73777017  0.38024671  1
  O  O314  1  0.74207282  0.73800297  0.87194897  1
  O  O315  1  0.00993216  0.10592677  0.01152844  1
  O  O316  1  -0.00762175  0.12742633  0.51506544  1
  O  O317  1  0.00573675  0.61832643  0.00676332  1
  O  O318  1  0.00469128  0.61741207  0.50851991  1
  O  O319  1  0.49648938  0.12002898  0.01478118  1
  O  O320  1  0.50277647  0.11879588  0.50342222  1
  O  O321  1  0.50267702  0.62226102  0.00806234  1
  O  O322  1  0.51384763  0.63343686  0.49448870  1
  O  O323  1  0.48440087  0.37295845  0.50699301  1
  O  O324  1  0.50415912  0.38502507  0.99756752  1
  O  O325  1  0.49825379  0.88108619  0.48945246  1
  O  O326  1  0.49277669  0.88049918  0.99585388  1
  O  O327  1  0.99503516  0.38159293  0.50203753  1
  O  O328  1  1.00860080  0.38327533  0.99397868  1
  O  O329  1  0.98338921  0.87136980  0.49817443  1
  O  O330  1  0.99843163  0.88447111  0.99797666  1
  O  O331  1  0.48850504  0.49986813  0.37146975  1
  O  O332  1  0.49574325  0.49489954  0.88137001  1
  O  O333  1  0.50452127  0.99795136  0.38395037  1
  O  O334  1  0.50971954  0.98595000  0.88719076  1
  O  O335  1  0.99204309  0.50120674  0.38853148  1
  O  O336  1  0.99874321  0.48954733  0.88418445  1
  O  O337  1  0.98348243  0.99814802  0.38196954  1
  O  O338  1  0.99241619  0.99741643  0.88432132  1
  O  O339  1  -0.00969127  -0.00457302  0.11250810  1
  O  O340  1  0.00339368  0.00806244  0.62412461  1
  O  O341  1  -0.00118571  0.50958519  0.12091485  1
  O  O342  1  -0.00310105  0.50496010  0.61443847  1
  O  O343  1  0.50759355  0.00937187  0.11872250  1
  O  O344  1  0.50866643  0.00642999  0.61177276  1
  O  O345  1  0.50110784  0.51014187  0.11739610  1
  O  O346  1  0.51063488  0.49802011  0.62921823  1
  O  O347  1  0.24463024  0.38233540  0.24519192  1
  O  O348  1  0.24599343  0.37973179  0.74170712  1
  O  O349  1  0.25108420  0.86338034  0.23387217  1
  O  O350  1  0.24043273  0.86960370  0.74021751  1
  O  O351  1  0.75428963  0.39455743  0.25509957  1
  O  O352  1  0.74541694  0.38274609  0.74549971  1
  O  O353  1  0.74056445  0.87953348  0.24362174  1
  O  O354  1  0.74635255  0.88755445  0.74972168  1
  O  O355  1  0.26731916  0.12550384  0.23856890  1
  O  O356  1  0.25668983  0.12317061  0.76026036  1
  O  O357  1  0.26075230  0.61835488  0.24452985  1
  O  O358  1  0.25131281  0.61592154  0.75405392  1
  O  O359  1  0.76459288  0.13017111  0.23983916  1
  O  O360  1  0.75696537  0.11368660  0.75588331  1
  O  O361  1  0.75216889  0.62043891  0.25644635  1
  O  O362  1  0.75341170  0.61911724  0.75337970  1
  O  O363  1  0.37776343  0.12127150  0.36204508  1
  O  O364  1  0.39237742  0.11532650  0.86848634  1
  O  O365  1  0.37723776  0.61360083  0.36753559  1
  O  O366  1  0.36981212  0.62017042  0.86828080  1
  O  O367  1  0.87786205  0.12132572  0.35926502  1
  O  O368  1  0.87052238  0.11599933  0.86945702  1
  O  O369  1  0.86763683  0.62119516  0.36815727  1
  O  O370  1  0.86523526  0.62045951  0.86828873  1
  O  O371  1  0.13241354  0.37953827  0.13982712  1
  O  O372  1  0.13422250  0.36975218  0.63551228  1
  O  O373  1  0.13736200  0.86737112  0.12337661  1
  O  O374  1  0.12805022  0.87555872  0.63091513  1
  O  O375  1  0.65542110  0.32682103  0.12995292  1
  O  O376  1  0.63187203  0.38405399  0.62750567  1
  O  O377  1  0.63386936  0.88251739  0.12883156  1
  O  O378  1  0.62582686  0.88653203  0.62632603  1
  O  O379  1  0.11907429  0.25887203  0.25886917  1
  O  O380  1  0.12249221  0.25888652  0.75988607  1
  O  O381  1  0.12484287  0.73835072  0.26860191  1
  O  O382  1  0.12032421  0.75549193  0.75272343  1
  O  O383  1  0.60961867  0.24780013  0.26223624  1
  O  O384  1  0.61802001  0.25414976  0.75197305  1
  O  O385  1  0.61720790  0.76505679  0.24582373  1
  O  O386  1  0.62626423  0.75133712  0.76234866  1
  O  O387  1  0.38511037  0.24119706  0.25895019  1
  O  O388  1  0.39071744  0.25300322  0.74155702  1
  O  O389  1  0.38121788  0.73886518  0.25703771  1
  O  O390  1  0.36764728  0.74016963  0.73889710  1
  O  O391  1  0.88140149  0.24432474  0.24740899  1
  O  O392  1  0.88110183  0.24312398  0.74519040  1
  O  O393  1  0.86996947  0.73686282  0.24144904  1
  O  O394  1  0.88219838  0.74185447  0.75005843  1
  O  O395  1  0.37205091  0.49729823  0.48641524  1
  O  O396  1  0.38686334  0.49879103  0.99406449  1
  O  O397  1  0.38370606  0.99283856  0.49862479  1
  O  O398  1  0.38743325  0.99074484  1.00695548  1
  O  O399  1  0.88010481  0.49458186  0.49668375  1
  O  O400  1  0.88876220  0.50612397  0.99893830  1
  O  O401  1  0.87156652  0.99230850  0.49336604  1
  O  O402  1  0.88532911  1.00597079  0.99076328  1
  O  O403  1  0.11101187  -0.00533575  -0.00273807  1
  O  O404  1  0.11579862  -0.00899042  0.51212728  1
  O  O405  1  0.11464879  0.50815640  0.00240241  1
  O  O406  1  0.11647042  0.50546741  0.49580630  1
  O  O407  1  0.61240248  -0.00132455  0.01270150  1
  O  O408  1  0.62124601  0.00162121  0.50525587  1
  O  O409  1  0.61175692  0.51511079  -0.00863723  1
  O  O410  1  0.62933983  0.51439996  0.50733858  1
  O  O411  1  0.36002817  0.38541394  0.12728935  1
  O  O412  1  0.36640865  0.37282060  0.61920624  1
  O  O413  1  0.37043716  0.87520723  0.11680544  1
  O  O414  1  0.36585442  0.86526380  0.61703985  1
  O  O415  1  0.86872155  0.35878140  0.13037557  1
  O  O416  1  0.87023803  0.36841373  0.62083714  1
  O  O417  1  0.85717134  0.86777788  0.12652523  1
  O  O418  1  0.87030491  0.87317130  0.61549413  1
  O  O419  1  0.12187186  0.13829558  0.37786994  1
  O  O420  1  0.12011795  0.14001768  0.87669965  1
  O  O421  1  0.12169394  0.63303005  0.39035639  1
  O  O422  1  0.13246161  0.62752910  0.88017776  1
  O  O423  1  0.62123266  0.14376354  0.37612697  1
  O  O424  1  0.63655163  0.13248238  0.86616189  1
  O  O425  1  0.63266834  0.62200795  0.38872304  1
  O  O426  1  0.62949554  0.63282327  0.87984086  1
