# generated using pymatgen
data_V85Zn86O256
_symmetry_space_group_name_H-M   'P 1'
_cell_length_a   16.92053623
_cell_length_b   16.93631965
_cell_length_c   16.92807860
_cell_angle_alpha   89.97913125
_cell_angle_beta   90.01725183
_cell_angle_gamma   90.06458103
_symmetry_Int_Tables_number   1
_chemical_formula_structural   V85Zn86O256
_chemical_formula_sum   'V85 Zn86 O256'
_cell_volume   4851.10312196
_cell_formula_units_Z   1
loop_
 _symmetry_equiv_pos_site_id
 _symmetry_equiv_pos_as_xyz
  1  'x, y, z'
loop_
 _atom_site_type_symbol
 _atom_site_label
 _atom_site_symmetry_multiplicity
 _atom_site_fract_x
 _atom_site_fract_y
 _atom_site_fract_z
 _atom_site_occupancy
  V  V0  1  0.25776383  0.87078272  0.62886356  1
  V  V1  1  0.50690304  0.37636721  0.36570359  1
  V  V2  1  0.49926987  0.75792171  0.75075845  1
  V  V3  1  0.74285155  0.62953497  0.87714561  1
  V  V4  1  0.12575955  0.62635835  0.49951592  1
  V  V5  1  0.50779237  0.48540159  -0.00246098  1
  V  V6  1  0.75218370  0.13335601  0.87607253  1
  V  V7  1  0.86915010  0.87054207  0.49630221  1
  V  V8  1  0.00417144  0.25091262  0.24883601  1
  V  V9  1  0.13483999  0.87762139  0.24443753  1
  V  V10  1  0.37659531  0.62930333  0.75463609  1
  V  V11  1  0.74614408  0.37693673  0.14332342  1
  V  V12  1  0.87034329  0.37605457  0.00151482  1
  V  V13  1  0.87642130  -0.00211560  0.37459481  1
  V  V14  1  0.00343543  0.37525516  0.36984966  1
  V  V15  1  0.50271273  0.11943057  0.12172724  1
  V  V16  1  0.25274521  -0.00045931  0.75371367  1
  V  V17  1  0.37610318  0.48825914  0.88571733  1
  V  V18  1  0.86919646  0.62562622  0.24465460  1
  V  V19  1  0.38023403  0.11889612  0.74980748  1
  V  V20  1  0.62334367  0.75516054  0.87377408  1
  V  V21  1  0.37435495  0.88473312  0.49120359  1
  V  V22  1  0.87388216  0.62705773  0.75176081  1
  V  V23  1  0.49506581  0.62967138  0.62813164  1
  V  V24  1  0.13141094  0.25259827  0.36709432  1
  V  V25  1  0.12407263  0.49449090  0.13183730  1
  V  V26  1  0.00137365  0.12424341  0.12336274  1
  V  V27  1  0.12478064  0.75386566  0.87583331  1
  V  V28  1  0.87365646  0.25085035  0.12399604  1
  V  V29  1  0.87466670  0.12580509  0.75142268  1
  V  V30  1  0.49877013  0.50097744  0.50324696  1
  V  V31  1  0.62297655  0.49749773  0.62965242  1
  V  V32  1  0.62889067  -0.00752231  0.11563686  1
  V  V33  1  -0.00046647  -0.00355557  0.50112633  1
  V  V34  1  0.62216720  0.13143418  -0.00487888  1
  V  V35  1  0.12678975  0.12459007  0.49823363  1
  V  V36  1  0.12504274  0.25103032  0.87291072  1
  V  V37  1  0.37490363  0.11135293  0.25079675  1
  V  V38  1  0.74770028  -0.00670687  0.75839513  1
  V  V39  1  0.25343359  0.75537570  0.00599161  1
  V  V40  1  0.38038949  0.25070164  0.62551940  1
  V  V41  1  0.50244020  0.25353575  0.76564917  1
  V  V42  1  0.25340367  0.24805920  0.49741340  1
  V  V43  1  0.25497672  0.11161407  0.37032835  1
  V  V44  1  -0.00087056  0.62656621  0.62556848  1
  V  V45  1  0.87532703  0.12314699  0.25014550  1
  V  V46  1  0.74013509  0.12203555  0.37937585  1
  V  V47  1  0.25015153  0.62594685  0.37081287  1
  V  V48  1  0.86862468  0.75009603  0.62084032  1
  V  V49  1  0.62161481  0.37223797  0.76590605  1
  V  V50  1  0.37652157  0.37502742  0.49795687  1
  V  V51  1  0.12072246  0.75124428  0.37113834  1
  V  V52  1  0.37760292  0.25600956  0.12283256  1
  V  V53  1  0.86975469  0.87394555  0.01552387  1
  V  V54  1  0.37400182  0.89264314  -0.00402463  1
  V  V55  1  0.87366516  0.36304582  0.50552927  1
  V  V56  1  0.74713618  0.50034390  0.75259787  1
  V  V57  1  -0.00211230  0.50376790  0.00024525  1
  V  V58  1  0.74824862  0.75065539  0.01170997  1
  V  V59  1  -0.00602857  0.13286683  0.62307717  1
  V  V60  1  0.50294603  0.62835113  0.11362939  1
  V  V61  1  0.25130419  0.49902592  0.75310953  1
  V  V62  1  0.12615995  -0.00069042  0.62550934  1
  V  V63  1  0.74939271  -0.00672554  0.24350573  1
  V  V64  1  0.74015736  0.87417683  0.62519555  1
  V  V65  1  -0.00190830  0.37488238  0.87293194  1
  V  V66  1  0.50939973  0.00443841  0.49074197  1
  V  V67  1  0.25679503  0.74898524  0.50457948  1
  V  V68  1  0.62485867  0.49765298  0.13951507  1
  V  V69  1  -0.00986573  0.87771556  0.87303613  1
  V  V70  1  0.25507552  0.12414860  0.87447522  1
  V  V71  1  0.12620500  0.50025351  0.62628865  1
  V  V72  1  0.62803465  0.63301857  0.50384027  1
  V  V73  1  0.12525860  0.12455499  -0.00167764  1
  V  V74  1  0.38199629  0.62902242  0.24734880  1
  V  V75  1  0.37276278  0.50130783  0.37235990  1
  V  V76  1  0.12501612  0.62766931  0.00373186  1
  V  V77  1  -0.00041162  0.49827485  0.49957633  1
  V  V78  1  0.75100190  0.36568628  0.62854796  1
  V  V79  1  0.50028178  0.89134734  0.87652794  1
  V  V80  1  0.13768714  -0.00169639  0.12632068  1
  V  V81  1  -0.00530401  -0.00008312  -0.00390102  1
  V  V82  1  0.75100438  0.63016585  0.38227095  1
  V  V83  1  0.86410487  0.49573197  0.37324271  1
  V  V84  1  0.38010363  0.75824243  0.12576627  1
  Zn  Zn85  1  0.25255290  0.62610804  0.87887341  1
  Zn  Zn86  1  0.87255694  0.50342728  0.87678024  1
  Zn  Zn87  1  0.26047027  0.25858582  -0.00502243  1
  Zn  Zn88  1  0.50988983  0.12721538  0.61739471  1
  Zn  Zn89  1  0.62925215  0.25400151  0.37373840  1
  Zn  Zn90  1  0.12396103  0.37550835  0.74847308  1
  Zn  Zn91  1  0.24605697  0.49333454  0.25083618  1
  Zn  Zn92  1  -0.00413980  0.25297992  0.74444457  1
  Zn  Zn93  1  0.24871811  0.37156475  0.12692132  1
  Zn  Zn94  1  0.74024288  0.23123803  0.51477156  1
  Zn  Zn95  1  0.61596506  0.86481880  0.24291833  1
  Zn  Zn96  1  -0.00820402  0.63144118  0.12341314  1
  Zn  Zn97  1  0.24946009  0.37404552  0.62561075  1
  Zn  Zn98  1  0.50651797  0.24671016  0.24957779  1
  Zn  Zn99  1  0.62767380  0.00978015  0.62170421  1
  Zn  Zn100  1  0.62000667  0.75099764  0.37031862  1
  Zn  Zn101  1  0.12352418  0.87577605  0.75043407  1
  Zn  Zn102  1  0.49912896  0.86824966  0.36219459  1
  Zn  Zn103  1  0.00087256  0.75305240  0.74957363  1
  Zn  Zn104  1  0.74428551  0.25465323  -0.00122372  1
  Zn  Zn105  1  -0.00217267  0.87246549  0.37133090  1
  Zn  Zn106  1  -0.01116287  0.75672223  0.23537401  1
  Zn  Zn107  1  0.19292838  0.18520252  0.18722176  1
  Zn  Zn108  1  0.18777378  0.18798127  0.68668962  1
  Zn  Zn109  1  0.18885178  0.68908841  0.18629278  1
  Zn  Zn110  1  0.18881144  0.68687311  0.69046707  1
  Zn  Zn111  1  0.68464037  0.18908189  0.19103417  1
  Zn  Zn112  1  0.68286796  0.18430770  0.69245364  1
  Zn  Zn113  1  0.68554020  0.67422174  0.19029369  1
  Zn  Zn114  1  0.68341854  0.69124280  0.68976630  1
  Zn  Zn115  1  0.31548726  0.31099188  0.30214079  1
  Zn  Zn116  1  0.31377146  0.31217245  0.81154685  1
  Zn  Zn117  1  0.31219915  0.81137599  0.31066320  1
  Zn  Zn118  1  0.31514951  0.81315519  0.81789914  1
  Zn  Zn119  1  0.81477303  0.30679192  0.31633423  1
  Zn  Zn120  1  0.81471889  0.30978492  0.81023696  1
  Zn  Zn121  1  0.77772818  0.78993991  0.29001094  1
  Zn  Zn122  1  0.81352369  0.81249967  0.81253205  1
  Zn  Zn123  1  0.18852485  0.43670400  0.43633814  1
  Zn  Zn124  1  0.18897232  0.43587143  0.94279019  1
  Zn  Zn125  1  0.18621339  0.93319651  0.43687690  1
  Zn  Zn126  1  0.18689724  0.93790479  0.93780214  1
  Zn  Zn127  1  0.68564714  0.43661240  0.44611313  1
  Zn  Zn128  1  0.68762088  0.44185157  0.94260531  1
  Zn  Zn129  1  0.68817898  0.93221809  0.43259174  1
  Zn  Zn130  1  0.68771540  0.93732046  0.93639024  1
  Zn  Zn131  1  0.31353198  0.07065134  0.06237775  1
  Zn  Zn132  1  0.31561264  0.06311080  0.56489929  1
  Zn  Zn133  1  0.31133371  0.56372967  0.06267081  1
  Zn  Zn134  1  0.31336953  0.56362628  0.56541922  1
  Zn  Zn135  1  0.81197914  0.06166324  0.05806679  1
  Zn  Zn136  1  0.81308692  0.05699746  0.56638377  1
  Zn  Zn137  1  0.80334175  0.56203705  0.06118989  1
  Zn  Zn138  1  0.81227241  0.55485796  0.56366824  1
  Zn  Zn139  1  0.43519219  0.44193097  0.18624437  1
  Zn  Zn140  1  0.43667245  0.43648210  0.69190943  1
  Zn  Zn141  1  0.44079143  0.93810148  0.18269601  1
  Zn  Zn142  1  0.44084635  0.93864870  0.68118247  1
  Zn  Zn143  1  0.93681037  0.44131828  0.18866656  1
  Zn  Zn144  1  0.93514969  0.44005547  0.68799782  1
  Zn  Zn145  1  0.94530485  0.93711349  0.18736938  1
  Zn  Zn146  1  0.93198022  0.93996567  0.68785709  1
  Zn  Zn147  1  0.06570397  0.06083085  0.31231942  1
  Zn  Zn148  1  0.06280575  0.06179290  0.81115012  1
  Zn  Zn149  1  0.05432600  0.56683033  0.31180807  1
  Zn  Zn150  1  0.06275108  0.56487699  0.81540865  1
  Zn  Zn151  1  0.56031756  0.05106431  0.30788792  1
  Zn  Zn152  1  0.57016248  0.06665333  0.80764758  1
  Zn  Zn153  1  0.55899952  0.56836281  0.31493612  1
  Zn  Zn154  1  0.56089395  0.56363728  0.81830521  1
  Zn  Zn155  1  0.43904199  0.18703931  0.43196304  1
  Zn  Zn156  1  0.43842132  0.18108029  0.94045253  1
  Zn  Zn157  1  0.43768930  0.69151620  0.43925818  1
  Zn  Zn158  1  0.43770715  0.68695354  0.93794987  1
  Zn  Zn159  1  0.93657240  0.18698930  0.43638685  1
  Zn  Zn160  1  0.93367325  0.18785993  0.93371491  1
  Zn  Zn161  1  0.93523950  0.68659289  0.43593276  1
  Zn  Zn162  1  0.93413886  0.69311306  0.93971395  1
  Zn  Zn163  1  0.06329723  0.31314460  0.05735956  1
  Zn  Zn164  1  0.06609699  0.31307694  0.55809759  1
  Zn  Zn165  1  0.06018050  0.81359112  0.06485533  1
  Zn  Zn166  1  0.06350114  0.81229004  0.56381927  1
  Zn  Zn167  1  0.56369962  0.31042553  0.06705375  1
  Zn  Zn168  1  0.56664650  0.30844098  0.56131337  1
  Zn  Zn169  1  0.56001036  0.81459069  0.05573821  1
  Zn  Zn170  1  0.55609526  0.81293722  0.55978575  1
  O  O171  1  0.11946215  0.12060950  0.11957330  1
  O  O172  1  0.12049803  0.11860867  0.61752096  1
  O  O173  1  0.12253297  0.62071634  0.11337060  1
  O  O174  1  0.12032959  0.62037974  0.62023694  1
  O  O175  1  0.61998332  0.11944695  0.11735365  1
  O  O176  1  0.62397174  0.12566097  0.62030424  1
  O  O177  1  0.61569870  0.61075601  0.12728281  1
  O  O178  1  0.61566960  0.61862819  0.62437701  1
  O  O179  1  0.38062008  0.38114484  0.38176483  1
  O  O180  1  0.37392132  0.38986422  0.87253879  1
  O  O181  1  0.36969785  0.87216165  0.38939032  1
  O  O182  1  0.38639945  0.87407957  0.88598992  1
  O  O183  1  0.88136661  0.37872282  0.38299784  1
  O  O184  1  0.88100682  0.37729222  0.88230302  1
  O  O185  1  0.87755044  0.88154586  0.38471118  1
  O  O186  1  0.88721753  0.87150425  0.88089917  1
  O  O187  1  0.24431412  0.01307472  0.37955881  1
  O  O188  1  0.24400142  0.00782440  0.86144816  1
  O  O189  1  0.25471159  0.50921900  0.37486956  1
  O  O190  1  0.25981062  0.50221111  0.87202101  1
  O  O191  1  0.75832754  0.00752854  0.36671527  1
  O  O192  1  0.74916111  0.00431864  0.86237586  1
  O  O193  1  0.76131674  0.50065798  0.38312422  1
  O  O194  1  0.75064195  0.51174472  0.87189974  1
  O  O195  1  0.23243604  0.50383673  0.12389210  1
  O  O196  1  0.24474138  0.50048356  0.63500277  1
  O  O197  1  0.23645881  1.00712988  0.11936216  1
  O  O198  1  0.24709113  0.99485220  0.63519905  1
  O  O199  1  0.73246559  0.49372686  0.12135441  1
  O  O200  1  0.74291588  0.49265519  0.63590034  1
  O  O201  1  0.73835396  1.00874761  0.13012314  1
  O  O202  1  0.74858431  0.98965210  0.63343436  1
  O  O203  1  -0.00622455  0.36853225  0.26271086  1
  O  O204  1  -0.00104337  0.37622377  0.76120809  1
  O  O205  1  0.01008806  0.87126299  0.25379751  1
  O  O206  1  0.00108688  0.87652544  0.75755088  1
  O  O207  1  0.49314991  0.37857802  0.26474271  1
  O  O208  1  0.50596742  0.36250257  0.74897826  1
  O  O209  1  0.50200393  0.87439651  0.24698729  1
  O  O210  1  0.48702124  0.86458365  0.76044080  1
  O  O211  1  0.49049902  0.12106695  0.24397779  1
  O  O212  1  0.49438542  0.13627572  0.74998421  1
  O  O213  1  0.48777671  0.62267161  0.23880294  1
  O  O214  1  0.49457729  0.63279309  0.74761146  1
  O  O215  1  0.99489100  0.12925231  0.24481083  1
  O  O216  1  0.99283579  0.12201771  0.74073457  1
  O  O217  1  0.98337201  0.63089003  0.25010133  1
  O  O218  1  0.99093774  0.62574897  0.74514819  1
  O  O219  1  0.37688218  0.23986112  0.01718236  1
  O  O220  1  0.37399981  0.25639257  0.50549693  1
  O  O221  1  0.36873290  0.75375530  0.00649285  1
  O  O222  1  0.36123425  0.75825047  0.50112189  1
  O  O223  1  0.87522866  0.26035594  0.00669671  1
  O  O224  1  0.86979066  0.26061860  0.49736120  1
  O  O225  1  0.86188450  0.76344922  -0.00318486  1
  O  O226  1  0.88104314  0.75782026  0.51008698  1
  O  O227  1  0.13235407  0.24369259  0.48932432  1
  O  O228  1  0.12146043  0.24189507  0.98616731  1
  O  O229  1  0.13353864  0.74621103  0.49318708  1
  O  O230  1  0.13181615  0.74781617  0.99375321  1
  O  O231  1  0.63418146  0.26153800  0.48766100  1
  O  O232  1  0.62721453  0.23695582  1.00454645  1
  O  O233  1  0.62330804  0.73466835  0.50621405  1
  O  O234  1  0.63921213  0.75797088  0.98860446  1
  O  O235  1  0.49446551  0.23774344  0.12659772  1
  O  O236  1  0.48930043  0.25066298  0.62905078  1
  O  O237  1  0.49295965  0.74151008  0.11501261  1
  O  O238  1  0.50358519  0.74198473  0.63737352  1
  O  O239  1  0.99620763  0.24581466  0.12918532  1
  O  O240  1  1.00874286  0.23665977  0.62429956  1
  O  O241  1  0.99655669  0.74418769  0.12160937  1
  O  O242  1  0.99136755  0.74403701  0.62784012  1
  O  O243  1  0.00864215  0.25544782  0.37069678  1
  O  O244  1  0.00578571  0.25898278  0.87269944  1
  O  O245  1  0.01403737  0.74869876  0.37703470  1
  O  O246  1  0.00741468  0.75894803  0.87515090  1
  O  O247  1  0.49786847  0.26806476  0.37532841  1
  O  O248  1  0.49239438  0.24992069  0.86363093  1
  O  O249  1  0.50600573  0.75292855  0.38016722  1
  O  O250  1  0.50657028  0.75451554  0.87047378  1
  O  O251  1  0.24878186  0.13072761  0.49351531  1
  O  O252  1  0.24407970  0.12889142  0.98839555  1
  O  O253  1  0.24664566  0.63223884  0.49553008  1
  O  O254  1  0.24142733  0.63429754  0.99894569  1
  O  O255  1  0.75989630  0.11883192  0.48388688  1
  O  O256  1  0.74627108  0.12807867  0.99092733  1
  O  O257  1  0.73835815  0.61203782  0.49667635  1
  O  O258  1  0.75761682  0.64084673  0.98967871  1
  O  O259  1  0.24138496  0.36849411  0.01256794  1
  O  O260  1  0.26246732  0.36879635  0.49962426  1
  O  O261  1  0.26515843  0.87022200  -0.00864881  1
  O  O262  1  0.25705836  0.87030235  0.50651124  1
  O  O263  1  0.76127446  0.37631254  0.00461698  1
  O  O264  1  0.75960891  0.37920347  0.51345852  1
  O  O265  1  0.76202435  0.86752819  -0.00396695  1
  O  O266  1  0.76292319  0.88188336  0.50889527  1
  O  O267  1  0.12056772  0.50983852  0.23413200  1
  O  O268  1  0.13464871  0.50179561  0.74743663  1
  O  O269  1  0.12003510  0.98778973  0.24150150  1
  O  O270  1  0.13448743  0.99904483  0.74276000  1
  O  O271  1  0.61636075  0.50043924  0.23806511  1
  O  O272  1  0.62617073  0.49374811  0.74851503  1
  O  O273  1  0.63509363  0.99898334  0.23500760  1
  O  O274  1  0.64356798  1.00291855  0.74458750  1
  O  O275  1  0.37236334  0.01270222  0.24013863  1
  O  O276  1  0.37004375  0.01224398  0.74334436  1
  O  O277  1  0.37222011  0.51159333  0.25471260  1
  O  O278  1  0.37124003  0.50724163  0.76111090  1
  O  O279  1  0.87583349  0.01051250  0.25055964  1
  O  O280  1  0.86068901  0.01215353  0.74409127  1
  O  O281  1  0.88289394  0.50932213  0.26466947  1
  O  O282  1  0.86830134  0.51303107  0.75210278  1
  O  O283  1  0.11594321  0.36484185  0.38117240  1
  O  O284  1  0.11536129  0.36879693  0.87450790  1
  O  O285  1  0.12285181  0.86805048  0.36568930  1
  O  O286  1  0.11522910  0.86808004  0.87613334  1
  O  O287  1  0.60823145  0.38638506  0.37726773  1
  O  O288  1  0.63115946  0.37860391  0.86487035  1
  O  O289  1  0.62512820  0.87033812  0.36637709  1
  O  O290  1  0.60947960  0.87111575  0.87818153  1
  O  O291  1  0.38354444  0.12845082  0.13273385  1
  O  O292  1  0.37911052  0.13399852  0.63356477  1
  O  O293  1  0.38154137  0.63199668  0.12964590  1
  O  O294  1  0.38742305  0.61900053  0.63653068  1
  O  O295  1  0.88112748  0.12951612  0.12982396  1
  O  O296  1  0.88535635  0.12147347  0.63083799  1
  O  O297  1  0.86869220  0.61312129  0.14196374  1
  O  O298  1  0.87685413  0.63068240  0.63026787  1
  O  O299  1  0.26657131  0.24546365  0.12369297  1
  O  O300  1  0.26198794  0.25097721  0.61932865  1
  O  O301  1  0.25731178  0.74962548  0.11193270  1
  O  O302  1  0.24297265  0.75849278  0.61751069  1
  O  O303  1  0.75698487  0.25940339  0.12424343  1
  O  O304  1  0.74846545  0.26194885  0.63009273  1
  O  O305  1  0.74438954  0.74202265  0.10936522  1
  O  O306  1  0.76110599  0.75664519  0.63238336  1
  O  O307  1  0.24561107  0.24409937  0.37782775  1
  O  O308  1  0.24300903  0.24337684  0.87336484  1
  O  O309  1  0.24049874  0.74434540  0.38205218  1
  O  O310  1  0.24255396  0.74944988  0.88543281  1
  O  O311  1  0.75389019  0.22972072  0.37451579  1
  O  O312  1  0.75278977  0.23780333  0.87649800  1
  O  O313  1  0.75556983  0.73104754  0.39098562  1
  O  O314  1  0.74193986  0.74739107  0.87621926  1
  O  O315  1  0.00307041  0.11777639  0.00139382  1
  O  O316  1  0.00378012  0.11823731  0.50554643  1
  O  O317  1  0.00360057  0.61786287  -0.00284619  1
  O  O318  1  0.00600375  0.61924564  0.50545449  1
  O  O319  1  0.50982046  0.12207325  0.00668357  1
  O  O320  1  0.49061603  0.10727005  0.49641646  1
  O  O321  1  0.49469981  0.61468049  0.01092357  1
  O  O322  1  0.50201066  0.61978091  0.51177889  1
  O  O323  1  0.48906398  0.38127733  0.49567971  1
  O  O324  1  0.50183579  0.38690360  1.00296143  1
  O  O325  1  0.48430276  0.88204280  0.50179544  1
  O  O326  1  0.48951666  0.87781399  0.98514386  1
  O  O327  1  0.99293272  0.37693914  0.49204025  1
  O  O328  1  0.99026348  0.38264677  0.99245374  1
  O  O329  1  0.99298615  0.88240508  0.50041174  1
  O  O330  1  0.98911573  0.88119137  0.99512622  1
  O  O331  1  0.49147732  0.49480451  0.38145644  1
  O  O332  1  0.49034704  0.50294800  0.88860169  1
  O  O333  1  0.49953604  0.99126948  0.38712560  1
  O  O334  1  0.50259680  0.98905004  0.86368152  1
  O  O335  1  0.99651050  0.49072434  0.38106698  1
  O  O336  1  0.99836333  0.49355828  0.88468966  1
  O  O337  1  0.99655460  1.00078529  0.38777036  1
  O  O338  1  1.00752136  0.99302836  0.88783829  1
  O  O339  1  0.00728150  0.00582045  0.11233751  1
  O  O340  1  0.00397165  0.00583466  0.61527981  1
  O  O341  1  0.00629095  0.50627439  0.11513648  1
  O  O342  1  0.00597744  0.50631027  0.62061239  1
  O  O343  1  0.51564161  0.01100479  0.12490404  1
  O  O344  1  0.50393013  0.00149135  0.61100923  1
  O  O345  1  0.50629842  0.50290417  0.11539190  1
  O  O346  1  0.50380392  0.50660177  0.62491477  1
  O  O347  1  0.25233359  0.37991126  0.24135056  1
  O  O348  1  0.24960498  0.38791813  0.74885477  1
  O  O349  1  0.23433558  0.87373467  0.25298676  1
  O  O350  1  0.25221400  0.88165255  0.74589788  1
  O  O351  1  0.76037691  0.37533260  0.24221159  1
  O  O352  1  0.74504683  0.37993574  0.74713577  1
  O  O353  1  0.76268453  0.89388766  0.24683017  1
  O  O354  1  0.75829595  0.88682078  0.74343962  1
  O  O355  1  0.26367587  0.12664215  0.25726834  1
  O  O356  1  0.25790669  0.11907099  0.75365590  1
  O  O357  1  0.25958368  0.62399020  0.25535259  1
  O  O358  1  0.25855007  0.61573642  0.75289012  1
  O  O359  1  0.75985371  0.11685740  0.25743182  1
  O  O360  1  0.75567288  0.11871774  0.75795566  1
  O  O361  1  0.76076639  0.61765206  0.26572169  1
  O  O362  1  0.75480030  0.62210798  0.75635242  1
  O  O363  1  0.36984856  0.12715016  0.35977863  1
  O  O364  1  0.36288845  0.12964978  0.86588256  1
  O  O365  1  0.37021395  0.62280846  0.36755793  1
  O  O366  1  0.37423461  0.61555163  0.86889444  1
  O  O367  1  0.87371887  0.11763980  0.36564472  1
  O  O368  1  0.86650676  0.12233430  0.86734991  1
  O  O369  1  0.86920129  0.61332991  0.37511376  1
  O  O370  1  0.86573252  0.62860496  0.86647229  1
  O  O371  1  0.11476694  0.39276841  0.12325842  1
  O  O372  1  0.12730972  0.38442750  0.62643010  1
  O  O373  1  0.12402303  0.88292856  0.13524150  1
  O  O374  1  0.13676468  0.88131940  0.62621601  1
  O  O375  1  0.63250434  0.38586143  0.12403597  1
  O  O376  1  0.63201976  0.38106631  0.63488614  1
  O  O377  1  0.62335377  0.88953720  0.11834622  1
  O  O378  1  0.63843427  0.87156033  0.61893370  1
  O  O379  1  0.12158189  0.24387639  0.26045987  1
  O  O380  1  0.12190364  0.25193839  0.76035323  1
  O  O381  1  0.12471205  0.75901042  0.25519527  1
  O  O382  1  0.12456884  0.75084194  0.76401810  1
  O  O383  1  0.61984271  0.24751401  0.25994552  1
  O  O384  1  0.61010514  0.25663912  0.75154988  1
  O  O385  1  0.66557381  0.75961480  0.25881548  1
  O  O386  1  0.61415717  0.75012093  0.76292475  1
  O  O387  1  0.38351895  0.23864910  0.23786802  1
  O  O388  1  0.38313884  0.24479365  0.74373988  1
  O  O389  1  0.36703031  0.74566944  0.23293624  1
  O  O390  1  0.38086117  0.73671258  0.75808712  1
  O  O391  1  0.88242607  0.23827441  0.24578214  1
  O  O392  1  0.87864704  0.23400694  0.75129651  1
  O  O393  1  0.87159210  0.73097215  0.25825637  1
  O  O394  1  0.87679848  0.73974437  0.74294069  1
  O  O395  1  0.37780669  0.49372851  0.49527960  1
  O  O396  1  0.38137465  0.50225649  0.99094731  1
  O  O397  1  0.37708172  0.98767386  0.50183944  1
  O  O398  1  0.37022153  0.99101676  1.00001060  1
  O  O399  1  0.88355993  0.49099009  0.49342359  1
  O  O400  1  0.88113562  0.49527466  0.99992687  1
  O  O401  1  0.88355297  0.99138273  0.49758253  1
  O  O402  1  0.88158107  0.98713427  1.00161342  1
  O  O403  1  0.11858475  0.00504776  0.00592132  1
  O  O404  1  0.11853192  0.00401212  0.50414846  1
  O  O405  1  0.11619131  0.50985055  0.00492244  1
  O  O406  1  0.12082256  0.50617521  0.50532713  1
  O  O407  1  0.63440351  0.00994460  0.01070751  1
  O  O408  1  0.61163220  -0.00689050  0.49951691  1
  O  O409  1  0.61097936  0.50026275  0.00518204  1
  O  O410  1  0.61539596  0.50620593  0.51125215  1
  O  O411  1  0.38213112  0.35834202  0.12738996  1
  O  O412  1  0.37368424  0.36938425  0.61691423  1
  O  O413  1  0.38291774  0.86941791  0.10582466  1
  O  O414  1  0.36227381  0.87722229  0.61561913  1
  O  O415  1  0.86945948  0.37384304  0.11888518  1
  O  O416  1  0.86633762  0.38012747  0.61788720  1
  O  O417  1  0.87660718  0.87693136  0.11382530  1
  O  O418  1  0.86938943  0.86626741  0.61899467  1
  O  O419  1  0.13218890  0.13206443  0.37938768  1
  O  O420  1  0.13371120  0.13176722  0.87575695  1
  O  O421  1  0.12998626  0.63094875  0.37862721  1
  O  O422  1  0.12532442  0.63378694  0.88721954  1
  O  O423  1  0.63960064  0.11599908  0.37149252  1
  O  O424  1  0.63655317  0.11961016  0.88440304  1
  O  O425  1  0.63248475  0.62235848  0.38604228  1
  O  O426  1  0.63569092  0.63470948  0.87224633  1
