# generated using pymatgen
data_V85Zn86O256
_symmetry_space_group_name_H-M   'P 1'
_cell_length_a   16.93897604
_cell_length_b   16.93310169
_cell_length_c   16.93603363
_cell_angle_alpha   89.96071684
_cell_angle_beta   89.96240761
_cell_angle_gamma   90.06615000
_symmetry_Int_Tables_number   1
_chemical_formula_structural   V85Zn86O256
_chemical_formula_sum   'V85 Zn86 O256'
_cell_volume   4857.74700096
_cell_formula_units_Z   1
loop_
 _symmetry_equiv_pos_site_id
 _symmetry_equiv_pos_as_xyz
  1  'x, y, z'
loop_
 _atom_site_type_symbol
 _atom_site_label
 _atom_site_symmetry_multiplicity
 _atom_site_fract_x
 _atom_site_fract_y
 _atom_site_fract_z
 _atom_site_occupancy
  V  V0  1  0.87206327  0.87384262  -0.00282802  1
  V  V1  1  0.00002432  0.00350463  0.49925542  1
  V  V2  1  0.61556915  0.62683138  -0.00044505  1
  V  V3  1  0.50002607  0.61976970  0.61250247  1
  V  V4  1  0.35968598  0.87263895  0.50118477  1
  V  V5  1  0.13446582  0.12981308  0.50082387  1
  V  V6  1  0.49601997  0.74984969  0.74868749  1
  V  V7  1  0.62706457  0.87099567  0.26101510  1
  V  V8  1  0.75242384  0.62500159  0.87436279  1
  V  V9  1  0.12235205  0.61797446  0.00988584  1
  V  V10  1  0.62458206  -0.00065700  0.62371797  1
  V  V11  1  0.62536955  0.87444300  0.74960654  1
  V  V12  1  0.12335770  0.12982648  -0.00107562  1
  V  V13  1  0.36982104  0.37106367  0.49860662  1
  V  V14  1  0.12852490  0.74969322  0.37677351  1
  V  V15  1  0.37812586  0.50360129  0.37677190  1
  V  V16  1  0.88043292  0.00528191  0.36903086  1
  V  V17  1  0.49790613  0.24863929  0.74584409  1
  V  V18  1  0.75144924  0.50183032  0.74792036  1
  V  V19  1  0.50201785  0.38269493  0.38379199  1
  V  V20  1  -0.00278488  0.00262214  -0.00226973  1
  V  V21  1  0.37408981  0.24983256  0.12599198  1
  V  V22  1  0.75388700  0.00360329  0.25099112  1
  V  V23  1  0.25283018  0.62685198  0.37741951  1
  V  V24  1  0.74827374  0.74787113  0.00629279  1
  V  V25  1  0.75783447  0.12978784  0.37300242  1
  V  V26  1  0.75129949  0.25234061  0.50042676  1
  V  V27  1  0.24516040  0.36771118  0.62153238  1
  V  V28  1  0.87261215  0.24541491  0.63143128  1
  V  V29  1  0.37313609  0.50048321  0.87534041  1
  V  V30  1  0.62621085  0.74647293  0.87010597  1
  V  V31  1  0.25281171  0.50599645  0.24745294  1
  V  V32  1  0.62381605  0.37886701  0.25040685  1
  V  V33  1  -0.00618627  0.12227168  0.13332003  1
  V  V34  1  0.12501664  0.25937035  0.87101331  1
  V  V35  1  0.13504130  0.87329678  0.24227021  1
  V  V36  1  0.75539322  0.63751217  0.36017901  1
  V  V37  1  0.49741271  -0.00070701  0.49820338  1
  V  V38  1  0.50048652  0.37407047  0.87412227  1
  V  V39  1  0.00108477  0.87460808  0.37016348  1
  V  V40  1  0.24870122  -0.00787845  0.74926717  1
  V  V41  1  0.37508680  0.37604961  0.00099814  1
  V  V42  1  0.37259799  0.12226246  0.75019717  1
  V  V43  1  0.62236981  0.23841023  0.88116317  1
  V  V44  1  0.63705886  0.63111526  0.48655897  1
  V  V45  1  0.01178433  0.86827401  0.87040027  1
  V  V46  1  0.88503470  0.62516716  0.74661286  1
  V  V47  1  0.36153626  0.75021277  0.61887949  1
  V  V48  1  0.37455091  0.62089467  0.74799714  1
  V  V49  1  0.50439129  0.86210833  0.37901901  1
  V  V50  1  0.49851675  0.50021628  0.00181211  1
  V  V51  1  0.86979218  0.24058733  0.13661680  1
  V  V52  1  0.87162906  0.86897347  0.49557069  1
  V  V53  1  0.12750579  -0.00398481  0.62752585  1
  V  V54  1  0.74869384  0.37686713  0.62387325  1
  V  V55  1  0.12138973  0.37997364  0.24537113  1
  V  V56  1  0.24566422  0.38354551  0.12421879  1
  V  V57  1  0.62589501  0.25338091  0.37698198  1
  V  V58  1  0.75535784  0.00519685  0.74837534  1
  V  V59  1  0.75027219  0.86742782  0.62118820  1
  V  V60  1  0.13294562  0.25329678  0.37778907  1
  V  V61  1  -0.00002414  0.74700785  0.23830731  1
  V  V62  1  0.25303403  0.76452456  0.01845717  1
  V  V63  1  0.62564956  0.37477140  0.75090236  1
  V  V64  1  0.61933497  0.00813461  0.12835660  1
  V  V65  1  0.75560295  0.37526353  0.11955890  1
  V  V66  1  0.24088260  0.63160610  0.87840824  1
  V  V67  1  0.13455369  -0.00206333  0.12199534  1
  V  V68  1  0.75932852  0.11912799  0.87603511  1
  V  V69  1  0.00107842  0.25431246  0.75373266  1
  V  V70  1  0.87820040  0.49340223  0.88989235  1
  V  V71  1  -0.00454086  0.12357189  0.63071469  1
  V  V72  1  0.24356783  0.49029913  0.75018989  1
  V  V73  1  0.24933924  0.24951184  -0.00048664  1
  V  V74  1  0.11691076  0.49353643  0.62567802  1
  V  V75  1  -0.00260829  0.37920041  0.37406862  1
  V  V76  1  0.62133654  0.49765002  0.12286783  1
  V  V77  1  0.12440894  0.62570885  0.50164577  1
  V  V78  1  0.44887583  0.70813099  0.18090879  1
  V  V79  1  0.75546466  0.24845134  -0.00210722  1
  V  V80  1  -0.00563029  0.50757961  0.49956640  1
  V  V81  1  0.87285831  0.38104158  0.49691157  1
  V  V82  1  0.88070376  0.74555368  0.62356616  1
  V  V83  1  0.62442577  0.12628451  0.50057006  1
  V  V84  1  0.49822549  0.24744103  0.25197764  1
  Zn  Zn85  1  0.74749404  0.50428626  0.25663357  1
  Zn  Zn86  1  0.88484311  0.60650148  0.24891392  1
  Zn  Zn87  1  -0.00474148  0.60320771  0.11632439  1
  Zn  Zn88  1  0.61862374  0.49952721  0.61914335  1
  Zn  Zn89  1  0.87284705  0.74529744  0.12523694  1
  Zn  Zn90  1  0.74904908  0.87539935  0.12833180  1
  Zn  Zn91  1  0.37288442  -0.00960241  0.88427576  1
  Zn  Zn92  1  0.00113044  0.38134372  0.87531853  1
  Zn  Zn93  1  0.87874567  0.00040136  0.86908139  1
  Zn  Zn94  1  0.49746307  0.12406232  0.62393030  1
  Zn  Zn95  1  -0.00321181  0.24701736  0.25265893  1
  Zn  Zn96  1  0.50538143  0.13169834  0.11405533  1
  Zn  Zn97  1  0.49733513  0.00759313  -0.00588668  1
  Zn  Zn98  1  0.24909621  0.12328730  0.87416272  1
  Zn  Zn99  1  0.48719362  0.86983632  0.89517192  1
  Zn  Zn100  1  0.37339998  0.11761033  0.24889024  1
  Zn  Zn101  1  0.36769038  0.24680855  0.61960577  1
  Zn  Zn102  1  0.37317946  -0.00122367  0.36890356  1
  Zn  Zn103  1  0.18410106  0.82776019  0.68011855  1
  Zn  Zn104  1  0.25484812  0.12582620  0.37220309  1
  Zn  Zn105  1  0.01295480  0.75227293  0.74869362  1
  Zn  Zn106  1  0.25419347  0.00084610  0.24897222  1
  Zn  Zn107  1  0.18585318  0.18908297  0.18834135  1
  Zn  Zn108  1  0.18443807  0.18289207  0.68905151  1
  Zn  Zn109  1  0.18984509  0.68682320  0.18677055  1
  Zn  Zn110  1  0.18155528  0.66638403  0.69078371  1
  Zn  Zn111  1  0.68909903  0.18894684  0.19345132  1
  Zn  Zn112  1  0.68519991  0.18629787  0.69004666  1
  Zn  Zn113  1  0.65128578  0.69169913  0.18195103  1
  Zn  Zn114  1  0.68832287  0.68618205  0.68190234  1
  Zn  Zn115  1  0.31196197  0.31522938  0.31099329  1
  Zn  Zn116  1  0.31202217  0.31070025  0.81162929  1
  Zn  Zn117  1  0.31790406  0.81031273  0.31008653  1
  Zn  Zn118  1  0.31208111  0.80850110  0.81461218  1
  Zn  Zn119  1  0.81253865  0.32096661  0.31055749  1
  Zn  Zn120  1  0.81329649  0.31124453  0.81312211  1
  Zn  Zn121  1  0.81103817  0.80836769  0.31337630  1
  Zn  Zn122  1  0.81484381  0.81314789  0.81195937  1
  Zn  Zn123  1  0.18681241  0.43930836  0.43714808  1
  Zn  Zn124  1  0.18775464  0.43887849  0.93654738  1
  Zn  Zn125  1  0.18619536  0.94180536  0.43402064  1
  Zn  Zn126  1  0.19012000  0.94001767  0.93687293  1
  Zn  Zn127  1  0.68608621  0.45205898  0.43869748  1
  Zn  Zn128  1  0.68964693  0.43478686  0.93606897  1
  Zn  Zn129  1  0.69046611  0.93975459  0.43826699  1
  Zn  Zn130  1  0.65870480  0.92111528  0.95527452  1
  Zn  Zn131  1  0.31797771  0.06274410  0.06010935  1
  Zn  Zn132  1  0.31294484  0.06005625  0.56445810  1
  Zn  Zn133  1  0.32167199  0.57719915  0.06811098  1
  Zn  Zn134  1  0.31076444  0.55714494  0.55935986  1
  Zn  Zn135  1  0.80868531  0.06327755  0.05802682  1
  Zn  Zn136  1  0.81282886  0.05976088  0.55936180  1
  Zn  Zn137  1  0.80917761  0.56558042  0.06923032  1
  Zn  Zn138  1  0.80817284  0.56546189  0.55936277  1
  Zn  Zn139  1  0.43639632  0.44056922  0.19062060  1
  Zn  Zn140  1  0.43320003  0.43552986  0.68561532  1
  Zn  Zn141  1  0.43369014  0.92164106  0.18714546  1
  Zn  Zn142  1  0.43340933  0.93345422  0.68918140  1
  Zn  Zn143  1  0.92969151  0.43658201  0.18956061  1
  Zn  Zn144  1  0.93549832  0.43548803  0.68731173  1
  Zn  Zn145  1  0.93921023  0.93219080  0.18307632  1
  Zn  Zn146  1  0.93725950  0.93532845  0.68696374  1
  Zn  Zn147  1  0.07059196  0.06329490  0.31103253  1
  Zn  Zn148  1  0.06278619  0.06515984  0.81216489  1
  Zn  Zn149  1  0.06334936  0.56061614  0.31094465  1
  Zn  Zn150  1  0.06170559  0.56122562  0.81399315  1
  Zn  Zn151  1  0.56285734  0.06333663  0.31467836  1
  Zn  Zn152  1  0.55938883  0.06022597  0.81443969  1
  Zn  Zn153  1  0.55766073  0.57250864  0.30899309  1
  Zn  Zn154  1  0.56179885  0.56217172  0.80988564  1
  Zn  Zn155  1  0.43526089  0.18706400  0.43549172  1
  Zn  Zn156  1  0.43755577  0.17967958  0.93783445  1
  Zn  Zn157  1  0.43405656  0.68960620  0.43530843  1
  Zn  Zn158  1  0.43182701  0.68988839  0.93791168  1
  Zn  Zn159  1  0.94212878  0.19185358  0.44120461  1
  Zn  Zn160  1  0.97515802  0.24645414  0.98846749  1
  Zn  Zn161  1  0.93539302  0.68862109  0.43050540  1
  Zn  Zn162  1  0.93864007  0.68687389  0.93587894  1
  Zn  Zn163  1  0.05241635  0.42890813  0.05338125  1
  Zn  Zn164  1  0.05913055  0.31239537  0.56132991  1
  Zn  Zn165  1  0.07259149  0.81007457  0.05258075  1
  Zn  Zn166  1  0.05580055  0.81062898  0.55552089  1
  Zn  Zn167  1  0.56465397  0.30993339  0.06023846  1
  Zn  Zn168  1  0.56123063  0.31548892  0.56272614  1
  Zn  Zn169  1  0.53835829  0.82577128  0.08067946  1
  Zn  Zn170  1  0.55733170  0.80815667  0.56339611  1
  O  O171  1  0.11609778  0.11959712  0.11729004  1
  O  O172  1  0.11579261  0.11832588  0.61743128  1
  O  O173  1  0.12593353  0.62197730  0.11229931  1
  O  O174  1  0.12731133  0.60834074  0.60872714  1
  O  O175  1  0.62207626  0.11270396  0.14304990  1
  O  O176  1  0.62375495  0.11856869  0.61793895  1
  O  O177  1  0.63992299  0.60280338  0.10876359  1
  O  O178  1  0.60911746  0.62208504  0.62794333  1
  O  O179  1  0.38244583  0.38024745  0.38008256  1
  O  O180  1  0.37940483  0.38095878  0.88036570  1
  O  O181  1  0.38888308  0.87474613  0.38385379  1
  O  O182  1  0.38303653  0.87815198  0.85775075  1
  O  O183  1  0.88177585  0.36933289  0.38839391  1
  O  O184  1  0.87010850  0.39088357  0.87324938  1
  O  O185  1  0.87999637  0.88072096  0.38012982  1
  O  O186  1  0.87833641  0.87865974  0.88601815  1
  O  O187  1  0.25256590  0.00499567  0.36964931  1
  O  O188  1  0.25022173  0.00411137  0.86391326  1
  O  O189  1  0.25622032  0.50642370  0.36861226  1
  O  O190  1  0.25503554  0.50260976  0.86694789  1
  O  O191  1  0.75990489  0.00970359  0.37015347  1
  O  O192  1  0.74474153  0.01149491  0.86728368  1
  O  O193  1  0.73973388  0.52620892  0.37275008  1
  O  O194  1  0.75837973  0.50520023  0.86818400  1
  O  O195  1  0.26422618  0.49574274  0.13473031  1
  O  O196  1  0.24201101  0.49095879  0.63169909  1
  O  O197  1  0.23629030  1.00560574  0.12386441  1
  O  O198  1  0.23778920  1.00443713  0.63268507  1
  O  O199  1  0.74098352  0.48701786  0.12291534  1
  O  O200  1  0.74728193  0.49520121  0.63286688  1
  O  O201  1  0.75338552  1.00265856  0.14335512  1
  O  O202  1  0.74429490  0.99308068  0.62981049  1
  O  O203  1  0.00631029  0.37161040  0.25881229  1
  O  O204  1  -0.00636846  0.35943709  0.75286429  1
  O  O205  1  0.00941797  0.86573402  0.25270129  1
  O  O206  1  -0.00580208  0.87728412  0.76678130  1
  O  O207  1  0.50918529  0.36878855  0.25699083  1
  O  O208  1  0.50289684  0.36879262  0.75500980  1
  O  O209  1  0.51619841  0.88557562  0.27279306  1
  O  O210  1  0.51047770  0.85944130  0.73856022  1
  O  O211  1  0.49971860  0.14092323  0.25192126  1
  O  O212  1  0.49362205  0.13282913  0.74651420  1
  O  O213  1  0.50363638  0.64058237  0.24021011  1
  O  O214  1  0.49378002  0.63339484  0.74552552  1
  O  O215  1  1.00641492  0.12651575  0.23696308  1
  O  O216  1  1.00007190  0.13259454  0.73687315  1
  O  O217  1  1.00344271  0.63703660  0.24870482  1
  O  O218  1  0.98761169  0.62728325  0.75272818  1
  O  O219  1  0.36964181  0.25661963  0.00566592  1
  O  O220  1  0.38156886  0.26542620  0.50160468  1
  O  O221  1  0.34989292  0.74823655  -0.01300801  1
  O  O222  1  0.37592690  0.75899129  0.50762492  1
  O  O223  1  0.85925258  0.24545397  0.01343982  1
  O  O224  1  0.86971903  0.25866511  0.51001845  1
  O  O225  1  0.86532152  0.75452694  -0.00077154  1
  O  O226  1  0.88161995  0.76182473  0.50462194  1
  O  O227  1  0.11747577  0.24194577  0.49114539  1
  O  O228  1  0.13061044  0.23887226  0.99112790  1
  O  O229  1  0.11696273  0.73833128  0.49014632  1
  O  O230  1  0.14272045  0.73334075  1.00108738  1
  O  O231  1  0.63175546  0.24818736  0.49579508  1
  O  O232  1  0.63588453  0.25330382  0.98880032  1
  O  O233  1  0.62060448  0.72773153  0.51416040  1
  O  O234  1  0.63376850  0.73894763  0.98595522  1
  O  O235  1  0.49325932  0.25434913  0.13402490  1
  O  O236  1  0.50016830  0.25165475  0.63752144  1
  O  O237  1  0.54961383  0.72408294  0.12652301  1
  O  O238  1  0.48976759  0.73653707  0.63134961  1
  O  O239  1  0.98265894  0.23675508  0.12250852  1
  O  O240  1  0.99200067  0.24427144  0.63079560  1
  O  O241  1  1.00505425  0.75160142  0.13506418  1
  O  O242  1  0.98425930  0.75798941  0.62859223  1
  O  O243  1  0.00717837  0.26220849  0.37459029  1
  O  O244  1  0.00895033  0.24560855  0.86702399  1
  O  O245  1  0.01054447  0.75378379  0.36452701  1
  O  O246  1  -0.00256946  0.76419847  0.87246818  1
  O  O247  1  0.50640518  0.26143486  0.36958726  1
  O  O248  1  0.50632498  0.25355789  0.86508772  1
  O  O249  1  0.50555613  0.76380467  0.38387650  1
  O  O250  1  0.50674658  0.74987356  0.86545091  1
  O  O251  1  0.23722242  0.12440826  0.50133750  1
  O  O252  1  0.24160314  0.13347272  1.00128189  1
  O  O253  1  0.23812971  0.61696895  0.48778654  1
  O  O254  1  0.24441920  0.62241202  0.98954526  1
  O  O255  1  0.74571313  0.13028092  0.49099942  1
  O  O256  1  0.74788288  0.13085834  0.98415080  1
  O  O257  1  0.74190720  0.62969978  0.49154966  1
  O  O258  1  0.74310231  0.62988638  0.99210360  1
  O  O259  1  0.25522044  0.37197033  0.00722548  1
  O  O260  1  0.25720156  0.37934723  0.50818755  1
  O  O261  1  0.23876044  0.86333218  0.00372752  1
  O  O262  1  0.26057545  0.87747745  0.49560558  1
  O  O263  1  0.74424441  0.36426841  0.00916172  1
  O  O264  1  0.75486481  0.37496123  0.50274311  1
  O  O265  1  0.75396151  0.86544734  0.00009520  1
  O  O266  1  0.76031714  0.88216345  0.50841541  1
  O  O267  1  0.13544456  0.48631301  0.25819595  1
  O  O268  1  0.13078379  0.50396308  0.73915656  1
  O  O269  1  0.12371516  0.98978137  0.23911605  1
  O  O270  1  0.13287757  1.00621151  0.73919123  1
  O  O271  1  0.62297449  0.49441499  0.23976352  1
  O  O272  1  0.63752428  0.49411970  0.75208958  1
  O  O273  1  0.63741185  0.99833446  0.25180842  1
  O  O274  1  0.63136511  0.99107422  0.74186606  1
  O  O275  1  0.37403285  -0.00405753  0.24598115  1
  O  O276  1  0.36566099  0.00868698  0.74331964  1
  O  O277  1  0.36492363  0.49375411  0.26424977  1
  O  O278  1  0.36702892  0.50308130  0.75528802  1
  O  O279  1  0.87285317  -0.00697778  0.26270323  1
  O  O280  1  0.85912651  -0.00535899  0.74966804  1
  O  O281  1  0.86026992  0.49499845  0.25228818  1
  O  O282  1  0.86465233  0.50666529  0.74986111  1
  O  O283  1  0.11794119  0.37023172  0.37065951  1
  O  O284  1  0.12899684  0.36246450  0.87214846  1
  O  O285  1  0.11943498  0.86690104  0.36886691  1
  O  O286  1  0.10968674  0.87854890  0.87903255  1
  O  O287  1  0.62004746  0.37626939  0.36998203  1
  O  O288  1  0.62046844  0.36569728  0.86856349  1
  O  O289  1  0.61719324  0.88302934  0.37307974  1
  O  O290  1  0.63434680  0.86564348  0.85554610  1
  O  O291  1  0.37786852  0.14181317  0.12745078  1
  O  O292  1  0.37662341  0.12961703  0.63376518  1
  O  O293  1  0.39433089  0.64588330  0.12074581  1
  O  O294  1  0.38073472  0.62707386  0.62656548  1
  O  O295  1  0.88024411  0.12746529  0.12384133  1
  O  O296  1  0.88194852  0.13361946  0.61654572  1
  O  O297  1  0.88036851  0.62868511  0.13041037  1
  O  O298  1  0.86663532  0.63489967  0.63257244  1
  O  O299  1  0.25622133  0.26057876  0.11982188  1
  O  O300  1  0.24579887  0.26418850  0.63180819  1
  O  O301  1  0.25338073  0.75070243  0.11853495  1
  O  O302  1  0.25981073  0.74308443  0.63082117  1
  O  O303  1  0.75029143  0.25167794  0.11857153  1
  O  O304  1  0.75482458  0.25440594  0.62068831  1
  O  O305  1  0.74363760  0.75037339  0.11272349  1
  O  O306  1  0.75924566  0.76230755  0.62836168  1
  O  O307  1  0.23632093  0.25321441  0.37297000  1
  O  O308  1  0.24355949  0.24793428  0.88091028  1
  O  O309  1  0.23702748  0.74114954  0.36841209  1
  O  O310  1  0.24545890  0.73085566  0.86603084  1
  O  O311  1  0.74796772  0.24690898  0.38044267  1
  O  O312  1  0.74496986  0.24159761  0.87906337  1
  O  O313  1  0.74957393  0.73826548  0.37847968  1
  O  O314  1  0.74680573  0.74163399  0.87881815  1
  O  O315  1  0.00725799  0.12234364  0.00898341  1
  O  O316  1  0.00577729  0.12139107  0.51077130  1
  O  O317  1  0.01801717  0.63196816  -0.00056015  1
  O  O318  1  0.00346713  0.61313630  0.49082356  1
  O  O319  1  0.50865488  0.12424575  0.00069346  1
  O  O320  1  0.50616015  0.11864474  0.50244401  1
  O  O321  1  0.51080526  0.61926389  -0.01123641  1
  O  O322  1  0.49879341  0.62510420  0.51128956  1
  O  O323  1  0.49636563  0.37709513  0.48852995  1
  O  O324  1  0.49431320  0.37788348  0.99241104  1
  O  O325  1  0.49961281  0.88140003  0.49274977  1
  O  O326  1  0.54693632  0.89058224  0.99065421  1
  O  O327  1  0.99056417  0.38296293  0.49446770  1
  O  O328  1  1.00518743  0.35615312  0.98626881  1
  O  O329  1  0.99143084  0.88361363  0.48951499  1
  O  O330  1  0.99346625  0.88186158  0.99190479  1
  O  O331  1  0.49177448  0.49349943  0.36587288  1
  O  O332  1  0.49376867  0.49394595  0.87937160  1
  O  O333  1  0.50041947  0.99719534  0.38961300  1
  O  O334  1  0.49860097  0.99081481  0.87394612  1
  O  O335  1  1.00437545  0.48705077  0.38311011  1
  O  O336  1  0.98270499  0.49896655  0.86992828  1
  O  O337  1  0.99604287  0.99755719  0.37691108  1
  O  O338  1  0.99863637  0.99700024  0.88484113  1
  O  O339  1  0.00327874  0.00441148  0.11301834  1
  O  O340  1  0.00225188  0.00745299  0.62134219  1
  O  O341  1  0.00573141  0.49184007  0.13121191  1
  O  O342  1  0.00618399  0.49280547  0.61506978  1
  O  O343  1  0.51422614  0.00156217  0.12852591  1
  O  O344  1  0.50722234  -0.00254239  0.61488221  1
  O  O345  1  0.50805037  0.49050024  0.11442122  1
  O  O346  1  0.49770052  0.51570819  0.63340839  1
  O  O347  1  0.24402022  0.38378372  0.24271813  1
  O  O348  1  0.25454794  0.38508243  0.74216077  1
  O  O349  1  0.23754999  0.87300114  0.25327039  1
  O  O350  1  0.25332405  0.88752775  0.74761142  1
  O  O351  1  0.73381194  0.37305358  0.24353545  1
  O  O352  1  0.74685692  0.38178346  0.74436198  1
  O  O353  1  0.74384580  0.88678889  0.25675033  1
  O  O354  1  0.74466148  0.88075125  0.74009862  1
  O  O355  1  0.25195045  0.12387409  0.25133458  1
  O  O356  1  0.25753744  0.11708109  0.74954569  1
  O  O357  1  0.24021977  0.61305700  0.26092099  1
  O  O358  1  0.25496782  0.60922570  0.75897585  1
  O  O359  1  0.75097585  0.12156094  0.26627736  1
  O  O360  1  0.74505902  0.11607792  0.75855411  1
  O  O361  1  0.73811089  0.63313700  0.25581725  1
  O  O362  1  0.75480969  0.61798012  0.75499498  1
  O  O363  1  0.37380689  0.12113992  0.37025178  1
  O  O364  1  0.37177667  0.12530351  0.85933611  1
  O  O365  1  0.36385370  0.61712831  0.38270826  1
  O  O366  1  0.36476678  0.61650919  0.86957993  1
  O  O367  1  0.87046274  0.11765085  0.38363739  1
  O  O368  1  0.85788550  0.12159065  0.87188065  1
  O  O369  1  0.86179573  0.63192839  0.36404137  1
  O  O370  1  0.86962876  0.61657956  0.86741109  1
  O  O371  1  0.13941411  0.37742345  0.13125167  1
  O  O372  1  0.13030698  0.38483230  0.61718874  1
  O  O373  1  0.11720445  0.88545992  0.13102138  1
  O  O374  1  0.11785928  0.89114198  0.61145231  1
  O  O375  1  0.63012990  0.37987831  0.13101537  1
  O  O376  1  0.63041037  0.37899280  0.63146452  1
  O  O377  1  0.62944625  0.89048560  0.14798678  1
  O  O378  1  0.63251305  0.87605696  0.63011772  1
  O  O379  1  0.12162459  0.26399269  0.25591280  1
  O  O380  1  0.11442847  0.24282490  0.75901363  1
  O  O381  1  0.11739333  0.75457820  0.25384669  1
  O  O382  1  0.12440014  0.74976481  0.73358834  1
  O  O383  1  0.61847645  0.25921452  0.25753355  1
  O  O384  1  0.61740079  0.25608035  0.75618195  1
  O  O385  1  0.63570595  0.77315821  0.26130685  1
  O  O386  1  0.61864804  0.75322475  0.75037364  1
  O  O387  1  0.38389546  0.25623121  0.24215691  1
  O  O388  1  0.38271620  0.24433072  0.74686497  1
  O  O389  1  0.38535604  0.73969034  0.25743566  1
  O  O390  1  0.38085755  0.74041977  0.74155520  1
  O  O391  1  0.87359015  0.25041071  0.24116175  1
  O  O392  1  0.87804446  0.25076087  0.73729829  1
  O  O393  1  0.89298291  0.75625047  0.24682100  1
  O  O394  1  0.87480239  0.74095533  0.74197110  1
  O  O395  1  0.37212097  0.48841467  0.48623707  1
  O  O396  1  0.38054414  0.49724879  0.99627766  1
  O  O397  1  0.38315631  0.99014928  0.50285871  1
  O  O398  1  0.38140745  0.99804044  0.99955972  1
  O  O399  1  0.88059108  0.49185318  0.50607176  1
  O  O400  1  0.86957039  0.50465630  0.98785248  1
  O  O401  1  0.88022483  0.99190290  0.48913305  1
  O  O402  1  0.88143826  0.99282254  0.99746860  1
  O  O403  1  0.11774048  0.00931886  0.00408231  1
  O  O404  1  0.11706665  0.01026326  0.50373254  1
  O  O405  1  0.12580421  0.51114925  -0.00129738  1
  O  O406  1  0.11425748  0.50440963  0.50376464  1
  O  O407  1  0.64653845  0.00751842  0.03087827  1
  O  O408  1  0.62004472  0.00596623  0.50579729  1
  O  O409  1  0.61755033  0.50281127  0.00120711  1
  O  O410  1  0.62394813  0.52237591  0.50523436  1
  O  O411  1  0.36761677  0.36802657  0.12178418  1
  O  O412  1  0.36501326  0.37469573  0.61550630  1
  O  O413  1  0.43907757  0.82113273  0.13923147  1
  O  O414  1  0.37937407  0.86186869  0.61379903  1
  O  O415  1  0.85901370  0.36132583  0.12963639  1
  O  O416  1  0.86819032  0.36734662  0.61587808  1
  O  O417  1  0.87079403  0.86992897  0.11162801  1
  O  O418  1  0.86830563  0.87125772  0.61579007  1
  O  O419  1  0.12327155  0.13602946  0.38395380  1
  O  O420  1  0.12588668  0.13157093  0.88458493  1
  O  O421  1  0.12988602  0.62981737  0.38240893  1
  O  O422  1  0.13712697  0.61641230  0.88212701  1
  O  O423  1  0.63340818  0.13386975  0.38144309  1
  O  O424  1  0.63261078  0.13683954  0.86466529  1
  O  O425  1  0.62585924  0.63173777  0.38351272  1
  O  O426  1  0.63280857  0.62561987  0.87963152  1
