# generated using pymatgen
data_V85Zn86O256
_symmetry_space_group_name_H-M   'P 1'
_cell_length_a   16.91460573
_cell_length_b   16.92152778
_cell_length_c   16.91936077
_cell_angle_alpha   89.94420965
_cell_angle_beta   90.02181164
_cell_angle_gamma   90.07716697
_symmetry_Int_Tables_number   1
_chemical_formula_structural   V85Zn86O256
_chemical_formula_sum   'V85 Zn86 O256'
_cell_volume   4842.66882851
_cell_formula_units_Z   1
loop_
 _symmetry_equiv_pos_site_id
 _symmetry_equiv_pos_as_xyz
  1  'x, y, z'
loop_
 _atom_site_type_symbol
 _atom_site_label
 _atom_site_symmetry_multiplicity
 _atom_site_fract_x
 _atom_site_fract_y
 _atom_site_fract_z
 _atom_site_occupancy
  V  V0  1  0.24233889  0.86991108  0.63037469  1
  V  V1  1  0.49874159  0.12420928  0.12465535  1
  V  V2  1  0.12003476  0.24655091  0.36671218  1
  V  V3  1  0.62344121  0.12450102  0.00089035  1
  V  V4  1  0.37146592  0.26144134  0.12212684  1
  V  V5  1  0.75166457  0.87402487  0.12508908  1
  V  V6  1  0.37209630  0.49540451  0.87679776  1
  V  V7  1  0.87481901  0.63018039  0.25309951  1
  V  V8  1  0.62516552  -0.00024851  0.12504006  1
  V  V9  1  0.23533105  0.62933691  0.37980457  1
  V  V10  1  0.49890985  0.24990275  0.25098269  1
  V  V11  1  0.49893737  0.12570141  0.62336970  1
  V  V12  1  0.49838649  0.37521326  0.87683655  1
  V  V13  1  0.75084022  0.37709715  0.12728447  1
  V  V14  1  0.87886956  0.50657836  0.87612675  1
  V  V15  1  0.00720282  0.87140139  0.37276225  1
  V  V16  1  0.24531519  -0.00289578  0.75008138  1
  V  V17  1  0.37172388  0.86934633  0.50406284  1
  V  V18  1  0.75905642  -0.00231835  0.25423208  1
  V  V19  1  0.68010147  0.18069980  0.54404114  1
  V  V20  1  0.01400418  0.49744195  0.50751561  1
  V  V21  1  0.62422664  0.62800414  -0.00670145  1
  V  V22  1  0.49402416  0.49542752  0.00269759  1
  V  V23  1  0.12543363  0.37095738  0.24163882  1
  V  V24  1  0.87673753  0.13296737  0.25268824  1
  V  V25  1  0.12630698  0.12260337  0.50132861  1
  V  V26  1  0.63464677  -0.00690293  0.63775384  1
  V  V27  1  0.62914989  0.24992822  0.37547187  1
  V  V28  1  0.49811930  0.25743846  0.75112681  1
  V  V29  1  0.25165562  0.49746673  0.24506218  1
  V  V30  1  0.50014929  0.74817753  0.24982199  1
  V  V31  1  0.38635071  0.74604181  0.62665440  1
  V  V32  1  0.01809535  0.75346553  0.25107693  1
  V  V33  1  -0.00651475  0.13091552  0.62498974  1
  V  V34  1  0.63176050  0.85715502  0.75565874  1
  V  V35  1  0.25218471  0.76078927  -0.00269404  1
  V  V36  1  0.38780287  0.62561274  0.74553664  1
  V  V37  1  0.00020720  0.62225283  0.12283919  1
  V  V38  1  0.62096488  0.62480766  0.50723572  1
  V  V39  1  -0.00177445  0.37293073  0.36912007  1
  V  V40  1  0.62460245  0.50282774  0.12708106  1
  V  V41  1  -0.00334862  -0.00179063  0.49262645  1
  V  V42  1  0.37133732  0.25760165  0.62248359  1
  V  V43  1  0.88353023  0.38197032  0.00196327  1
  V  V44  1  0.37334492  0.50016137  0.37836328  1
  V  V45  1  0.63083490  0.74906255  0.37837971  1
  V  V46  1  0.75061576  0.12098778  0.87465063  1
  V  V47  1  0.25186762  0.26383376  0.00081384  1
  V  V48  1  0.12088072  0.62650084  -0.00341770  1
  V  V49  1  0.25064355  0.12333618  0.37464109  1
  V  V50  1  0.00001393  0.13307976  0.12777715  1
  V  V51  1  0.37633027  0.75606191  0.11991744  1
  V  V52  1  0.87230899  0.00180824  0.86337313  1
  V  V53  1  0.49490007  0.50219375  0.50767674  1
  V  V54  1  0.74679420  0.75073025  -0.00723856  1
  V  V55  1  0.24904104  0.62664476  0.87141162  1
  V  V56  1  0.12834332  0.49890764  0.11804647  1
  V  V57  1  0.37345430  0.12089974  0.24840781  1
  V  V58  1  0.75917261  0.74812866  0.51624617  1
  V  V59  1  0.74927051  0.12159693  0.37634170  1
  V  V60  1  0.87291014  0.87489043  0.50610894  1
  V  V61  1  0.25387208  0.25649436  0.49726531  1
  V  V62  1  -0.01183885  0.75137627  0.74585841  1
  V  V63  1  0.49556508  0.37549896  0.37978865  1
  V  V64  1  -0.00058526  0.00369469  -0.00122387  1
  V  V65  1  0.00649325  0.63398488  0.61578190  1
  V  V66  1  0.00356487  0.37901967  0.87308913  1
  V  V67  1  0.62514793  0.25899264  0.87667262  1
  V  V68  1  0.75103743  0.25189358  0.00258557  1
  V  V69  1  0.87411441  0.87563939  -0.00127682  1
  V  V70  1  0.12531772  0.75457572  0.86336009  1
  V  V71  1  0.49040693  -0.00561115  -0.00315079  1
  V  V72  1  0.00388129  0.87833312  0.86657177  1
  V  V73  1  0.62798033  0.87526214  0.25235924  1
  V  V74  1  0.62658714  0.49305472  0.62913797  1
  V  V75  1  0.74905184  0.48956665  0.75032918  1
  V  V76  1  0.24079504  0.49944729  0.74100321  1
  V  V77  1  0.86858812  0.36429592  0.50602173  1
  V  V78  1  0.49657508  0.85921732  0.87075556  1
  V  V79  1  0.87484339  0.50214726  0.37956291  1
  V  V80  1  0.25032938  0.12568043  0.87605730  1
  V  V81  1  0.50630654  0.00056976  0.50522155  1
  V  V82  1  0.12350850  -0.00801489  0.13075366  1
  V  V83  1  0.37730856  -0.00080783  0.37768848  1
  V  V84  1  0.50059796  0.87385783  0.37857559  1
  Zn  Zn85  1  0.75187122  0.62488922  0.37739663  1
  Zn  Zn86  1  0.86665005  0.13026456  0.74095976  1
  Zn  Zn87  1  0.74920966  0.35900031  0.62592059  1
  Zn  Zn88  1  0.25060564  0.87452891  0.12922544  1
  Zn  Zn89  1  0.37262083  0.12416829  0.74970115  1
  Zn  Zn90  1  0.24531796  0.38230498  0.61375382  1
  Zn  Zn91  1  0.74984182  0.50315613  0.25252668  1
  Zn  Zn92  1  0.74822962  0.62828078  0.86826862  1
  Zn  Zn93  1  0.49821490  0.62603927  0.12440920  1
  Zn  Zn94  1  0.37354145  0.62647923  0.24983928  1
  Zn  Zn95  1  -0.00484016  0.25362210  0.74822699  1
  Zn  Zn96  1  0.12399431  0.25158576  0.87203336  1
  Zn  Zn97  1  0.12216760  -0.00290467  0.62895477  1
  Zn  Zn98  1  0.87657270  0.75095033  0.12541691  1
  Zn  Zn99  1  0.11819384  0.37414785  0.73333674  1
  Zn  Zn100  1  0.62593592  0.37825669  0.25300229  1
  Zn  Zn101  1  0.24109366  -0.00898356  0.25708224  1
  Zn  Zn102  1  0.87038225  0.62526105  0.73726509  1
  Zn  Zn103  1  0.22881883  0.74206470  0.50172638  1
  Zn  Zn104  1  0.88013426  0.25575306  0.12881010  1
  Zn  Zn105  1  0.37336755  -0.00508101  0.87506362  1
  Zn  Zn106  1  0.12632647  0.12811969  0.00094992  1
  Zn  Zn107  1  0.18904721  0.18326458  0.18340078  1
  Zn  Zn108  1  0.18228249  0.19055813  0.68876114  1
  Zn  Zn109  1  0.19377676  0.68351173  0.18564158  1
  Zn  Zn110  1  0.18616409  0.68526368  0.68197076  1
  Zn  Zn111  1  0.68808158  0.18877673  0.18989164  1
  Zn  Zn112  1  0.68146658  0.18538750  0.70629804  1
  Zn  Zn113  1  0.68938111  0.68761638  0.18468935  1
  Zn  Zn114  1  0.68564358  0.67904995  0.68845797  1
  Zn  Zn115  1  0.31095792  0.31394886  0.31070604  1
  Zn  Zn116  1  0.31092599  0.31429748  0.81127677  1
  Zn  Zn117  1  0.30894333  0.81148470  0.31107865  1
  Zn  Zn118  1  0.31752810  0.81200557  0.80983245  1
  Zn  Zn119  1  0.81099244  0.31271901  0.31465217  1
  Zn  Zn120  1  0.81884207  0.31184238  0.81190763  1
  Zn  Zn121  1  0.82025893  0.81279192  0.31942054  1
  Zn  Zn122  1  0.81026907  0.81652526  0.81149253  1
  Zn  Zn123  1  0.18791061  0.43535473  0.43050237  1
  Zn  Zn124  1  0.18786697  0.44084205  0.93564602  1
  Zn  Zn125  1  0.18819387  0.93473371  0.43921026  1
  Zn  Zn126  1  0.18448690  0.94011823  0.93705789  1
  Zn  Zn127  1  0.68809490  0.43751164  0.44009369  1
  Zn  Zn128  1  0.69014450  0.44098653  0.94062550  1
  Zn  Zn129  1  0.69063093  0.93696069  0.44265213  1
  Zn  Zn130  1  0.68226436  0.93640781  0.93358307  1
  Zn  Zn131  1  0.30928553  0.06551106  0.06193275  1
  Zn  Zn132  1  0.31372426  0.06205909  0.56584634  1
  Zn  Zn133  1  0.31181199  0.57046003  0.06188285  1
  Zn  Zn134  1  0.31370607  0.56527662  0.56134658  1
  Zn  Zn135  1  0.81471503  0.06294468  0.06256930  1
  Zn  Zn136  1  0.81726973  0.05093788  0.56274283  1
  Zn  Zn137  1  0.81214233  0.56414400  0.06214025  1
  Zn  Zn138  1  0.81588834  0.56120123  0.56419351  1
  Zn  Zn139  1  0.43912159  0.43797738  0.19245529  1
  Zn  Zn140  1  0.43292962  0.43780288  0.68809126  1
  Zn  Zn141  1  0.43586097  0.93418738  0.18724758  1
  Zn  Zn142  1  0.43580116  0.93532944  0.69359777  1
  Zn  Zn143  1  0.93951212  0.44266366  0.18950843  1
  Zn  Zn144  1  0.93443696  0.43893562  0.68592431  1
  Zn  Zn145  1  0.93920983  0.93810995  0.18877461  1
  Zn  Zn146  1  0.93938847  0.93976303  0.68269683  1
  Zn  Zn147  1  0.05788259  0.06029343  0.31195941  1
  Zn  Zn148  1  0.06708839  0.06542918  0.81042564  1
  Zn  Zn149  1  0.06021566  0.55826919  0.30867342  1
  Zn  Zn150  1  0.05783206  0.56588559  0.80761866  1
  Zn  Zn151  1  0.56632801  0.06316214  0.31444405  1
  Zn  Zn152  1  0.55894380  0.06591248  0.81383599  1
  Zn  Zn153  1  0.56313205  0.56432116  0.31657368  1
  Zn  Zn154  1  0.56472008  0.55894511  0.81295405  1
  Zn  Zn155  1  0.43990065  0.18638737  0.44004079  1
  Zn  Zn156  1  0.43261855  0.18567126  0.93901895  1
  Zn  Zn157  1  0.43421906  0.68502108  0.43835983  1
  Zn  Zn158  1  0.43550026  0.68211782  0.93785752  1
  Zn  Zn159  1  0.93717665  0.18570949  0.43487240  1
  Zn  Zn160  1  0.93578529  0.19227809  0.93691500  1
  Zn  Zn161  1  0.95126766  0.68963029  0.43908287  1
  Zn  Zn162  1  0.93626203  0.69022424  0.93624167  1
  Zn  Zn163  1  0.06520628  0.31254829  0.05822794  1
  Zn  Zn164  1  0.06464981  0.31213269  0.55759502  1
  Zn  Zn165  1  0.06041389  0.81064291  0.05758322  1
  Zn  Zn166  1  0.06435684  0.81044331  0.55816782  1
  Zn  Zn167  1  0.56112715  0.31487613  0.06421528  1
  Zn  Zn168  1  0.55523759  0.32088735  0.56472146  1
  Zn  Zn169  1  0.56244659  0.81401382  0.05956030  1
  Zn  Zn170  1  0.56570926  0.81446784  0.56685535  1
  O  O171  1  0.11552236  0.11559012  0.12267689  1
  O  O172  1  0.11671608  0.12254776  0.61395843  1
  O  O173  1  0.12085666  0.61967550  0.11667439  1
  O  O174  1  0.10593892  0.61975733  0.63223489  1
  O  O175  1  0.61916934  0.12056362  0.12168879  1
  O  O176  1  0.62085432  0.12072657  0.61993350  1
  O  O177  1  0.62309020  0.61720424  0.11725052  1
  O  O178  1  0.62590157  0.61329320  0.61338307  1
  O  O179  1  0.38213243  0.38722553  0.36849025  1
  O  O180  1  0.37977057  0.38884296  0.87127728  1
  O  O181  1  0.38117591  0.87884190  0.38459860  1
  O  O182  1  0.39082759  0.87615837  0.87168998  1
  O  O183  1  0.88193974  0.38168437  0.37720614  1
  O  O184  1  0.88286037  0.38413768  0.88411348  1
  O  O185  1  0.89142890  0.86694250  0.38963129  1
  O  O186  1  0.88128715  0.88439265  0.87950290  1
  O  O187  1  0.25918685  0.00554133  0.37720936  1
  O  O188  1  0.25154684  0.00580779  0.87035154  1
  O  O189  1  0.25665921  0.50525445  0.36834011  1
  O  O190  1  0.25670817  0.50704019  0.86851709  1
  O  O191  1  0.74187932  0.00793819  0.36610873  1
  O  O192  1  0.76058625  0.00911309  0.88739095  1
  O  O193  1  0.75963101  0.50243474  0.37336612  1
  O  O194  1  0.75782103  0.49900133  0.86784755  1
  O  O195  1  0.24183547  0.50715057  0.13255735  1
  O  O196  1  0.25554757  0.50066089  0.63756465  1
  O  O197  1  0.23232167  1.00013441  0.12040948  1
  O  O198  1  0.24953923  0.99075169  0.63142414  1
  O  O199  1  0.74220198  0.49447024  0.12699921  1
  O  O200  1  0.74290828  0.49755763  0.63152353  1
  O  O201  1  0.74493215  0.99458724  0.13207008  1
  O  O202  1  0.73277979  1.00109251  0.62222341  1
  O  O203  1  0.00776917  0.38000838  0.26096717  1
  O  O204  1  -0.00026319  0.37791904  0.75873627  1
  O  O205  1  -0.00445221  0.86096542  0.25458936  1
  O  O206  1  -0.00391884  0.87061897  0.75851609  1
  O  O207  1  0.50307333  0.36871083  0.26239168  1
  O  O208  1  0.49466749  0.36452301  0.75660011  1
  O  O209  1  0.50612332  0.86587418  0.25723126  1
  O  O210  1  0.50883192  0.87767075  0.76394440  1
  O  O211  1  0.49426587  0.12967097  0.24624022  1
  O  O212  1  0.49953604  0.13684492  0.73937585  1
  O  O213  1  0.50305862  0.63900121  0.25028384  1
  O  O214  1  0.48637704  0.61843777  0.75263726  1
  O  O215  1  0.98760541  0.11907109  0.24212425  1
  O  O216  1  1.00237346  0.12109343  0.73137336  1
  O  O217  1  0.99691265  0.63503990  0.24377422  1
  O  O218  1  0.99452611  0.63520975  0.74060962  1
  O  O219  1  0.36409485  0.24815275  0.00893849  1
  O  O220  1  0.36523993  0.24297766  0.50691021  1
  O  O221  1  0.36399443  0.74226888  0.00577008  1
  O  O222  1  0.37155698  0.75579457  0.50687940  1
  O  O223  1  0.86674758  0.26206874  0.00424199  1
  O  O224  1  0.87859148  0.26630318  0.49166811  1
  O  O225  1  0.86845554  0.75827209  0.00304725  1
  O  O226  1  0.86450479  0.75313308  0.49719206  1
  O  O227  1  0.13153665  0.23812454  0.48756844  1
  O  O228  1  0.13925050  0.24912500  0.99766046  1
  O  O229  1  0.11737761  0.73534876  0.50028094  1
  O  O230  1  0.13065688  0.74438510  0.98979265  1
  O  O231  1  0.61570623  0.24747902  0.49289453  1
  O  O232  1  0.62828538  0.24409870  0.99688107  1
  O  O233  1  0.63343970  0.74606127  0.49777540  1
  O  O234  1  0.63320579  0.73973426  1.00650390  1
  O  O235  1  0.49337975  0.24415381  0.12999643  1
  O  O236  1  0.49451848  0.24704394  0.63124454  1
  O  O237  1  0.49625309  0.75084661  0.13250981  1
  O  O238  1  0.48610783  0.75285632  0.62159624  1
  O  O239  1  1.00067885  0.23715934  0.12078672  1
  O  O240  1  1.00110756  0.23262761  0.61623955  1
  O  O241  1  0.99990786  0.74193173  0.13370846  1
  O  O242  1  1.00029926  0.74232839  0.63204162  1
  O  O243  1  0.01191656  0.25641742  0.37632562  1
  O  O244  1  0.00242032  0.26357455  0.87812419  1
  O  O245  1  0.00205014  0.75318436  0.35813846  1
  O  O246  1  0.00534426  0.75903616  0.86758164  1
  O  O247  1  0.50624967  0.25567251  0.37251171  1
  O  O248  1  0.50277931  0.25424914  0.87149529  1
  O  O249  1  0.51041782  0.75368191  0.37140044  1
  O  O250  1  0.49858099  0.76051267  0.88045424  1
  O  O251  1  0.24285085  0.12871341  0.49404736  1
  O  O252  1  0.24864655  0.13276117  0.99118092  1
  O  O253  1  0.25235906  0.62112147  0.48363576  1
  O  O254  1  0.23805972  0.63402317  0.99162100  1
  O  O255  1  0.75047442  0.11877340  0.49326395  1
  O  O256  1  0.74448019  0.13146257  0.99576986  1
  O  O257  1  0.74579174  0.63585535  0.49950985  1
  O  O258  1  0.74243707  0.63426080  1.00118657  1
  O  O259  1  0.25067610  0.36305570  -0.00487400  1
  O  O260  1  0.24975979  0.36007451  0.49219177  1
  O  O261  1  0.24501787  0.86367873  0.00204474  1
  O  O262  1  0.26118347  0.87314394  0.50659442  1
  O  O263  1  0.75676693  0.37297762  0.01189300  1
  O  O264  1  0.76464351  0.37520312  0.49981751  1
  O  O265  1  0.75207790  0.87004634  0.00397992  1
  O  O266  1  0.76211113  0.86223874  0.49589431  1
  O  O267  1  0.13102768  0.49277760  0.23968842  1
  O  O268  1  0.13893432  0.50056322  0.75551268  1
  O  O269  1  0.12213396  1.00275128  0.23463508  1
  O  O270  1  0.13919266  1.00073454  0.74784536  1
  O  O271  1  0.62475248  0.50130292  0.23955207  1
  O  O272  1  0.63231659  0.50203762  0.74024910  1
  O  O273  1  0.63331523  0.99393707  0.24520833  1
  O  O274  1  0.62144267  1.00440768  0.73845351  1
  O  O275  1  0.38024360  0.01064643  0.25555313  1
  O  O276  1  0.36263411  0.00419624  0.75120279  1
  O  O277  1  0.36718495  0.50213475  0.25543759  1
  O  O278  1  0.36748068  0.50907223  0.75549500  1
  O  O279  1  0.86314852  0.00815372  0.24614253  1
  O  O280  1  0.87879699  0.00462182  0.76062372  1
  O  O281  1  0.87841298  0.51239066  0.26150458  1
  O  O282  1  0.86756236  0.50117694  0.75903147  1
  O  O283  1  0.11836304  0.36670869  0.36398164  1
  O  O284  1  0.10983409  0.38016568  0.87817729  1
  O  O285  1  0.10854550  0.87889220  0.38099038  1
  O  O286  1  0.11429171  0.86760915  0.87893953  1
  O  O287  1  0.61874293  0.36756755  0.37469288  1
  O  O288  1  0.61922772  0.36474792  0.88547233  1
  O  O289  1  0.62022591  0.86843903  0.37322212  1
  O  O290  1  0.61387474  0.87784032  0.86273007  1
  O  O291  1  0.37950058  0.12973697  0.13330607  1
  O  O292  1  0.38415341  0.13476495  0.62638538  1
  O  O293  1  0.37845044  0.63793319  0.12960430  1
  O  O294  1  0.37341373  0.63003439  0.63709143  1
  O  O295  1  0.88219879  0.12692149  0.13287084  1
  O  O296  1  0.88879007  0.11726898  0.62249129  1
  O  O297  1  0.88436077  0.62444904  0.13252527  1
  O  O298  1  0.89578864  0.61674777  0.62354903  1
  O  O299  1  0.25717241  0.24554206  0.11103925  1
  O  O300  1  0.25688176  0.24538588  0.61386045  1
  O  O301  1  0.25709028  0.74993768  0.11489135  1
  O  O302  1  0.25781686  0.75528869  0.62301754  1
  O  O303  1  0.75014447  0.25982820  0.12062000  1
  O  O304  1  0.73107512  0.23960894  0.61644496  1
  O  O305  1  0.75310946  0.75874027  0.11680856  1
  O  O306  1  0.74857503  0.74739347  0.61423034  1
  O  O307  1  0.24338729  0.24261980  0.37806889  1
  O  O308  1  0.25156334  0.24535375  0.88474430  1
  O  O309  1  0.25556372  0.73199713  0.37551010  1
  O  O310  1  0.24333452  0.74744369  0.87758873  1
  O  O311  1  0.73628439  0.24428755  0.37277711  1
  O  O312  1  0.74161891  0.24677143  0.88317118  1
  O  O313  1  0.73901460  0.75016460  0.38046326  1
  O  O314  1  0.75425461  0.74886808  0.88863535  1
  O  O315  1  -0.00141992  0.11826527  0.00738231  1
  O  O316  1  0.00476068  0.11798902  0.50271318  1
  O  O317  1  0.01201356  0.63440151  0.00768674  1
  O  O318  1  -0.00112877  0.61035538  0.50668719  1
  O  O319  1  0.50444019  0.11869994  0.00628306  1
  O  O320  1  0.49868980  0.11570249  0.51265711  1
  O  O321  1  0.50709004  0.61400374  0.00144394  1
  O  O322  1  0.50853670  0.61470499  0.49503264  1
  O  O323  1  0.49955993  0.38444945  0.48698971  1
  O  O324  1  0.50120864  0.38823837  0.99632394  1
  O  O325  1  0.49064537  0.87912996  0.49870567  1
  O  O326  1  0.51016599  0.88439593  0.98438728  1
  O  O327  1  0.99315594  0.38267859  0.48941767  1
  O  O328  1  0.98854656  0.37562192  0.99725926  1
  O  O329  1  0.99268249  0.88052422  0.49625536  1
  O  O330  1  0.99367837  0.88143915  0.98903576  1
  O  O331  1  0.49419598  0.49350241  0.38084081  1
  O  O332  1  0.49355278  0.49459362  0.88219883  1
  O  O333  1  0.49825296  0.99581252  0.38528047  1
  O  O334  1  0.49685503  1.00012316  0.88439619  1
  O  O335  1  0.99476314  0.49290992  0.38167015  1
  O  O336  1  0.98863211  0.49623624  0.87171507  1
  O  O337  1  1.00002915  0.99399286  0.38551317  1
  O  O338  1  0.99602974  0.99665938  0.87942788  1
  O  O339  1  0.00594158  0.00663104  0.11829683  1
  O  O340  1  0.00368878  0.00674008  0.61053440  1
  O  O341  1  0.01056334  0.51522349  0.13030244  1
  O  O342  1  0.00065011  0.50116565  0.61043047  1
  O  O343  1  0.50601556  0.00254868  0.11931823  1
  O  O344  1  0.50502377  0.00868465  0.62348455  1
  O  O345  1  0.50529365  0.50074899  0.11987030  1
  O  O346  1  0.50555872  0.49034186  0.61399797  1
  O  O347  1  0.23955125  0.38744822  0.25417506  1
  O  O348  1  0.24923099  0.39197038  0.75130065  1
  O  O349  1  0.25621986  0.88074106  0.24347417  1
  O  O350  1  0.25509952  0.88091350  0.74089997  1
  O  O351  1  0.74982475  0.37869955  0.23889085  1
  O  O352  1  0.75424798  0.38441161  0.74592044  1
  O  O353  1  0.74992472  0.88063853  0.24855286  1
  O  O354  1  0.73127266  0.87680040  0.75727350  1
  O  O355  1  0.25814378  0.11781999  0.25531528  1
  O  O356  1  0.24948384  0.11909303  0.75717619  1
  O  O357  1  0.25096832  0.61348839  0.25901114  1
  O  O358  1  0.25429448  0.61531433  0.75409144  1
  O  O359  1  0.75491824  0.11729449  0.25598974  1
  O  O360  1  0.74995820  0.12231288  0.76936285  1
  O  O361  1  0.76041561  0.62468150  0.25260772  1
  O  O362  1  0.75338183  0.61247395  0.75136814  1
  O  O363  1  0.37331168  0.11906184  0.36828933  1
  O  O364  1  0.36258119  0.12223243  0.87278971  1
  O  O365  1  0.37293230  0.61158115  0.37043630  1
  O  O366  1  0.37027827  0.61696819  0.86417835  1
  O  O367  1  0.86045715  0.12969066  0.36816921  1
  O  O368  1  0.86660579  0.11686070  0.88054041  1
  O  O369  1  0.87797953  0.61972040  0.37052883  1
  O  O370  1  0.87267473  0.61523107  0.87677576  1
  O  O371  1  0.11751511  0.38370443  0.13319911  1
  O  O372  1  0.13248109  0.37219349  0.62019289  1
  O  O373  1  0.11963251  0.88960726  0.11927777  1
  O  O374  1  0.13877194  0.87742138  0.61961292  1
  O  O375  1  0.63272077  0.38416548  0.12674817  1
  O  O376  1  0.63136628  0.38761275  0.61704418  1
  O  O377  1  0.63186311  0.87940832  0.13271569  1
  O  O378  1  0.61741056  0.88516502  0.64251170  1
  O  O379  1  0.13367438  0.25791027  0.25452557  1
  O  O380  1  0.11632688  0.25580067  0.75424272  1
  O  O381  1  0.11616426  0.74817905  0.24326349  1
  O  O382  1  0.11701436  0.74569138  0.76021655  1
  O  O383  1  0.61706767  0.25162995  0.25876215  1
  O  O384  1  0.61216421  0.25152640  0.76509236  1
  O  O385  1  0.62217424  0.75516591  0.25821204  1
  O  O386  1  0.62615798  0.75777258  0.74716498  1
  O  O387  1  0.37741133  0.23862637  0.24622405  1
  O  O388  1  0.38016145  0.24715665  0.74275476  1
  O  O389  1  0.38598298  0.74894617  0.24437178  1
  O  O390  1  0.37182282  0.73310842  0.74388918  1
  O  O391  1  0.86922222  0.23783185  0.24731725  1
  O  O392  1  0.88093885  0.24166798  0.75365519  1
  O  O393  1  0.88025567  0.73916038  0.24841094  1
  O  O394  1  0.88490744  0.74895070  0.75598462  1
  O  O395  1  0.38386730  0.50256198  0.49292681  1
  O  O396  1  0.38215492  0.50928215  0.99064237  1
  O  O397  1  0.38604261  0.99198545  0.49975199  1
  O  O398  1  0.38745566  1.00205473  1.00309924  1
  O  O399  1  0.88209718  0.49209406  0.48929737  1
  O  O400  1  0.86842051  0.49241103  0.99128244  1
  O  O401  1  0.88045870  0.98443196  0.49553250  1
  O  O402  1  0.88587827  0.99551577  0.99525860  1
  O  O403  1  0.11160706  0.00237001  0.00630569  1
  O  O404  1  0.11942093  0.01145381  0.49817056  1
  O  O405  1  0.13028993  0.50891025  0.01020844  1
  O  O406  1  0.11190884  0.49401332  0.49337426  1
  O  O407  1  0.61801818  0.00685338  0.00626950  1
  O  O408  1  0.61167141  -0.01357567  0.51409716  1
  O  O409  1  0.61882352  0.50538277  0.01087962  1
  O  O410  1  0.61821219  0.50750798  0.50395990  1
  O  O411  1  0.37797719  0.36007361  0.13436642  1
  O  O412  1  0.36839434  0.36197264  0.62626967  1
  O  O413  1  0.37659568  0.86121590  0.12238748  1
  O  O414  1  0.36881091  0.86734814  0.62061225  1
  O  O415  1  0.87035100  0.37899055  0.12066582  1
  O  O416  1  0.87242661  0.37532576  0.61004070  1
  O  O417  1  0.86897564  0.87666129  0.11743730  1
  O  O418  1  0.88088147  0.87490435  0.60684788  1
  O  O419  1  0.12805872  0.13029679  0.37686584  1
  O  O420  1  0.13643528  0.12760723  0.87872139  1
  O  O421  1  0.13746669  0.61797103  0.36877032  1
  O  O422  1  0.12623370  0.63246940  0.88022135  1
  O  O423  1  0.63634368  0.13323205  0.37520970  1
  O  O424  1  0.62987988  0.13411402  0.88264283  1
  O  O425  1  0.62793988  0.63266484  0.38691694  1
  O  O426  1  0.62850213  0.61723820  0.88925584  1
