# generated using pymatgen
data_V85Zn86O256
_symmetry_space_group_name_H-M   'P 1'
_cell_length_a   16.92133107
_cell_length_b   16.92884747
_cell_length_c   16.92804295
_cell_angle_alpha   90.03734177
_cell_angle_beta   89.99686855
_cell_angle_gamma   90.03935197
_symmetry_Int_Tables_number   1
_chemical_formula_structural   V85Zn86O256
_chemical_formula_sum   'V85 Zn86 O256'
_cell_volume   4849.18185603
_cell_formula_units_Z   1
loop_
 _symmetry_equiv_pos_site_id
 _symmetry_equiv_pos_as_xyz
  1  'x, y, z'
loop_
 _atom_site_type_symbol
 _atom_site_label
 _atom_site_symmetry_multiplicity
 _atom_site_fract_x
 _atom_site_fract_y
 _atom_site_fract_z
 _atom_site_occupancy
  V  V0  1  0.88056045  0.12168180  0.74660798  1
  V  V1  1  0.12165718  0.38102089  0.24267805  1
  V  V2  1  0.00069757  0.24733549  0.24882064  1
  V  V3  1  0.13955173  0.88380138  0.24709196  1
  V  V4  1  0.87411997  0.49127480  0.38293116  1
  V  V5  1  0.37374042  0.25306899  0.62487444  1
  V  V6  1  0.62721463  0.74027531  0.87227606  1
  V  V7  1  0.73993229  0.74423753  0.50275298  1
  V  V8  1  0.37098996  0.50528844  0.86832513  1
  V  V9  1  0.62760133  0.48912559  0.61879735  1
  V  V10  1  0.25174559  0.74767640  0.50553396  1
  V  V11  1  -0.00505933  0.76265225  0.25637835  1
  V  V12  1  0.50742186  0.87157625  0.36405797  1
  V  V13  1  0.87382750  0.26327356  0.62232601  1
  V  V14  1  0.12500591  -0.00050025  0.62340042  1
  V  V15  1  0.61540583  -0.00731719  0.12108515  1
  V  V16  1  0.87279804  0.24747753  0.12491057  1
  V  V17  1  0.25137776  0.87271163  0.62529847  1
  V  V18  1  0.74868571  0.87579210  0.12672118  1
  V  V19  1  0.48903336  0.75027880  0.74689119  1
  V  V20  1  0.50250950  0.50269228  0.00067866  1
  V  V21  1  0.88073352  0.37637362  -0.00413625  1
  V  V22  1  0.36925207  0.12655066  0.24210046  1
  V  V23  1  0.25179022  -0.00163909  0.74876695  1
  V  V24  1  0.87931351  0.50068614  0.87487546  1
  V  V25  1  0.74309584  0.62065210  0.38254867  1
  V  V26  1  0.75141133  0.74381500  -0.00465680  1
  V  V27  1  0.24873137  0.25779199  0.49878670  1
  V  V28  1  0.24446962  0.50565511  0.23807215  1
  V  V29  1  0.62399012  0.37203105  0.24667353  1
  V  V30  1  0.49667846  0.37409531  0.37538688  1
  V  V31  1  0.11685729  0.62237921  0.50346518  1
  V  V32  1  0.24087284  0.12678217  0.87706203  1
  V  V33  1  0.62672916  0.00070173  0.62647940  1
  V  V34  1  -0.00135056  -0.00953649  0.49591238  1
  V  V35  1  0.50006481  0.87812446  0.88275160  1
  V  V36  1  0.62494995  0.87360462  0.75021649  1
  V  V37  1  0.24937118  0.24811414  0.00815835  1
  V  V38  1  0.37968518  0.63043388  0.25106816  1
  V  V39  1  0.37669304  0.37403236  0.00935238  1
  V  V40  1  0.37636265  0.12671114  0.75024703  1
  V  V41  1  0.12557732  0.61918957  0.00787271  1
  V  V42  1  0.24753410  0.38219534  0.64316036  1
  V  V43  1  0.62650367  0.12503616  0.49997071  1
  V  V44  1  0.62594739  0.25359336  0.86952993  1
  V  V45  1  0.49300319  0.24993281  0.24153129  1
  V  V46  1  0.12702632  0.27185586  0.87373109  1
  V  V47  1  0.85885454  0.62631963  0.75480522  1
  V  V48  1  0.00603004  0.26482408  0.75036194  1
  V  V49  1  0.37461889  0.75733284  0.12782669  1
  V  V50  1  0.87569232  0.62129950  0.25374436  1
  V  V51  1  0.11513330  0.87418665  0.75305721  1
  V  V52  1  0.75372863  0.25996860  0.50352052  1
  V  V53  1  0.75556534  -0.00263445  0.75411902  1
  V  V54  1  0.12426114  0.50327007  0.64076384  1
  V  V55  1  0.11779704  0.75594141  0.37690295  1
  V  V56  1  0.87439376  0.11993749  0.24993867  1
  V  V57  1  0.74999916  0.12379946  0.37686127  1
  V  V58  1  0.37646493  0.87269176  0.50464115  1
  V  V59  1  0.49920344  0.12691702  0.62331335  1
  V  V60  1  0.74954051  0.37567387  0.12250192  1
  V  V61  1  0.37242586  -0.00049772  0.37006922  1
  V  V62  1  0.00102924  0.12697156  0.62375274  1
  V  V63  1  0.50240678  0.62965383  0.61531536  1
  V  V64  1  0.74825997  0.12151995  0.87628149  1
  V  V65  1  0.87519145  -0.01343856  0.37270753  1
  V  V66  1  0.12822540  0.00314443  0.10671644  1
  V  V67  1  0.24902434  0.12226088  0.37086553  1
  V  V68  1  0.88065360  0.74354504  0.62321878  1
  V  V69  1  0.50352144  0.37775330  0.86707438  1
  V  V70  1  0.50454864  0.63169486  0.12839227  1
  V  V71  1  0.49591005  0.12437993  0.11522153  1
  V  V72  1  0.37848475  0.00217890  0.88420449  1
  V  V73  1  -0.00099646  0.49175710  0.50510332  1
  V  V74  1  0.11965564  0.75282238  0.87997283  1
  V  V75  1  0.74011028  0.48414051  0.75439059  1
  V  V76  1  0.00116305  0.73698554  0.74946357  1
  V  V77  1  0.50032901  0.00019999  0.49873013  1
  V  V78  1  0.24861741  0.62307542  0.37565513  1
  V  V79  1  0.87665634  0.74936948  0.12639548  1
  V  V80  1  0.88840890  0.86968846  -0.01198221  1
  V  V81  1  0.12423938  0.12529307  0.49939550  1
  V  V82  1  0.12341375  0.25097160  0.37342435  1
  V  V83  1  0.25058724  0.75789531  0.00329071  1
  V  V84  1  0.93205359  0.04636647  0.93144971  1
  Zn  Zn85  1  0.63090823  0.62285605  -0.00062070  1
  Zn  Zn86  1  0.87633936  0.86643595  0.49530341  1
  Zn  Zn87  1  0.37432306  0.37975837  0.49888333  1
  Zn  Zn88  1  0.00636094  0.61912211  0.13172773  1
  Zn  Zn89  1  0.62342913  0.24715583  0.37392134  1
  Zn  Zn90  1  0.61487346  0.74278720  0.36548780  1
  Zn  Zn91  1  0.75153580  0.49708135  0.25148834  1
  Zn  Zn92  1  0.75381086  0.87380040  0.62360763  1
  Zn  Zn93  1  0.50590047  0.25675823  0.74494052  1
  Zn  Zn94  1  0.00566405  0.49373288  0.00418242  1
  Zn  Zn95  1  0.36948688  0.62415389  0.73884014  1
  Zn  Zn96  1  0.24968465  0.37492547  0.12588409  1
  Zn  Zn97  1  0.73771780  -0.00025401  0.25130525  1
  Zn  Zn98  1  0.62843875  0.50264692  0.12437128  1
  Zn  Zn99  1  0.74655780  0.24799716  -0.00181137  1
  Zn  Zn100  1  0.50190931  0.50691640  0.49477105  1
  Zn  Zn101  1  0.37519170  0.88031441  0.00729053  1
  Zn  Zn102  1  -0.00009419  0.11547923  0.11265878  1
  Zn  Zn103  1  -0.00518075  0.37099860  0.37872772  1
  Zn  Zn104  1  0.24699581  0.62497329  0.86927756  1
  Zn  Zn105  1  0.61723625  0.11980481  -0.00483697  1
  Zn  Zn106  1  0.37471145  0.49986727  0.37496725  1
  Zn  Zn107  1  0.18188597  0.17887787  0.18454633  1
  Zn  Zn108  1  0.18812072  0.19127271  0.68948597  1
  Zn  Zn109  1  0.18855026  0.69532119  0.18893342  1
  Zn  Zn110  1  0.18979770  0.68424483  0.68970577  1
  Zn  Zn111  1  0.68331416  0.18370603  0.18559111  1
  Zn  Zn112  1  0.69068234  0.18973693  0.68822911  1
  Zn  Zn113  1  0.68776121  0.68902107  0.19184506  1
  Zn  Zn114  1  0.68253844  0.68367698  0.68357551  1
  Zn  Zn115  1  0.31054482  0.31295832  0.30805580  1
  Zn  Zn116  1  0.31834179  0.31408970  0.81874184  1
  Zn  Zn117  1  0.31386071  0.80912352  0.31815194  1
  Zn  Zn118  1  0.30797967  0.81267545  0.81682142  1
  Zn  Zn119  1  0.81048347  0.30968259  0.31280225  1
  Zn  Zn120  1  0.81513780  0.31100645  0.81125535  1
  Zn  Zn121  1  0.78025676  0.80042920  0.30208501  1
  Zn  Zn122  1  0.81272588  0.81111778  0.81247817  1
  Zn  Zn123  1  0.18272269  0.43884770  0.43340462  1
  Zn  Zn124  1  0.19358984  0.43934114  0.94139676  1
  Zn  Zn125  1  0.18687316  0.93615127  0.43489717  1
  Zn  Zn126  1  0.18980901  0.93577656  0.93461457  1
  Zn  Zn127  1  0.68260360  0.43555471  0.43579337  1
  Zn  Zn128  1  0.68983982  0.43788101  0.93599528  1
  Zn  Zn129  1  0.69069459  0.93447123  0.44020231  1
  Zn  Zn130  1  0.68971525  0.93417635  0.94114580  1
  Zn  Zn131  1  0.30257542  0.06063101  0.06370217  1
  Zn  Zn132  1  0.31162904  0.06345658  0.55922967  1
  Zn  Zn133  1  0.31512358  0.57008219  0.05896941  1
  Zn  Zn134  1  0.31559122  0.55991551  0.56173163  1
  Zn  Zn135  1  0.80633946  0.06041436  0.06592583  1
  Zn  Zn136  1  0.81473973  0.06288082  0.56290867  1
  Zn  Zn137  1  0.81663521  0.56202038  0.06455201  1
  Zn  Zn138  1  0.81161718  0.56105353  0.56801120  1
  Zn  Zn139  1  0.43664493  0.44505603  0.18874709  1
  Zn  Zn140  1  0.43931339  0.44119894  0.68275286  1
  Zn  Zn141  1  0.43595886  0.94208081  0.18908016  1
  Zn  Zn142  1  0.43843207  0.93837196  0.68915052  1
  Zn  Zn143  1  0.93916443  0.43849700  0.18602468  1
  Zn  Zn144  1  0.93711718  0.44472006  0.68856046  1
  Zn  Zn145  1  0.93984611  0.93640637  0.18200610  1
  Zn  Zn146  1  0.93734838  0.93359581  0.68492063  1
  Zn  Zn147  1  0.05863747  0.06040715  0.31177112  1
  Zn  Zn148  1  0.06642342  0.06566965  0.80779759  1
  Zn  Zn149  1  0.05889569  0.56333107  0.31592877  1
  Zn  Zn150  1  0.05927511  0.56477969  0.82140499  1
  Zn  Zn151  1  0.55964458  0.06093644  0.30765418  1
  Zn  Zn152  1  0.56227908  0.06237588  0.81152008  1
  Zn  Zn153  1  0.56336227  0.55791853  0.30901899  1
  Zn  Zn154  1  0.55910321  0.56340717  0.80624422  1
  Zn  Zn155  1  0.43597566  0.19081136  0.43425097  1
  Zn  Zn156  1  0.43372502  0.19334669  0.93468252  1
  Zn  Zn157  1  0.43613486  0.69042183  0.43871741  1
  Zn  Zn158  1  0.44065007  0.68932558  0.93986309  1
  Zn  Zn159  1  0.93556316  0.18454087  0.43789721  1
  Zn  Zn160  1  0.94099650  0.21125131  0.93461505  1
  Zn  Zn161  1  0.93487105  0.68152446  0.43795595  1
  Zn  Zn162  1  0.94081192  0.68396121  0.93483064  1
  Zn  Zn163  1  0.06312750  0.30789271  0.06253521  1
  Zn  Zn164  1  0.06543978  0.31683645  0.56763509  1
  Zn  Zn165  1  0.06407046  0.81299384  0.07040304  1
  Zn  Zn166  1  0.06158102  0.81046753  0.56643343  1
  Zn  Zn167  1  0.56313119  0.30881634  0.05661303  1
  Zn  Zn168  1  0.56551616  0.31239243  0.56055891  1
  Zn  Zn169  1  0.56371712  0.81009071  0.06207452  1
  Zn  Zn170  1  0.56310507  0.81228289  0.56120937  1
  O  O171  1  0.11736002  0.11096540  0.12104972  1
  O  O172  1  0.12246735  0.12003040  0.62012683  1
  O  O173  1  0.12624736  0.63373177  0.11171252  1
  O  O174  1  0.13202431  0.61090163  0.61676462  1
  O  O175  1  0.61373030  0.11724711  0.11895636  1
  O  O176  1  0.61943250  0.12057556  0.62160023  1
  O  O177  1  0.61943486  0.62470329  0.12624090  1
  O  O178  1  0.60940097  0.61240423  0.63212532  1
  O  O179  1  0.38296961  0.37598563  0.37221610  1
  O  O180  1  0.38258174  0.38710916  0.88527023  1
  O  O181  1  0.37973886  0.88234294  0.38415466  1
  O  O182  1  0.38266711  0.88573357  0.87358519  1
  O  O183  1  0.87353522  0.38701655  0.37074704  1
  O  O184  1  0.86888176  0.38092250  0.88564155  1
  O  O185  1  0.86378424  0.88587733  0.37201152  1
  O  O186  1  0.87510057  0.87096733  0.88862549  1
  O  O187  1  0.25734629  0.01394356  0.38448793  1
  O  O188  1  0.25707167  0.00820446  0.86789453  1
  O  O189  1  0.24771296  0.51343278  0.36867241  1
  O  O190  1  0.26809893  0.50294522  0.88099250  1
  O  O191  1  0.75505910  0.00833020  0.37319764  1
  O  O192  1  0.74581644  0.00435434  0.86259445  1
  O  O193  1  0.75556424  0.50397771  0.37701114  1
  O  O194  1  0.75656671  0.49698208  0.86116755  1
  O  O195  1  0.25293378  0.50437028  0.13562627  1
  O  O196  1  0.24110246  0.48898975  0.62241996  1
  O  O197  1  0.22943681  1.00222915  0.12748186  1
  O  O198  1  0.24409097  0.99561587  0.62825498  1
  O  O199  1  0.75036687  0.48905552  0.12863872  1
  O  O200  1  0.73571272  0.50420428  0.63665957  1
  O  O201  1  0.73720577  0.99367587  0.12480428  1
  O  O202  1  0.74615842  1.00037530  0.63680238  1
  O  O203  1  0.00309872  0.36277958  0.25114057  1
  O  O204  1  -0.00383477  0.36362715  0.74648927  1
  O  O205  1  0.00364299  0.86441631  0.25139317  1
  O  O206  1  0.01142868  0.86638232  0.74482220  1
  O  O207  1  0.50329005  0.36899057  0.25237091  1
  O  O208  1  0.49354001  0.37567655  0.76351364  1
  O  O209  1  0.49484386  0.87877421  0.26593995  1
  O  O210  1  0.50805108  0.86989909  0.75436317  1
  O  O211  1  0.49004282  0.13201475  0.24139962  1
  O  O212  1  0.48834730  0.12545719  0.74386569  1
  O  O213  1  0.49144813  0.62168733  0.24319576  1
  O  O214  1  0.49387423  0.63540122  0.74221826  1
  O  O215  1  0.99168852  0.13532435  0.25165476  1
  O  O216  1  0.99523327  0.13160054  0.74374253  1
  O  O217  1  0.98835712  0.63399871  0.25374095  1
  O  O218  1  0.99031318  0.63424623  0.75482111  1
  O  O219  1  0.36295706  0.26359523  -0.00841592  1
  O  O220  1  0.36477324  0.25155311  0.50631709  1
  O  O221  1  0.36817545  0.75039117  0.00825583  1
  O  O222  1  0.36379576  0.76051885  0.49633848  1
  O  O223  1  0.86891804  0.25701346  0.00804953  1
  O  O224  1  0.86720739  0.24324792  0.51009095  1
  O  O225  1  0.87231427  0.75438409  0.00434406  1
  O  O226  1  0.87337190  0.74702429  0.51028550  1
  O  O227  1  0.12986397  0.24588001  0.49546334  1
  O  O228  1  0.13259062  0.25654620  0.98368621  1
  O  O229  1  0.12749828  0.74323755  0.49497044  1
  O  O230  1  0.13068214  0.74849444  0.99643405  1
  O  O231  1  0.63338728  0.24017550  0.49870126  1
  O  O232  1  0.62743529  0.24182274  0.98613301  1
  O  O233  1  0.63789039  0.75253084  0.49275028  1
  O  O234  1  0.63400431  0.75034527  0.98994141  1
  O  O235  1  0.50309087  0.24226401  0.13408596  1
  O  O236  1  0.49308025  0.24524374  0.62506349  1
  O  O237  1  0.49460797  0.73884027  0.12103003  1
  O  O238  1  0.50763236  0.73912112  0.63162403  1
  O  O239  1  0.98909841  0.24239385  0.12952691  1
  O  O240  1  0.99748190  0.24529395  0.63039919  1
  O  O241  1  0.99174851  0.74599136  0.13686356  1
  O  O242  1  0.99331458  0.74892800  0.63532793  1
  O  O243  1  0.00312002  0.24980229  0.36746581  1
  O  O244  1  0.01854199  0.25170320  0.86633035  1
  O  O245  1  0.00688886  0.74496222  0.37044376  1
  O  O246  1  0.01210058  0.74932890  0.86750225  1
  O  O247  1  0.50044311  0.25450568  0.36038173  1
  O  O248  1  0.50667784  0.25972407  0.87243974  1
  O  O249  1  0.50065831  0.76567063  0.37851678  1
  O  O250  1  0.50646591  0.75818850  0.86651776  1
  O  O251  1  0.24401438  0.13681359  0.49447409  1
  O  O252  1  0.25911838  0.13619599  0.98761531  1
  O  O253  1  0.24302653  0.63004514  0.49486968  1
  O  O254  1  0.24044578  0.63560635  0.99664611  1
  O  O255  1  0.74524903  0.12713013  0.49268607  1
  O  O256  1  0.75450130  0.12318607  0.98425691  1
  O  O257  1  0.75093078  0.63241184  0.49682279  1
  O  O258  1  0.75051624  0.63930591  1.00531587  1
  O  O259  1  0.25798515  0.36977590  0.00573318  1
  O  O260  1  0.24766286  0.36498066  0.49896611  1
  O  O261  1  0.25525372  0.86259379  -0.00368487  1
  O  O262  1  0.25561190  0.86787781  0.50334950  1
  O  O263  1  0.75632796  0.37213175  0.01065293  1
  O  O264  1  0.74542091  0.35863673  0.49376841  1
  O  O265  1  0.76027557  0.86599191  0.00757654  1
  O  O266  1  0.75396670  0.86062576  0.50315284  1
  O  O267  1  0.13036336  0.49317583  0.25555194  1
  O  O268  1  0.12026143  0.50874223  0.73936642  1
  O  O269  1  0.12598885  0.98363719  0.26189466  1
  O  O270  1  0.13093134  0.99187358  0.74451203  1
  O  O271  1  0.62754813  0.48345654  0.24556976  1
  O  O272  1  0.63580697  0.49969438  0.74716806  1
  O  O273  1  0.62297932  1.00542596  0.22971782  1
  O  O274  1  0.63229225  0.99353161  0.74528410  1
  O  O275  1  0.37562059  0.00818660  0.26327364  1
  O  O276  1  0.36920694  0.00749693  0.75534730  1
  O  O277  1  0.36467487  0.51392938  0.25272841  1
  O  O278  1  0.38181580  0.50047652  0.76600625  1
  O  O279  1  0.87876451  0.01006818  0.25500619  1
  O  O280  1  0.87027299  0.01036017  0.74453222  1
  O  O281  1  0.87517016  0.50643585  0.26051547  1
  O  O282  1  0.86517959  0.50701445  0.75427098  1
  O  O283  1  0.12297755  0.36650197  0.36208586  1
  O  O284  1  0.13164239  0.37037638  0.87163375  1
  O  O285  1  0.12790299  0.86189905  0.36930085  1
  O  O286  1  0.13079185  0.86689264  0.86314739  1
  O  O287  1  0.61678521  0.36961742  0.36384972  1
  O  O288  1  0.61638929  0.36660250  0.88044313  1
  O  O289  1  0.60869408  0.88170721  0.37893069  1
  O  O290  1  0.61871837  0.87171240  0.86556830  1
  O  O291  1  0.37870764  0.11400482  0.13623913  1
  O  O292  1  0.37743233  0.13068527  0.63074911  1
  O  O293  1  0.38308829  0.63422987  0.13196270  1
  O  O294  1  0.39477877  0.61727029  0.62420739  1
  O  O295  1  0.87585219  0.12826121  0.13218927  1
  O  O296  1  0.88212132  0.13077276  0.63248628  1
  O  O297  1  0.87241157  0.63676440  0.13489625  1
  O  O298  1  0.87218388  0.63498787  0.63750018  1
  O  O299  1  0.24219223  0.24783125  0.11109640  1
  O  O300  1  0.25104922  0.26331844  0.61901552  1
  O  O301  1  0.26166178  0.74704607  0.11668604  1
  O  O302  1  0.24173820  0.75534252  0.61164147  1
  O  O303  1  0.75932703  0.25177703  0.12422991  1
  O  O304  1  0.76088139  0.24397396  0.61629119  1
  O  O305  1  0.75829768  0.75748564  0.11688007  1
  O  O306  1  0.75417569  0.74688266  0.61448534  1
  O  O307  1  0.24591019  0.24257150  0.38154628  1
  O  O308  1  0.24137028  0.24680656  0.87831744  1
  O  O309  1  0.24178787  0.74070404  0.38537111  1
  O  O310  1  0.23881916  0.74927718  0.88425242  1
  O  O311  1  0.75051138  0.23695337  0.38166033  1
  O  O312  1  0.74480357  0.24029739  0.87313782  1
  O  O313  1  0.76556290  0.73539513  0.39613532  1
  O  O314  1  0.73935206  0.75615329  0.88231464  1
  O  O315  1  -0.01708148  0.11425278  -0.01065751  1
  O  O316  1  0.00623866  0.11654092  0.50491268  1
  O  O317  1  0.01680696  0.62860475  0.00271073  1
  O  O318  1  0.01268345  0.61597517  0.49735829  1
  O  O319  1  0.49240762  0.13102728  0.01197296  1
  O  O320  1  0.50512505  0.12081885  0.50231667  1
  O  O321  1  0.50473610  0.61857983  0.00821409  1
  O  O322  1  0.50295532  0.62933602  0.51025872  1
  O  O323  1  0.49932867  0.36832985  0.48321419  1
  O  O324  1  0.49451909  0.38207068  0.99380118  1
  O  O325  1  0.49221733  0.88143165  0.49695707  1
  O  O326  1  0.49774488  0.87016705  0.98562599  1
  O  O327  1  1.00655091  0.38682669  0.49764292  1
  O  O328  1  0.98521359  0.37226857  1.00560279  1
  O  O329  1  0.99847773  0.88648820  0.50415204  1
  O  O330  1  0.98711849  0.86732356  1.00257982  1
  O  O331  1  0.49966438  0.48897749  0.37470129  1
  O  O332  1  0.49655240  0.49547136  0.88208679  1
  O  O333  1  0.49182035  0.99452362  0.38040537  1
  O  O334  1  0.49050739  0.99179730  0.86799673  1
  O  O335  1  0.99196104  0.49701367  0.38556807  1
  O  O336  1  0.98508741  0.50048545  0.88138000  1
  O  O337  1  0.98823922  1.00507073  0.38507644  1
  O  O338  1  0.99637779  0.99923898  0.87292176  1
  O  O339  1  0.01770785  0.00113371  0.13240924  1
  O  O340  1  0.00546275  0.00576068  0.61815621  1
  O  O341  1  -0.01052379  0.50789754  0.11675630  1
  O  O342  1  0.01539474  0.49596262  0.62051502  1
  O  O343  1  0.50696092  0.00631940  0.12362645  1
  O  O344  1  0.50495305  0.00713896  0.61894810  1
  O  O345  1  0.50160838  0.51191311  0.11782142  1
  O  O346  1  0.51071902  0.50801867  0.62256533  1
  O  O347  1  0.24214588  0.38584257  0.24685986  1
  O  O348  1  0.25403031  0.37400541  0.74091741  1
  O  O349  1  0.23780967  0.86929412  0.25497207  1
  O  O350  1  0.24288577  0.87824936  0.74303242  1
  O  O351  1  0.74185817  0.37063152  0.23988068  1
  O  O352  1  0.75212845  0.38612346  0.74845268  1
  O  O353  1  0.76668155  0.88755280  0.22893259  1
  O  O354  1  0.74409681  0.88163540  0.74853422  1
  O  O355  1  0.25598616  0.13204497  0.26041881  1
  O  O356  1  0.26015819  0.12156892  0.75380295  1
  O  O357  1  0.25196635  0.62257639  0.25757140  1
  O  O358  1  0.25948173  0.63264218  0.75659788  1
  O  O359  1  0.75724452  0.12327274  0.25708931  1
  O  O360  1  0.76060760  0.11944390  0.75955345  1
  O  O361  1  0.76342395  0.62005785  0.25926605  1
  O  O362  1  0.75645359  0.62107598  0.74979127  1
  O  O363  1  0.36809662  0.11934083  0.36768909  1
  O  O364  1  0.37034298  0.12054462  0.86603001  1
  O  O365  1  0.36645546  0.62791303  0.36815188  1
  O  O366  1  0.38038113  0.61108250  0.87798200  1
  O  O367  1  0.86684920  0.11744077  0.36774915  1
  O  O368  1  0.87556766  0.11886091  0.87151096  1
  O  O369  1  0.86748510  0.61214272  0.37144882  1
  O  O370  1  0.87464428  0.61672729  0.86731764  1
  O  O371  1  0.12537049  0.36952645  0.13866876  1
  O  O372  1  0.13839792  0.38730722  0.62638482  1
  O  O373  1  0.12333419  0.88390513  0.14033340  1
  O  O374  1  0.13099508  0.88073119  0.63125381  1
  O  O375  1  0.63278507  0.37249846  0.12801367  1
  O  O376  1  0.61645422  0.38984239  0.62890659  1
  O  O377  1  0.63101585  0.88394139  0.11958106  1
  O  O378  1  0.62666818  0.87982832  0.63590831  1
  O  O379  1  0.11625202  0.25262305  0.25294639  1
  O  O380  1  0.11993967  0.24919098  0.76190288  1
  O  O381  1  0.11616424  0.75793772  0.25773009  1
  O  O382  1  0.11720082  0.75403150  0.75542641  1
  O  O383  1  0.61692070  0.25766899  0.24929073  1
  O  O384  1  0.62295538  0.24376466  0.76284138  1
  O  O385  1  0.67084053  0.76516864  0.27028066  1
  O  O386  1  0.62029433  0.75762892  0.75476662  1
  O  O387  1  0.38041312  0.23983874  0.24983931  1
  O  O388  1  0.37612051  0.24262053  0.74458564  1
  O  O389  1  0.36836442  0.73855858  0.24431192  1
  O  O390  1  0.38726734  0.75647647  0.75222023  1
  O  O391  1  0.87958891  0.24073987  0.24449622  1
  O  O392  1  0.88334927  0.23930133  0.74587785  1
  O  O393  1  0.87727055  0.74514940  0.24518987  1
  O  O394  1  0.88028423  0.74328023  0.74724302  1
  O  O395  1  0.38154821  0.49674781  0.49308279  1
  O  O396  1  0.38642381  0.49711347  0.99452787  1
  O  O397  1  0.37922287  0.99579944  0.48990966  1
  O  O398  1  0.36915713  0.99973207  0.98771874  1
  O  O399  1  0.88599824  0.50568546  0.49738634  1
  O  O400  1  0.86939999  0.49200510  0.99028397  1
  O  O401  1  0.88118877  0.99641740  0.49213437  1
  O  O402  1  0.87512954  0.98827155  0.99790795  1
  O  O403  1  0.12410222  -0.00688842  0.00697696  1
  O  O404  1  0.11799605  0.00436976  0.50210835  1
  O  O405  1  0.12681612  0.51529151  -0.00372742  1
  O  O406  1  0.11914021  0.50630837  0.50496652  1
  O  O407  1  0.62754869  0.00253388  0.01327435  1
  O  O408  1  0.62210499  0.00523651  0.50751494  1
  O  O409  1  0.61527776  0.50164399  0.00102028  1
  O  O410  1  0.62303473  0.49622503  0.51373410  1
  O  O411  1  0.37525623  0.38112754  0.11339373  1
  O  O412  1  0.36294982  0.37340731  0.62255567  1
  O  O413  1  0.38397895  0.86217681  0.12589844  1
  O  O414  1  0.36971692  0.88306501  0.61225913  1
  O  O415  1  0.86666450  0.36472339  0.12300420  1
  O  O416  1  0.87912877  0.36241233  0.62898893  1
  O  O417  1  0.87199382  0.86539568  0.11504349  1
  O  O418  1  0.87260485  0.85877866  0.62548611  1
  O  O419  1  0.13179199  0.13001360  0.37809856  1
  O  O420  1  0.13908553  0.12862656  0.86971606  1
  O  O421  1  0.13083796  0.63362431  0.38212120  1
  O  O422  1  0.12612083  0.63460279  0.88704812  1
  O  O423  1  0.63245140  0.12359479  0.37870455  1
  O  O424  1  0.63318891  0.12812140  0.87510889  1
  O  O425  1  0.63895943  0.62312931  0.36866160  1
  O  O426  1  0.61867436  0.63773462  0.87483211  1
