# generated using pymatgen
data_V85Zn86O256
_symmetry_space_group_name_H-M   'P 1'
_cell_length_a   16.93827813
_cell_length_b   16.94425374
_cell_length_c   16.94597511
_cell_angle_alpha   90.08187081
_cell_angle_beta   90.01266740
_cell_angle_gamma   90.13861648
_symmetry_Int_Tables_number   1
_chemical_formula_structural   V85Zn86O256
_chemical_formula_sum   'V85 Zn86 O256'
_cell_volume   4863.58538971
_cell_formula_units_Z   1
loop_
 _symmetry_equiv_pos_site_id
 _symmetry_equiv_pos_as_xyz
  1  'x, y, z'
loop_
 _atom_site_type_symbol
 _atom_site_label
 _atom_site_symmetry_multiplicity
 _atom_site_fract_x
 _atom_site_fract_y
 _atom_site_fract_z
 _atom_site_occupancy
  V  V0  1  0.37366005  0.74834878  0.11652578  1
  V  V1  1  0.24598943  -0.00406436  0.24928869  1
  V  V2  1  0.36617535  0.24817979  0.62282147  1
  V  V3  1  0.24693625  0.49482627  0.25391227  1
  V  V4  1  0.62610770  0.12311243  0.49758248  1
  V  V5  1  -0.00214987  0.00035733  -0.00103858  1
  V  V6  1  0.50016148  0.25291283  0.25110271  1
  V  V7  1  0.31685703  0.55484669  0.91803707  1
  V  V8  1  0.00018296  0.75063843  0.74947880  1
  V  V9  1  0.74593306  0.87456334  0.14470280  1
  V  V10  1  0.62753664  0.75433009  0.37112627  1
  V  V11  1  0.12674779  0.00194808  0.62779483  1
  V  V12  1  0.86906142  0.00179525  0.36700871  1
  V  V13  1  -0.00096533  0.87283670  0.87689318  1
  V  V14  1  0.62356173  0.25932936  0.87631504  1
  V  V15  1  0.00175894  0.87434808  0.37278882  1
  V  V16  1  0.74932216  0.62156963  0.36828574  1
  V  V17  1  0.38031467  0.62511181  0.24978619  1
  V  V18  1  0.38056650  0.50021772  0.38023510  1
  V  V19  1  0.37210925  0.25124806  0.12180684  1
  V  V20  1  0.62846466  0.62842981  0.00385106  1
  V  V21  1  0.62469541  -0.00323472  0.62415950  1
  V  V22  1  0.13950204  0.12730491  -0.00055943  1
  V  V23  1  0.36954690  -0.00938607  0.37945554  1
  V  V24  1  0.49874258  0.74296388  0.74776959  1
  V  V25  1  0.24889306  0.12915286  0.37930307  1
  V  V26  1  0.62848585  -0.00277065  0.13713396  1
  V  V27  1  0.63419932  0.38044155  0.25251819  1
  V  V28  1  0.87550272  0.25090236  0.12678298  1
  V  V29  1  0.62420939  0.25118609  0.37602900  1
  V  V30  1  0.49515810  -0.00929446  0.50066264  1
  V  V31  1  0.24480475  0.62668376  0.38374216  1
  V  V32  1  0.74676886  -0.00214624  0.74413644  1
  V  V33  1  0.50238912  0.12286666  0.12531883  1
  V  V34  1  0.24330302  0.39206489  0.62582262  1
  V  V35  1  0.12635447  0.13352048  0.50118280  1
  V  V36  1  0.62099655  0.50517638  0.13021408  1
  V  V37  1  0.37566670  0.37229644  -0.01078396  1
  V  V38  1  0.13036723  0.87541585  0.74935424  1
  V  V39  1  0.36240194  0.61373893  0.74466433  1
  V  V40  1  0.87530566  0.37620982  0.00122982  1
  V  V41  1  0.12403483  0.49811078  0.12775656  1
  V  V42  1  0.87067137  0.49816127  0.36792501  1
  V  V43  1  0.86610449  0.87779836  0.50589736  1
  V  V44  1  -0.00089221  0.00128984  0.50127741  1
  V  V45  1  0.87039315  0.50071354  0.87004722  1
  V  V46  1  0.87145069  -0.00055030  0.87382979  1
  V  V47  1  0.12303634  -0.00242682  0.12439336  1
  V  V48  1  0.37399996  0.75494376  0.61585329  1
  V  V49  1  0.62051895  0.62001110  0.49774008  1
  V  V50  1  0.24903161  0.37101267  0.12486575  1
  V  V51  1  0.26245916  0.01382570  0.76161158  1
  V  V52  1  0.48588513  0.22683115  0.77579192  1
  V  V53  1  0.74857374  0.25207653  0.00349480  1
  V  V54  1  0.50179871  0.87540917  0.36863651  1
  V  V55  1  0.87228000  0.74639616  0.12228065  1
  V  V56  1  0.61842816  0.49952864  0.62379644  1
  V  V57  1  0.00799394  0.25230354  0.25014342  1
  V  V58  1  0.74599687  0.12645626  0.87230289  1
  V  V59  1  0.50184424  0.75147161  0.24335642  1
  V  V60  1  0.50571523  0.49965467  -0.01416888  1
  V  V61  1  0.49472101  0.87720937  0.87635863  1
  V  V62  1  0.24727533  0.86720032  0.11628139  1
  V  V63  1  0.87064604  0.61998084  0.74517701  1
  V  V64  1  -0.00107409  0.12525802  0.12320509  1
  V  V65  1  0.13860619  0.24522784  0.87726763  1
  V  V66  1  0.13935770  0.74783598  0.88251973  1
  V  V67  1  0.37383490  0.12345789  0.25085918  1
  V  V68  1  0.00904277  0.37543490  0.37328025  1
  V  V69  1  0.87628957  0.37939885  0.50398186  1
  V  V70  1  0.49465159  0.12927544  0.61930920  1
  V  V71  1  0.37074781  0.37123140  0.50110160  1
  V  V72  1  -0.00116763  0.24631458  0.75250743  1
  V  V73  1  0.01094329  0.50783268  0.49966109  1
  V  V74  1  0.00002554  0.50776404  -0.00020493  1
  V  V75  1  0.86782745  0.75277566  0.62509029  1
  V  V76  1  0.50055574  0.37764199  0.38186589  1
  V  V77  1  0.61298669  0.37791103  0.75066288  1
  V  V78  1  0.85822936  0.87187677  -0.00258200  1
  V  V79  1  0.63298998  0.74837352  0.87580581  1
  V  V80  1  0.01136037  0.62820422  0.61943539  1
  V  V81  1  0.00158202  0.37158571  0.87642727  1
  V  V82  1  0.75208308  0.38372902  0.63256147  1
  V  V83  1  0.75181947  0.25040115  0.50195769  1
  V  V84  1  0.62625069  0.87328164  0.74425453  1
  Zn  Zn85  1  0.62494482  0.12281686  0.00270209  1
  Zn  Zn86  1  0.14150600  0.62642507  -0.00096662  1
  Zn  Zn87  1  0.75175997  0.38142042  0.13185665  1
  Zn  Zn88  1  0.13131936  0.25467072  0.37461404  1
  Zn  Zn89  1  0.13938005  0.38809009  0.75702265  1
  Zn  Zn90  1  0.11491508  0.73930045  0.37983895  1
  Zn  Zn91  1  0.24296346  0.76116681  0.49842583  1
  Zn  Zn92  1  0.87169117  0.12539253  0.74582540  1
  Zn  Zn93  1  0.36660188  0.87680151  -0.00965051  1
  Zn  Zn94  1  0.49701277  0.61905057  0.61893694  1
  Zn  Zn95  1  0.00386295  0.62784176  0.12675241  1
  Zn  Zn96  1  0.25745994  0.88174464  0.61794804  1
  Zn  Zn97  1  0.87587362  0.25037819  0.62741952  1
  Zn  Zn98  1  -0.00024774  0.74540927  0.24914869  1
  Zn  Zn99  1  0.74665875  0.75159814  0.50248247  1
  Zn  Zn100  1  -0.00249561  0.12841312  0.62608256  1
  Zn  Zn101  1  0.49761134  -0.00202086  0.00100832  1
  Zn  Zn102  1  0.75019755  0.62381645  0.87312298  1
  Zn  Zn103  1  0.74680500  0.12007871  0.36890996  1
  Zn  Zn104  1  0.87307834  0.61995137  0.24459289  1
  Zn  Zn105  1  0.86990564  0.12330328  0.24595505  1
  Zn  Zn106  1  0.12256960  0.86667814  0.24929202  1
  Zn  Zn107  1  0.18733516  0.18471570  0.18750841  1
  Zn  Zn108  1  0.18570240  0.18825384  0.69228729  1
  Zn  Zn109  1  0.18687486  0.68441715  0.19438638  1
  Zn  Zn110  1  0.19062191  0.68941530  0.68839141  1
  Zn  Zn111  1  0.68840498  0.18787463  0.19041170  1
  Zn  Zn112  1  0.68134750  0.19000282  0.68731130  1
  Zn  Zn113  1  0.68917152  0.68933245  0.18641527  1
  Zn  Zn114  1  0.68901157  0.68396230  0.68693303  1
  Zn  Zn115  1  0.31335472  0.31256442  0.31001796  1
  Zn  Zn116  1  0.31303724  0.31392963  0.80551551  1
  Zn  Zn117  1  0.31178129  0.81110082  0.30977044  1
  Zn  Zn118  1  0.31351349  0.81156296  0.80233512  1
  Zn  Zn119  1  0.81669804  0.30787013  0.31581950  1
  Zn  Zn120  1  0.81295254  0.31405082  0.81133094  1
  Zn  Zn121  1  0.81752448  0.80956057  0.31413897  1
  Zn  Zn122  1  0.81093286  0.81358571  0.80804613  1
  Zn  Zn123  1  0.19151876  0.43752496  0.44287164  1
  Zn  Zn124  1  0.18424022  0.43024513  0.94517582  1
  Zn  Zn125  1  0.18549519  0.93485860  0.44293342  1
  Zn  Zn126  1  0.18713259  0.93919091  0.93602462  1
  Zn  Zn127  1  0.68922858  0.43917653  0.44061247  1
  Zn  Zn128  1  0.68933588  0.43911796  0.93815114  1
  Zn  Zn129  1  0.68666003  0.93511131  0.43500766  1
  Zn  Zn130  1  0.67674482  0.94197194  0.93678341  1
  Zn  Zn131  1  0.31794340  0.05497172  0.06086062  1
  Zn  Zn132  1  0.30994247  0.06057013  0.56383131  1
  Zn  Zn133  1  0.31989561  0.55789465  0.08014591  1
  Zn  Zn134  1  0.31695200  0.56098891  0.56029343  1
  Zn  Zn135  1  0.80904899  0.06090363  0.06305985  1
  Zn  Zn136  1  0.81254491  0.06519231  0.56317979  1
  Zn  Zn137  1  0.80530800  0.56101146  0.06178418  1
  Zn  Zn138  1  0.81132857  0.56369162  0.55788053  1
  Zn  Zn139  1  0.44318890  0.43899738  0.18666272  1
  Zn  Zn140  1  0.43851412  0.43374843  0.68767712  1
  Zn  Zn141  1  0.43403179  0.93576523  0.18530165  1
  Zn  Zn142  1  0.43954199  0.93657240  0.69082875  1
  Zn  Zn143  1  0.94072989  0.43540948  0.18907689  1
  Zn  Zn144  1  0.98261466  0.45987618  0.70619970  1
  Zn  Zn145  1  0.93574352  0.93309269  0.18605770  1
  Zn  Zn146  1  0.93907291  0.93837566  0.68800592  1
  Zn  Zn147  1  0.05988111  0.06334377  0.31220330  1
  Zn  Zn148  1  0.06575873  0.06336367  0.81467393  1
  Zn  Zn149  1  0.06021535  0.56112012  0.30856660  1
  Zn  Zn150  1  0.06679004  0.56854062  0.81443231  1
  Zn  Zn151  1  0.56130781  0.06108181  0.31138282  1
  Zn  Zn152  1  0.54998175  0.06935258  0.81734588  1
  Zn  Zn153  1  0.56204336  0.56409734  0.31233075  1
  Zn  Zn154  1  0.56408199  0.56233689  0.80923379  1
  Zn  Zn155  1  0.43445593  0.18645516  0.43926708  1
  Zn  Zn156  1  0.44091019  0.19234428  0.94258499  1
  Zn  Zn157  1  0.43970420  0.68703848  0.43525775  1
  Zn  Zn158  1  0.44814880  0.68890211  0.93771737  1
  Zn  Zn159  1  0.93829642  0.18774733  0.43773694  1
  Zn  Zn160  1  0.93629912  0.18528761  0.93774990  1
  Zn  Zn161  1  0.93349189  0.68786204  0.43768690  1
  Zn  Zn162  1  0.93569760  0.68960461  0.93764404  1
  Zn  Zn163  1  0.06550522  0.31264383  0.06017367  1
  Zn  Zn164  1  0.06174068  0.31530760  0.56423614  1
  Zn  Zn165  1  0.05852626  0.81125538  0.06010821  1
  Zn  Zn166  1  0.06341575  0.81212775  0.55901856  1
  Zn  Zn167  1  0.56024079  0.31770485  0.06393142  1
  Zn  Zn168  1  0.56070303  0.31279324  0.56428152  1
  Zn  Zn169  1  0.56727457  0.81213611  0.06244876  1
  Zn  Zn170  1  0.56006839  0.80921130  0.55983099  1
  O  O171  1  0.11749255  0.11974346  0.11835128  1
  O  O172  1  0.12225700  0.11956475  0.61886249  1
  O  O173  1  0.12922962  0.61238992  0.11876055  1
  O  O174  1  0.11044210  0.63327837  0.62962224  1
  O  O175  1  0.61780818  0.11931630  0.12610963  1
  O  O176  1  0.62239684  0.11993992  0.60886998  1
  O  O177  1  0.62749297  0.61971528  0.11737980  1
  O  O178  1  0.62550556  0.61675665  0.61729394  1
  O  O179  1  0.37971777  0.37926635  0.38053071  1
  O  O180  1  0.37015355  0.36560039  0.89005793  1
  O  O181  1  0.38019554  0.88593841  0.37041101  1
  O  O182  1  0.39096790  0.86116147  0.87283991  1
  O  O183  1  0.88255960  0.37974521  0.38512323  1
  O  O184  1  0.88156811  0.38024773  0.88105905  1
  O  O185  1  0.88169548  0.88506572  0.38253125  1
  O  O186  1  0.87781764  0.87911778  0.87990539  1
  O  O187  1  0.25462420  0.00579882  0.36864031  1
  O  O188  1  0.24862212  -0.00411909  0.86062447  1
  O  O189  1  0.25968592  0.50342318  0.37080333  1
  O  O190  1  0.25249459  0.49441974  0.87227437  1
  O  O191  1  0.76549197  -0.00061689  0.38053948  1
  O  O192  1  0.74772960  0.00857747  0.86558250  1
  O  O193  1  0.75878208  0.50751034  0.37953327  1
  O  O194  1  0.76696692  0.49909100  0.87665221  1
  O  O195  1  0.24539401  0.49188927  0.13540367  1
  O  O196  1  0.24886601  0.49106426  0.62109891  1
  O  O197  1  0.24401524  0.99126215  0.13362724  1
  O  O198  1  0.23797148  1.00123207  0.63350192  1
  O  O199  1  0.73004287  0.49485284  0.11842135  1
  O  O200  1  0.74098699  0.48970874  0.61768866  1
  O  O201  1  0.74438603  0.98500436  0.12161284  1
  O  O202  1  0.74175028  1.00616274  0.63683798  1
  O  O203  1  -0.00134691  0.36701092  0.26206326  1
  O  O204  1  -0.00523795  0.36052045  0.76755496  1
  O  O205  1  -0.00042857  0.87291649  0.25931450  1
  O  O206  1  0.01010899  0.87200714  0.75665762  1
  O  O207  1  0.50516075  0.37037091  0.26235074  1
  O  O208  1  0.51097947  0.36303699  0.74531430  1
  O  O209  1  0.49487246  0.86823553  0.26122992  1
  O  O210  1  0.50554700  0.86385416  0.75712461  1
  O  O211  1  0.49432145  0.13122831  0.24303433  1
  O  O212  1  0.52338408  0.13041780  0.72152556  1
  O  O213  1  0.48794396  0.63550248  0.25924967  1
  O  O214  1  0.49593123  0.63422827  0.74700877  1
  O  O215  1  0.99487477  0.13204150  0.24105439  1
  O  O216  1  0.99852977  0.13589486  0.75378478  1
  O  O217  1  0.99222958  0.62489267  0.24468514  1
  O  O218  1  0.99003142  0.63441026  0.74114071  1
  O  O219  1  0.37999754  0.25686052  0.01336375  1
  O  O220  1  0.37751907  0.26201982  0.50558324  1
  O  O221  1  0.38372121  0.74965630  0.01388147  1
  O  O222  1  0.37622148  0.74279100  0.51417364  1
  O  O223  1  0.86911690  0.25534207  0.00633814  1
  O  O224  1  0.86780629  0.25829841  0.49992328  1
  O  O225  1  0.87588644  0.75978540  0.00926402  1
  O  O226  1  0.87361866  0.76021444  0.50769889  1
  O  O227  1  0.11690920  0.23630270  0.49707076  1
  O  O228  1  0.12320544  0.24179746  0.98803903  1
  O  O229  1  0.12808743  0.75354141  0.49129884  1
  O  O230  1  0.12418771  0.74822766  0.98719217  1
  O  O231  1  0.62970898  0.24312711  0.49552834  1
  O  O232  1  0.63319486  0.25357085  0.99581441  1
  O  O233  1  0.62596736  0.74478274  0.48815746  1
  O  O234  1  0.61725977  0.73907849  0.98950015  1
  O  O235  1  0.49399857  0.24511897  0.13178366  1
  O  O236  1  0.48968636  0.24177395  0.62114789  1
  O  O237  1  0.49459299  0.75997104  0.13854216  1
  O  O238  1  0.49113084  0.74577732  0.63032700  1
  O  O239  1  0.99677333  0.24697660  0.12995688  1
  O  O240  1  1.00008440  0.25149766  0.63850708  1
  O  O241  1  0.98788737  0.74808805  0.12439066  1
  O  O242  1  0.99024460  0.74520894  0.62839500  1
  O  O243  1  0.00006191  0.25804657  0.36774941  1
  O  O244  1  0.00445247  0.25583192  0.87395928  1
  O  O245  1  -0.00611968  0.76113525  0.37362327  1
  O  O246  1  0.00295025  0.75810480  0.86898833  1
  O  O247  1  0.50439551  0.25587895  0.37144264  1
  O  O248  1  0.51801587  0.26820049  0.88107808  1
  O  O249  1  0.50410548  0.75861567  0.36804696  1
  O  O250  1  0.51089131  0.75479882  0.86471101  1
  O  O251  1  0.23983137  0.11801490  0.48986650  1
  O  O252  1  0.23842752  0.12047450  1.00955276  1
  O  O253  1  0.25542746  0.62319421  0.48483325  1
  O  O254  1  0.26272788  0.60721439  0.98793122  1
  O  O255  1  0.74254158  0.13237228  0.49526232  1
  O  O256  1  0.74834210  0.13692780  0.99365901  1
  O  O257  1  0.73989701  0.62917682  0.48919978  1
  O  O258  1  0.73308359  0.61912322  0.99212341  1
  O  O259  1  0.26159977  0.38153510  0.01642130  1
  O  O260  1  0.25841083  0.37443220  0.51158370  1
  O  O261  1  0.24798472  0.87673491  0.01270590  1
  O  O262  1  0.25531422  0.87675835  0.50417010  1
  O  O263  1  0.75640851  0.36405856  -0.00026962  1
  O  O264  1  0.75635024  0.36850955  0.50628258  1
  O  O265  1  0.75748570  0.87845925  -0.00525496  1
  O  O266  1  0.76229890  0.87453432  0.49893206  1
  O  O267  1  0.13521601  0.50098661  0.24164810  1
  O  O268  1  0.08848244  0.48713446  0.74514321  1
  O  O269  1  0.13099682  1.00008608  0.24227325  1
  O  O270  1  0.12816124  0.99416620  0.74420669  1
  O  O271  1  0.61860800  0.49225354  0.24405549  1
  O  O272  1  0.62333849  0.49009246  0.74056288  1
  O  O273  1  0.62426552  1.00281729  0.23762189  1
  O  O274  1  0.62772466  0.99243603  0.74559339  1
  O  O275  1  0.36618793  0.00439687  0.25675885  1
  O  O276  1  0.36116575  -0.00187376  0.74441435  1
  O  O277  1  0.37144661  0.50632894  0.25545429  1
  O  O278  1  0.38249083  0.51528275  0.74607128  1
  O  O279  1  0.87937878  -0.00018741  0.26470303  1
  O  O280  1  0.86427034  -0.00021379  0.75561467  1
  O  O281  1  0.87686217  0.49591567  0.26374094  1
  O  O282  1  0.88733228  0.50834436  0.75780811  1
  O  O283  1  0.11350259  0.37302074  0.38342517  1
  O  O284  1  0.11841211  0.36295165  0.87752794  1
  O  O285  1  0.10805274  0.88394310  0.37330791  1
  O  O286  1  0.11930211  0.86665526  0.86987899  1
  O  O287  1  0.61769973  0.37373890  0.37211926  1
  O  O288  1  0.64043617  0.36960342  0.86067270  1
  O  O289  1  0.61561198  0.86675827  0.37611172  1
  O  O290  1  0.61771873  0.86735393  0.86367983  1
  O  O291  1  0.38012921  0.13222627  0.13176487  1
  O  O292  1  0.38398833  0.13340262  0.61522792  1
  O  O293  1  0.37569041  0.63430772  0.13803082  1
  O  O294  1  0.37740699  0.63053814  0.63223429  1
  O  O295  1  0.88158172  0.13222347  0.12206412  1
  O  O296  1  0.87883290  0.13067712  0.62743085  1
  O  O297  1  0.86910077  0.63430772  0.12273509  1
  O  O298  1  0.88008946  0.63202714  0.62821687  1
  O  O299  1  0.25894724  0.25898592  0.13474237  1
  O  O300  1  0.26419057  0.24839606  0.63163402  1
  O  O301  1  0.25878482  0.75695668  0.13342429  1
  O  O302  1  0.26475917  0.75098251  0.62464204  1
  O  O303  1  0.75531831  0.25448286  0.11714509  1
  O  O304  1  0.74678992  0.25702619  0.61310373  1
  O  O305  1  0.75415774  0.76588134  0.12649725  1
  O  O306  1  0.76331400  0.74754514  0.62395931  1
  O  O307  1  0.24973443  0.23405848  0.36547633  1
  O  O308  1  0.23703232  0.25275526  0.87041169  1
  O  O309  1  0.25562167  0.73320189  0.37421785  1
  O  O310  1  0.23752152  0.75716852  0.87251706  1
  O  O311  1  0.74261071  0.25284915  0.38893035  1
  O  O312  1  0.74452807  0.24435884  0.88111890  1
  O  O313  1  0.74251529  0.74538967  0.37649885  1
  O  O314  1  0.73646133  0.74920251  0.86829816  1
  O  O315  1  0.00465093  0.11854094  0.00628765  1
  O  O316  1  0.00601974  0.11429634  0.49969962  1
  O  O317  1  -0.00202455  0.61345390  0.00223078  1
  O  O318  1  -0.00338885  0.61546000  0.50257169  1
  O  O319  1  0.50180583  0.12682477  0.01708205  1
  O  O320  1  0.50680002  0.11529581  0.50238547  1
  O  O321  1  0.50972112  0.60915498  -0.00415878  1
  O  O322  1  0.51508705  0.62810620  0.49897438  1
  O  O323  1  0.49486595  0.37126308  0.48709128  1
  O  O324  1  0.48845569  0.39088303  1.00802984  1
  O  O325  1  0.50272017  0.88501745  0.48931587  1
  O  O326  1  0.50349668  0.86905657  0.98250464  1
  O  O327  1  0.99299767  0.38463742  0.49687910  1
  O  O328  1  0.99604908  0.38166027  0.99217802  1
  O  O329  1  0.99140574  0.88790089  0.49499648  1
  O  O330  1  0.99024900  0.88230305  0.99363852  1
  O  O331  1  0.48820538  0.49253191  0.36980901  1
  O  O332  1  0.50825196  0.49456818  0.88667271  1
  O  O333  1  0.49207917  0.99399162  0.37948023  1
  O  O334  1  0.50661929  0.97947895  0.87325248  1
  O  O335  1  0.99413507  0.49442638  0.38341082  1
  O  O336  1  0.99231135  0.49199532  0.88524533  1
  O  O337  1  0.99018920  0.99621164  0.38297454  1
  O  O338  1  0.99325507  0.99369485  0.87843682  1
  O  O339  1  0.00278316  0.00379397  0.11948172  1
  O  O340  1  0.00944000  0.00306161  0.61947992  1
  O  O341  1  0.00862496  0.49812607  0.11798653  1
  O  O342  1  -0.00983741  0.51287343  0.60518696  1
  O  O343  1  0.50709643  0.00771988  0.13033311  1
  O  O344  1  0.50339513  0.00429903  0.61598534  1
  O  O345  1  0.51325641  0.49857607  0.11599765  1
  O  O346  1  0.51336486  0.49841184  0.62426197  1
  O  O347  1  0.25665776  0.38705483  0.24288452  1
  O  O348  1  0.25282956  0.37614175  0.73211190  1
  O  O349  1  0.24696701  0.88508608  0.24597669  1
  O  O350  1  0.23896884  0.88022394  0.74372657  1
  O  O351  1  0.73721292  0.36919532  0.25457320  1
  O  O352  1  0.74161767  0.36473669  0.73475400  1
  O  O353  1  0.75269411  0.87659944  0.24267900  1
  O  O354  1  0.73870633  0.88544552  0.75284597  1
  O  O355  1  0.25331134  0.11250244  0.25443712  1
  O  O356  1  0.24788407  0.11295997  0.75216041  1
  O  O357  1  0.26141474  0.61310154  0.25924620  1
  O  O358  1  0.26320111  0.62286576  0.74894072  1
  O  O359  1  0.75781732  0.13517172  0.25794242  1
  O  O360  1  0.74592368  0.11979623  0.75725537  1
  O  O361  1  0.75128327  0.62829902  0.26382437  1
  O  O362  1  0.76604369  0.62648205  0.75115124  1
  O  O363  1  0.36854271  0.11556708  0.37037393  1
  O  O364  1  0.45104251  0.14476985  0.84179595  1
  O  O365  1  0.36994729  0.61592242  0.37138619  1
  O  O366  1  0.37542769  0.62419914  0.86503033  1
  O  O367  1  0.87630454  0.10925125  0.37773854  1
  O  O368  1  0.86014373  0.11895940  0.87436800  1
  O  O369  1  0.86589384  0.61562833  0.37514374  1
  O  O370  1  0.87605722  0.61794593  0.86645043  1
  O  O371  1  0.13510091  0.38616074  0.11842615  1
  O  O372  1  0.14215460  0.36958844  0.62433710  1
  O  O373  1  0.12964718  0.87861742  0.12659955  1
  O  O374  1  0.12186926  0.88473229  0.63460899  1
  O  O375  1  0.62446191  0.38070701  0.13837464  1
  O  O376  1  0.63090407  0.38062499  0.62945086  1
  O  O377  1  0.63852590  0.88001696  0.12454288  1
  O  O378  1  0.61647741  0.87912182  0.63604326  1
  O  O379  1  0.11222796  0.24488569  0.25215358  1
  O  O380  1  0.11756095  0.25221015  0.76407010  1
  O  O381  1  0.12061389  0.74946481  0.26102645  1
  O  O382  1  0.12130377  0.75811502  0.75764331  1
  O  O383  1  0.61837459  0.25906282  0.25775978  1
  O  O384  1  0.61343241  0.25301748  0.76031120  1
  O  O385  1  0.61560993  0.74277241  0.26215045  1
  O  O386  1  0.61899064  0.75436325  0.75157757  1
  O  O387  1  0.38111042  0.24485080  0.24196336  1
  O  O388  1  0.38974637  0.25576280  0.74057039  1
  O  O389  1  0.38214615  0.74267036  0.24507137  1
  O  O390  1  0.38204879  0.73851229  0.74114867  1
  O  O391  1  0.88679713  0.25184756  0.24129694  1
  O  O392  1  0.88296880  0.24649498  0.75053395  1
  O  O393  1  0.87563728  0.74969329  0.23492845  1
  O  O394  1  0.88063220  0.74673766  0.74275536  1
  O  O395  1  0.37520983  0.48707637  0.49089786  1
  O  O396  1  0.37991003  0.49968664  0.98952153  1
  O  O397  1  0.38404252  1.00547037  0.49080389  1
  O  O398  1  0.38461341  0.98901523  1.00453098  1
  O  O399  1  0.87999415  0.49325558  0.48977153  1
  O  O400  1  0.88112986  0.49434312  0.99594974  1
  O  O401  1  0.88122837  0.99524367  0.49666587  1
  O  O402  1  0.87693265  0.99356017  0.99232180  1
  O  O403  1  0.11841184  0.00645978  0.00472088  1
  O  O404  1  0.11641817  0.00765873  0.50867199  1
  O  O405  1  0.11664976  0.50349376  0.00530520  1
  O  O406  1  0.10927047  0.49895679  0.49649358  1
  O  O407  1  0.61739759  0.00300388  0.01315433  1
  O  O408  1  0.61844205  0.00497476  0.50224461  1
  O  O409  1  0.61664634  0.50212388  0.00384022  1
  O  O410  1  0.62742814  0.50878222  0.50744100  1
  O  O411  1  0.37038922  0.36818003  0.12146787  1
  O  O412  1  0.36839874  0.37020518  0.61740329  1
  O  O413  1  0.36408399  0.86444260  0.12663387  1
  O  O414  1  0.37835354  0.85792370  0.63138130  1
  O  O415  1  0.87310009  0.36966671  0.11927209  1
  O  O416  1  0.86667857  0.37430662  0.61267606  1
  O  O417  1  0.86223429  0.87132194  0.11716183  1
  O  O418  1  0.88128624  0.86733345  0.61693816  1
  O  O419  1  0.13247019  0.12347524  0.38254579  1
  O  O420  1  0.12231830  0.13707625  0.88463806  1
  O  O421  1  0.14259031  0.61777020  0.37107800  1
  O  O422  1  0.12328234  0.64213962  0.87846595  1
  O  O423  1  0.62282627  0.12879151  0.38467002  1
  O  O424  1  0.63297655  0.13459007  0.87884634  1
  O  O425  1  0.63036187  0.62984803  0.38000432  1
  O  O426  1  0.62666322  0.63206611  0.87855499  1
