# generated using pymatgen
data_V85Zn86O256
_symmetry_space_group_name_H-M   'P 1'
_cell_length_a   16.94599533
_cell_length_b   16.94482068
_cell_length_c   16.95638214
_cell_angle_alpha   90.06848353
_cell_angle_beta   90.02655461
_cell_angle_gamma   90.08308851
_symmetry_Int_Tables_number   1
_chemical_formula_structural   V85Zn86O256
_chemical_formula_sum   'V85 Zn86 O256'
_cell_volume   4868.96262915
_cell_formula_units_Z   1
loop_
 _symmetry_equiv_pos_site_id
 _symmetry_equiv_pos_as_xyz
  1  'x, y, z'
loop_
 _atom_site_type_symbol
 _atom_site_label
 _atom_site_symmetry_multiplicity
 _atom_site_fract_x
 _atom_site_fract_y
 _atom_site_fract_z
 _atom_site_occupancy
  V  V0  1  0.75569212  0.25607570  0.00426068  1
  V  V1  1  -0.00138453  0.12962433  0.61750071  1
  V  V2  1  0.25231431  0.13407280  0.87881376  1
  V  V3  1  0.18309888  0.18048026  0.54718477  1
  V  V4  1  0.25455247  0.63254444  0.88149962  1
  V  V5  1  0.24425814  0.50110922  0.24129968  1
  V  V6  1  0.87162921  0.62388560  0.74730972  1
  V  V7  1  0.87662139  0.37224865  0.49948983  1
  V  V8  1  0.62393960  0.24877056  0.87822600  1
  V  V9  1  0.87426685  0.75044163  0.12513667  1
  V  V10  1  -0.00089314  0.36699762  0.36816199  1
  V  V11  1  -0.00065304  0.00296769  0.00360400  1
  V  V12  1  0.38205395  0.87798277  0.47965924  1
  V  V13  1  0.12137469  0.37547931  0.24097613  1
  V  V14  1  0.87573666  0.87462514  0.00218363  1
  V  V15  1  0.62787483  0.49887251  0.12470428  1
  V  V16  1  0.50505449  0.12359935  0.62347589  1
  V  V17  1  0.37212331  -0.00039825  0.87060075  1
  V  V18  1  0.87048099  0.76360552  0.62235606  1
  V  V19  1  0.74612337  0.74980431  -0.00178256  1
  V  V20  1  0.49493172  0.37217804  0.88374241  1
  V  V21  1  0.49445606  0.11287535  0.13748306  1
  V  V22  1  0.62349832  0.74789630  0.86944060  1
  V  V23  1  0.87951000  0.25603775  0.13198673  1
  V  V24  1  0.25138145  0.49971936  0.74912827  1
  V  V25  1  0.00249987  0.62262474  0.12677874  1
  V  V26  1  0.62652514  -0.01630421  0.12305025  1
  V  V27  1  0.37400494  0.49910998  0.88127188  1
  V  V28  1  0.75052900  0.76281120  0.50173030  1
  V  V29  1  0.71167418  0.35650061  0.59226905  1
  V  V30  1  0.50182472  0.62641294  0.12997853  1
  V  V31  1  -0.00523615  0.49821186  0.00504814  1
  V  V32  1  0.74531906  0.49470422  0.73709037  1
  V  V33  1  -0.00139736  0.12611890  0.13880308  1
  V  V34  1  0.50323284  0.00289835  0.48546869  1
  V  V35  1  0.86992116  0.49704559  0.87811696  1
  V  V36  1  0.50029204  0.87284274  0.86582078  1
  V  V37  1  0.12719610  0.62392645  0.00436134  1
  V  V38  1  0.62524423  0.37742936  0.75556969  1
  V  V39  1  0.74593118  -0.00537174  0.25513928  1
  V  V40  1  0.50325475  0.00014405  -0.00815921  1
  V  V41  1  0.25115726  0.37401165  0.11199255  1
  V  V42  1  -0.00053381  0.74930240  0.75005181  1
  V  V43  1  0.13466177  0.00271826  0.12995723  1
  V  V44  1  -0.00989415  0.87726132  0.37860267  1
  V  V45  1  -0.00244632  0.62652801  0.62479825  1
  V  V46  1  0.62515304  0.37172367  0.25115628  1
  V  V47  1  0.87564441  0.12830035  0.75064119  1
  V  V48  1  -0.00401144  0.37470021  0.87889655  1
  V  V49  1  0.26099853  0.74595401  0.50451066  1
  V  V50  1  0.37856598  0.62221584  0.25293422  1
  V  V51  1  0.12874103  -0.00291916  0.61966968  1
  V  V52  1  0.24961596  0.10810458  0.36733676  1
  V  V53  1  0.13438151  0.25114445  0.36947983  1
  V  V54  1  0.63363545  0.74849438  0.37097875  1
  V  V55  1  -0.00801416  -0.00262275  0.50183727  1
  V  V56  1  0.49816568  0.74644091  0.73120480  1
  V  V57  1  0.49715920  0.25194010  0.25552621  1
  V  V58  1  0.37712734  0.62945680  0.73493201  1
  V  V59  1  0.12378351  0.75235698  0.37672238  1
  V  V60  1  0.12624203  0.50080073  0.62672775  1
  V  V61  1  0.75122894  0.12289551  0.87747693  1
  V  V62  1  0.49256966  0.38137350  0.37759890  1
  V  V63  1  0.26401730  0.87231493  0.62506957  1
  V  V64  1  0.49496568  0.49896481  0.00391282  1
  V  V65  1  0.12557580  0.62951689  0.50045489  1
  V  V66  1  0.87128069  0.25641547  0.62306936  1
  V  V67  1  0.37293125  0.25117669  0.11046650  1
  V  V68  1  0.62602766  0.12350762  0.00472396  1
  V  V69  1  0.00155239  0.87631560  0.87665120  1
  V  V70  1  0.24825937  0.62621315  0.37307278  1
  V  V71  1  -0.00139314  0.75256037  0.25127341  1
  V  V72  1  0.12794191  0.75224354  0.88113458  1
  V  V73  1  0.12543160  0.37809615  0.75040315  1
  V  V74  1  0.73197181  0.13797254  0.38266539  1
  V  V75  1  0.63474536  0.61453368  0.50649777  1
  V  V76  1  0.12659048  0.13342707  0.00089330  1
  V  V77  1  0.74960670  -0.00372747  0.74011698  1
  V  V78  1  0.87003758  0.62517465  0.25705077  1
  V  V79  1  0.74704115  0.50205566  0.26135866  1
  V  V80  1  0.13264029  0.88070361  0.25270752  1
  V  V81  1  -0.00101875  0.50313048  0.49692457  1
  V  V82  1  0.50325678  0.76286255  0.25873140  1
  V  V83  1  0.49184208  0.50923210  0.51687035  1
  V  V84  1  0.12710007  0.87471446  0.74874785  1
  Zn  Zn85  1  0.24781371  0.86640746  0.11603870  1
  Zn  Zn86  1  0.36493801  0.86826335  -0.00054771  1
  Zn  Zn87  1  0.49681984  0.25014550  0.74848249  1
  Zn  Zn88  1  0.36856592  0.49540078  0.38182601  1
  Zn  Zn89  1  0.36787365  0.75237896  0.12166847  1
  Zn  Zn90  1  0.36339427  0.11740859  0.24900351  1
  Zn  Zn91  1  0.37489745  0.12889811  0.74617729  1
  Zn  Zn92  1  0.74634363  0.62254233  0.87095005  1
  Zn  Zn93  1  0.75546151  0.37816526  0.12261604  1
  Zn  Zn94  1  0.87693547  0.00076150  0.87548261  1
  Zn  Zn95  1  0.13222455  0.25886733  0.88265923  1
  Zn  Zn96  1  0.62510189  0.62423992  -0.00229627  1
  Zn  Zn97  1  0.74582600  0.87025264  0.13016796  1
  Zn  Zn98  1  0.87032396  0.50034208  0.37753977  1
  Zn  Zn99  1  0.25030725  -0.00034677  0.74987317  1
  Zn  Zn100  1  0.62854334  -0.00356536  0.61372055  1
  Zn  Zn101  1  0.63493062  0.86758401  0.73761217  1
  Zn  Zn102  1  0.31480882  0.31617557  0.46113049  1
  Zn  Zn103  1  0.86872068  0.00469574  0.38033712  1
  Zn  Zn104  1  0.87018549  0.12715997  0.25635656  1
  Zn  Zn105  1  0.37352400  0.26131632  0.62177279  1
  Zn  Zn106  1  0.00031483  0.25117158  0.75392072  1
  Zn  Zn107  1  0.18857810  0.19052182  0.18782421  1
  Zn  Zn108  1  0.18737116  0.18988594  0.70983969  1
  Zn  Zn109  1  0.18591535  0.69108227  0.18780881  1
  Zn  Zn110  1  0.19133099  0.68704768  0.68864180  1
  Zn  Zn111  1  0.68548479  0.18149825  0.19066862  1
  Zn  Zn112  1  0.68133589  0.18704203  0.68712630  1
  Zn  Zn113  1  0.68673347  0.68630322  0.18756077  1
  Zn  Zn114  1  0.68688468  0.68561832  0.68070512  1
  Zn  Zn115  1  0.31222094  0.31117951  0.29527266  1
  Zn  Zn116  1  0.31621659  0.31459564  0.80712299  1
  Zn  Zn117  1  0.31304328  0.80793775  0.30651106  1
  Zn  Zn118  1  0.31440727  0.81170643  0.81199503  1
  Zn  Zn119  1  0.80817972  0.31134260  0.31237387  1
  Zn  Zn120  1  0.81132199  0.31207116  0.81463472  1
  Zn  Zn121  1  0.80816643  0.81373430  0.31500480  1
  Zn  Zn122  1  0.81520144  0.81252482  0.81461936  1
  Zn  Zn123  1  0.18077128  0.44390482  0.42908524  1
  Zn  Zn124  1  0.18254648  0.44550098  0.93658702  1
  Zn  Zn125  1  0.18450699  0.93387680  0.44315037  1
  Zn  Zn126  1  0.18860937  0.94340590  0.94154094  1
  Zn  Zn127  1  0.67550521  0.42498873  0.43967352  1
  Zn  Zn128  1  0.68615567  0.43797836  0.93783335  1
  Zn  Zn129  1  0.68086015  0.93366193  0.43101655  1
  Zn  Zn130  1  0.68751037  0.93378349  0.93157946  1
  Zn  Zn131  1  0.31430102  0.06021086  0.05672443  1
  Zn  Zn132  1  0.32452655  0.05753706  0.56360604  1
  Zn  Zn133  1  0.31272745  0.56612168  0.06615809  1
  Zn  Zn134  1  0.31555349  0.45066010  0.57006021  1
  Zn  Zn135  1  0.81306630  0.06400994  0.06805915  1
  Zn  Zn136  1  0.81056317  0.07028333  0.55662363  1
  Zn  Zn137  1  0.81192333  0.56586226  0.06451002  1
  Zn  Zn138  1  0.80801382  0.55839036  0.56469731  1
  Zn  Zn139  1  0.43257707  0.43703429  0.18737596  1
  Zn  Zn140  1  0.44072877  0.43763580  0.69590995  1
  Zn  Zn141  1  0.43381399  0.93881671  0.18477397  1
  Zn  Zn142  1  0.44316887  0.94063811  0.68454583  1
  Zn  Zn143  1  0.93487741  0.43869682  0.18863561  1
  Zn  Zn144  1  0.93808068  0.43905055  0.68980821  1
  Zn  Zn145  1  0.93573144  0.93969140  0.19135840  1
  Zn  Zn146  1  0.93913935  0.94192601  0.68987907  1
  Zn  Zn147  1  0.06801239  0.06407854  0.31886748  1
  Zn  Zn148  1  0.06427360  0.06381796  0.81197248  1
  Zn  Zn149  1  0.06110218  0.55959226  0.31165831  1
  Zn  Zn150  1  0.06066596  0.56391717  0.81679894  1
  Zn  Zn151  1  0.55677793  0.05474599  0.30414623  1
  Zn  Zn152  1  0.56533781  0.06458624  0.80675238  1
  Zn  Zn153  1  0.56530193  0.56388837  0.32147214  1
  Zn  Zn154  1  0.55940693  0.56360112  0.80962792  1
  Zn  Zn155  1  0.43577652  0.18072248  0.43550458  1
  Zn  Zn156  1  0.43766379  0.18393182  0.93854268  1
  Zn  Zn157  1  0.44048342  0.68384779  0.43936017  1
  Zn  Zn158  1  0.44026757  0.68826383  0.93858089  1
  Zn  Zn159  1  0.93364503  0.18759218  0.43451682  1
  Zn  Zn160  1  0.93677003  0.18905625  0.94332905  1
  Zn  Zn161  1  0.93278064  0.69021916  0.43799715  1
  Zn  Zn162  1  0.93574096  0.68540444  0.93640330  1
  Zn  Zn163  1  0.05788508  0.31393035  0.06375290  1
  Zn  Zn164  1  0.05877343  0.31878144  0.56557338  1
  Zn  Zn165  1  0.06604233  0.81317644  0.06493236  1
  Zn  Zn166  1  0.06243530  0.81448947  0.56224916  1
  Zn  Zn167  1  0.56010090  0.31003866  0.06581091  1
  Zn  Zn168  1  0.53865955  0.31596453  0.55664984  1
  Zn  Zn169  1  0.53983141  0.80344398  0.05155027  1
  Zn  Zn170  1  0.56855483  0.81746944  0.55797520  1
  O  O171  1  0.11855753  0.12179764  0.12074741  1
  O  O172  1  0.12349428  0.12418792  0.61959093  1
  O  O173  1  0.11085673  0.63010431  0.11849898  1
  O  O174  1  0.11850331  0.62147769  0.62101002  1
  O  O175  1  0.61835328  0.11292906  0.11840628  1
  O  O176  1  0.61259671  0.11757802  0.62635809  1
  O  O177  1  0.61953369  0.61249150  0.12488797  1
  O  O178  1  0.62475342  0.62558359  0.60611435  1
  O  O179  1  0.38036672  0.37426308  0.36921068  1
  O  O180  1  0.38023211  0.39031601  0.87326538  1
  O  O181  1  0.37159748  0.87440204  0.38157501  1
  O  O182  1  0.38401135  0.88057091  0.87537914  1
  O  O183  1  0.88246065  0.37439545  0.38042599  1
  O  O184  1  0.88054424  0.38812319  0.87081544  1
  O  O185  1  0.88720395  0.87982465  0.37074126  1
  O  O186  1  0.88457766  0.87715764  0.88317233  1
  O  O187  1  0.23937344  0.00997896  0.37627818  1
  O  O188  1  0.25831125  0.00876197  0.87379364  1
  O  O189  1  0.24934683  0.51081333  0.36196620  1
  O  O190  1  0.25569296  0.51156396  0.87043731  1
  O  O191  1  0.74797725  -0.00094505  0.36428314  1
  O  O192  1  0.75451512  0.01225313  0.87056620  1
  O  O193  1  0.74809737  0.49273926  0.36359344  1
  O  O194  1  0.75724152  0.50222335  0.87197677  1
  O  O195  1  0.25446665  0.49297418  0.13428679  1
  O  O196  1  0.24143586  0.50798299  0.64340907  1
  O  O197  1  0.23637329  1.00211455  0.12196034  1
  O  O198  1  0.24442101  0.99148340  0.62390892  1
  O  O199  1  0.74236071  0.49815287  0.12940489  1
  O  O200  1  0.75045032  0.47892144  0.63462444  1
  O  O201  1  0.74237648  0.99612793  0.13115693  1
  O  O202  1  0.75287137  1.00952277  0.63811854  1
  O  O203  1  0.00724550  0.38128833  0.25757303  1
  O  O204  1  0.00600693  0.37810312  0.76202285  1
  O  O205  1  0.00609827  0.87067687  0.25796004  1
  O  O206  1  0.00673261  0.87017506  0.75605773  1
  O  O207  1  0.50284042  0.36750347  0.25158154  1
  O  O208  1  0.50728413  0.37829388  0.76971594  1
  O  O209  1  0.49942349  0.86011417  0.24850101  1
  O  O210  1  0.49848961  0.86652023  0.75563031  1
  O  O211  1  0.52961140  0.15410600  0.24556076  1
  O  O212  1  0.49906051  0.12553695  0.73776876  1
  O  O213  1  0.49269234  0.62114973  0.24578113  1
  O  O214  1  0.48596493  0.63093557  0.75205348  1
  O  O215  1  1.00000341  0.12115511  0.24100525  1
  O  O216  1  0.99274330  0.12635906  0.73975625  1
  O  O217  1  0.99513490  0.62923647  0.24268733  1
  O  O218  1  0.99318070  0.63041054  0.74627310  1
  O  O219  1  0.37894911  0.25146728  0.01175025  1
  O  O220  1  0.39204045  0.25471306  0.50747674  1
  O  O221  1  0.42337426  0.76591182  0.01733818  1
  O  O222  1  0.36739282  0.75916505  0.49350108  1
  O  O223  1  0.86532099  0.24415991  0.01473082  1
  O  O224  1  0.87902390  0.26076749  0.50919897  1
  O  O225  1  0.86768005  0.75336591  0.00384368  1
  O  O226  1  0.85968588  0.74336916  0.50764754  1
  O  O227  1  0.12572160  0.24960995  0.49658829  1
  O  O228  1  0.11833658  0.23764592  0.99977701  1
  O  O229  1  0.13232490  0.74860828  0.49375612  1
  O  O230  1  0.11511715  0.73997393  0.98774476  1
  O  O231  1  0.64763146  0.32457439  0.51381397  1
  O  O232  1  0.63107728  0.24182532  0.99874539  1
  O  O233  1  0.63742035  0.74114048  0.49552433  1
  O  O234  1  0.62972869  0.74979753  0.98932028  1
  O  O235  1  0.48769709  0.24494234  0.13070334  1
  O  O236  1  0.50585680  0.23497504  0.62575730  1
  O  O237  1  0.51516378  0.73392591  0.14475865  1
  O  O238  1  0.50219574  0.75326376  0.63273763  1
  O  O239  1  0.98671962  0.24191144  0.12054045  1
  O  O240  1  0.99321252  0.24398838  0.62877882  1
  O  O241  1  0.99445950  0.74388984  0.13110718  1
  O  O242  1  0.99433874  0.74442105  0.62968825  1
  O  O243  1  0.01122273  0.26214080  0.38286350  1
  O  O244  1  -0.00452552  0.26595266  0.87847477  1
  O  O245  1  0.00291627  0.75871047  0.37288762  1
  O  O246  1  0.00636691  0.75415147  0.86911401  1
  O  O247  1  0.49515071  0.25800540  0.36076349  1
  O  O248  1  0.50309700  0.25779628  0.87765235  1
  O  O249  1  0.50826434  0.74320236  0.36247815  1
  O  O250  1  0.50760729  0.75695258  0.86558843  1
  O  O251  1  0.24719397  0.12032895  0.49410778  1
  O  O252  1  0.23816229  0.11886595  0.99160193  1
  O  O253  1  0.24158149  0.63582091  0.49130755  1
  O  O254  1  0.23965139  0.62032559  0.99411813  1
  O  O255  1  0.74534557  0.12288131  0.48319390  1
  O  O256  1  0.74701677  0.13055098  0.99404952  1
  O  O257  1  0.73961862  0.62416192  0.50082113  1
  O  O258  1  0.74789993  0.63804872  0.99726287  1
  O  O259  1  0.23912731  0.38349043  0.01317875  1
  O  O260  1  0.24594364  0.39233871  0.50138623  1
  O  O261  1  0.25083324  0.87470892  -0.00020325  1
  O  O262  1  0.26099109  0.86815073  0.50473768  1
  O  O263  1  0.74399789  0.36000526  0.00210724  1
  O  O264  1  0.77318575  0.39678168  0.50341490  1
  O  O265  1  0.75659979  0.86374672  -0.00254327  1
  O  O266  1  0.75069747  0.86126190  0.49537376  1
  O  O267  1  0.13290699  0.49121724  0.25103511  1
  O  O268  1  0.13161204  0.49869179  0.75021073  1
  O  O269  1  0.11749596  0.99224567  0.24184137  1
  O  O270  1  0.12489047  0.99478417  0.73750176  1
  O  O271  1  0.62999974  0.49586921  0.24342420  1
  O  O272  1  0.63545891  0.49248154  0.76128112  1
  O  O273  1  0.63475540  0.99731533  0.23663185  1
  O  O274  1  0.64450982  1.00061620  0.75214672  1
  O  O275  1  0.44460791  0.04056027  0.22939884  1
  O  O276  1  0.37468056  -0.00057927  0.76155675  1
  O  O277  1  0.36470177  0.50818081  0.25077050  1
  O  O278  1  0.36918336  0.51241222  0.76159185  1
  O  O279  1  0.85934804  0.00351638  0.24981578  1
  O  O280  1  0.86845090  0.01328105  0.75094733  1
  O  O281  1  0.86455835  0.50705958  0.25090158  1
  O  O282  1  0.86552170  0.50421604  0.75486353  1
  O  O283  1  0.11807849  0.36943782  0.36376953  1
  O  O284  1  0.11471923  0.37906285  0.86923895  1
  O  O285  1  0.11659530  0.87093911  0.37011939  1
  O  O286  1  0.12112750  0.86904531  0.87061745  1
  O  O287  1  0.60679200  0.38009103  0.35924534  1
  O  O288  1  0.61632170  0.36850101  0.87427841  1
  O  O289  1  0.62180042  0.84824904  0.38183625  1
  O  O290  1  0.62109240  0.86379332  0.86277496  1
  O  O291  1  0.37545169  0.13580726  0.12210478  1
  O  O292  1  0.38933037  0.12508622  0.62721916  1
  O  O293  1  0.38492479  0.62749099  0.13591070  1
  O  O294  1  0.36700332  0.62423463  0.64079062  1
  O  O295  1  0.88361587  0.13312147  0.12968624  1
  O  O296  1  0.87988766  0.13714318  0.62949917  1
  O  O297  1  0.88418579  0.63129017  0.13354470  1
  O  O298  1  0.87932593  0.62837125  0.63194609  1
  O  O299  1  0.26369042  0.25745893  0.12888122  1
  O  O300  1  0.23967519  0.23256973  0.61307460  1
  O  O301  1  0.25393569  0.75067010  0.12669316  1
  O  O302  1  0.24316670  0.75850604  0.61308537  1
  O  O303  1  0.75945712  0.24818345  0.11961250  1
  O  O304  1  0.75442255  0.26347098  0.63030455  1
  O  O305  1  0.75356788  0.75093736  0.11654052  1
  O  O306  1  0.75718763  0.74927632  0.61244968  1
  O  O307  1  0.24335733  0.25489071  0.37623026  1
  O  O308  1  0.25178746  0.23859198  0.87314831  1
  O  O309  1  0.24375882  0.74465020  0.37981432  1
  O  O310  1  0.24321176  0.74036647  0.87299803  1
  O  O311  1  0.74275266  0.23819409  0.36773615  1
  O  O312  1  0.74807785  0.23982553  0.88404356  1
  O  O313  1  0.74367434  0.74695700  0.38457189  1
  O  O314  1  0.74254622  0.74738727  0.87884777  1
  O  O315  1  0.00511877  0.11791288  0.00778886  1
  O  O316  1  -0.00277681  0.11968529  0.51224418  1
  O  O317  1  0.00282800  0.62005717  0.00780435  1
  O  O318  1  0.00430852  0.62112612  0.50301297  1
  O  O319  1  0.50517424  0.11360895  0.00525463  1
  O  O320  1  0.49592519  0.10980015  0.50574232  1
  O  O321  1  0.50382854  0.61599543  0.01223175  1
  O  O322  1  0.50918116  0.61374000  0.49740104  1
  O  O323  1  0.49949616  0.39671563  0.48755480  1
  O  O324  1  0.50406305  0.38293990  0.99171912  1
  O  O325  1  0.48591730  0.87950587  0.49936851  1
  O  O326  1  0.51133313  0.89046154  0.97778618  1
  O  O327  1  0.99362133  0.38437063  0.49357149  1
  O  O328  1  1.00497290  0.38935646  0.99443296  1
  O  O329  1  1.00403536  0.88356855  0.49101984  1
  O  O330  1  0.99768536  0.88315058  0.99726179  1
  O  O331  1  0.49050629  0.49233254  0.37236042  1
  O  O332  1  0.49236550  0.49733009  0.88536004  1
  O  O333  1  0.49696074  1.00324258  0.38687606  1
  O  O334  1  0.49620524  0.99508905  0.87258937  1
  O  O335  1  0.99922606  0.48906564  0.38278609  1
  O  O336  1  0.99083116  0.49427773  0.88193344  1
  O  O337  1  1.00079796  0.99528110  0.38579626  1
  O  O338  1  1.00008447  0.99613492  0.88451635  1
  O  O339  1  0.00484548  0.00847088  0.12004116  1
  O  O340  1  0.00700878  0.00858559  0.62148757  1
  O  O341  1  -0.00778575  0.50919259  0.11611106  1
  O  O342  1  0.00468954  0.50715701  0.61814624  1
  O  O343  1  0.51079290  -0.00435472  0.10525569  1
  O  O344  1  0.50126830  0.00944082  0.61543239  1
  O  O345  1  0.50406247  0.50602189  0.12141441  1
  O  O346  1  0.49795898  0.50085019  0.61503905  1
  O  O347  1  0.24130209  0.38398296  0.24017640  1
  O  O348  1  0.23809696  0.38866884  0.76248018  1
  O  O349  1  0.23472599  0.87183103  0.25183879  1
  O  O350  1  0.24466241  0.87444670  0.74202589  1
  O  O351  1  0.74107183  0.38312925  0.24543662  1
  O  O352  1  0.73895036  0.38125025  0.75838566  1
  O  O353  1  0.75118440  0.88774336  0.24772715  1
  O  O354  1  0.75754231  0.89387737  0.75606822  1
  O  O355  1  0.24709827  0.12207517  0.26140464  1
  O  O356  1  0.25279982  0.11779338  0.76313185  1
  O  O357  1  0.25459604  0.61898653  0.25252134  1
  O  O358  1  0.25919495  0.62237318  0.76091358  1
  O  O359  1  0.74820534  0.11138633  0.25676512  1
  O  O360  1  0.75704770  0.12135007  0.75772099  1
  O  O361  1  0.75941035  0.61615950  0.24443632  1
  O  O362  1  0.75443106  0.61396092  0.74643057  1
  O  O363  1  0.35358439  0.12649698  0.37203891  1
  O  O364  1  0.36862537  0.11733382  0.87473302  1
  O  O365  1  0.36773268  0.62661652  0.36373142  1
  O  O366  1  0.36827069  0.61869198  0.87906184  1
  O  O367  1  0.86512242  0.12285870  0.37299379  1
  O  O368  1  0.86987004  0.12636342  0.86753927  1
  O  O369  1  0.88298800  0.62081187  0.36051898  1
  O  O370  1  0.87374516  0.61524139  0.86434449  1
  O  O371  1  0.13090635  0.36686982  0.13535752  1
  O  O372  1  0.11611108  0.38468107  0.64186789  1
  O  O373  1  0.12260204  0.88557631  0.13484149  1
  O  O374  1  0.13281419  0.88154197  0.62964620  1
  O  O375  1  0.62263820  0.38808561  0.12949770  1
  O  O376  1  0.61625968  0.37390545  0.64935967  1
  O  O377  1  0.62352573  0.88214511  0.11142967  1
  O  O378  1  0.62582557  0.88269217  0.62789466  1
  O  O379  1  0.12799628  0.26005517  0.25945358  1
  O  O380  1  0.11940258  0.26310348  0.76027586  1
  O  O381  1  0.11541041  0.75633428  0.25850611  1
  O  O382  1  0.12095019  0.75292203  0.76126064  1
  O  O383  1  0.61864234  0.26926527  0.23266003  1
  O  O384  1  0.62272010  0.25712975  0.76269399  1
  O  O385  1  0.61941451  0.74183593  0.26287234  1
  O  O386  1  0.61814314  0.74657519  0.75307623  1
  O  O387  1  0.38786615  0.24185837  0.24102233  1
  O  O388  1  0.37833493  0.24760895  0.74211916  1
  O  O389  1  0.39045410  0.74171523  0.24938324  1
  O  O390  1  0.38225541  0.73711850  0.75427416  1
  O  O391  1  0.87008266  0.24753880  0.23559167  1
  O  O392  1  0.87544847  0.24196494  0.74455538  1
  O  O393  1  0.87768226  0.74367686  0.24634055  1
  O  O394  1  0.87757582  0.74307829  0.74330507  1
  O  O395  1  0.38773660  0.51137168  0.49924152  1
  O  O396  1  0.38630942  0.50483160  0.99680332  1
  O  O397  1  0.38379015  0.98410825  0.49851499  1
  O  O398  1  0.38696288  0.99823880  0.98631577  1
  O  O399  1  0.88794755  0.49947003  0.49956514  1
  O  O400  1  0.88209109  0.50792914  0.99064881  1
  O  O401  1  0.88789718  1.00177656  0.50370647  1
  O  O402  1  0.88573262  0.99649972  1.00199289  1
  O  O403  1  0.11314271  0.00915368  0.00826633  1
  O  O404  1  0.11473997  -0.00390918  0.51420962  1
  O  O405  1  0.11081670  0.51754856  -0.00620346  1
  O  O406  1  0.11301761  0.50861057  0.50393124  1
  O  O407  1  0.62379853  0.00549182  -0.00018197  1
  O  O408  1  0.60691250  -0.00986017  0.49673651  1
  O  O409  1  0.61568492  0.50167004  0.00712380  1
  O  O410  1  0.61505866  0.51009226  0.49414859  1
  O  O411  1  0.36634134  0.36185252  0.12844272  1
  O  O412  1  0.37064288  0.37735707  0.63548057  1
  O  O413  1  0.36855934  0.87508858  0.12345607  1
  O  O414  1  0.36521477  0.87732019  0.62217177  1
  O  O415  1  0.87521854  0.36070655  0.12655577  1
  O  O416  1  0.88387920  0.36434061  0.61909838  1
  O  O417  1  0.87495655  0.86728651  0.11857755  1
  O  O418  1  0.88232126  0.86214748  0.63031716  1
  O  O419  1  0.13808121  0.13762165  0.37607289  1
  O  O420  1  0.13170364  0.12753501  0.88345526  1
  O  O421  1  0.12717533  0.63222061  0.37894297  1
  O  O422  1  0.13209383  0.63324939  0.88185973  1
  O  O423  1  0.63410570  0.11953571  0.36882013  1
  O  O424  1  0.63289393  0.12952126  0.88166577  1
  O  O425  1  0.62206897  0.63752010  0.38886141  1
  O  O426  1  0.62417908  0.63638322  0.87533274  1
