# generated using pymatgen
data_V85Zn86O256
_symmetry_space_group_name_H-M   'P 1'
_cell_length_a   16.97258216
_cell_length_b   16.96825414
_cell_length_c   16.97107900
_cell_angle_alpha   89.88308170
_cell_angle_beta   89.97725384
_cell_angle_gamma   90.04845094
_symmetry_Int_Tables_number   1
_chemical_formula_structural   V85Zn86O256
_chemical_formula_sum   'V85 Zn86 O256'
_cell_volume   4887.57506786
_cell_formula_units_Z   1
loop_
 _symmetry_equiv_pos_site_id
 _symmetry_equiv_pos_as_xyz
  1  'x, y, z'
loop_
 _atom_site_type_symbol
 _atom_site_label
 _atom_site_symmetry_multiplicity
 _atom_site_fract_x
 _atom_site_fract_y
 _atom_site_fract_z
 _atom_site_occupancy
  V  V0  1  0.37292315  0.37611318  -0.00164638  1
  V  V1  1  0.87764556  0.37641486  0.49059865  1
  V  V2  1  0.87521302  -0.00187304  0.37304415  1
  V  V3  1  0.25069967  0.86662646  0.62064533  1
  V  V4  1  0.50350761  0.37019747  0.86909202  1
  V  V5  1  0.24825553  0.26444121  0.49964057  1
  V  V6  1  0.00956096  0.50268894  0.00587578  1
  V  V7  1  0.49956226  0.00114183  -0.00259367  1
  V  V8  1  0.87382369  0.87425951  0.49942298  1
  V  V9  1  0.74321289  0.87449410  0.12810783  1
  V  V10  1  0.87494605  0.74005258  0.13182797  1
  V  V11  1  0.38485117  0.24693588  0.12576333  1
  V  V12  1  0.74874395  0.50080534  0.75092118  1
  V  V13  1  0.12312168  0.49931069  0.63089998  1
  V  V14  1  0.74356959  -0.00515314  0.25095564  1
  V  V15  1  0.62055679  0.13192066  -0.00008557  1
  V  V16  1  0.37146103  0.62575901  0.25793467  1
  V  V17  1  0.24185889  0.24774366  -0.00185250  1
  V  V18  1  0.76501841  0.62296335  0.37091261  1
  V  V19  1  0.25235295  0.87633781  0.12418740  1
  V  V20  1  0.37930864  0.87393493  -0.00624577  1
  V  V21  1  0.49632985  0.00095032  0.50740517  1
  V  V22  1  0.49901704  0.37474652  0.35080902  1
  V  V23  1  0.12863466  0.12349387  0.49871743  1
  V  V24  1  0.37546900  -0.00045240  0.37631223  1
  V  V25  1  0.61867088  0.61922681  0.49381516  1
  V  V26  1  -0.00628773  0.12178532  0.63281501  1
  V  V27  1  0.62142798  0.12558879  0.50419646  1
  V  V28  1  0.37012890  0.51610398  0.87423181  1
  V  V29  1  0.10759320  0.25208190  0.85481798  1
  V  V30  1  0.50006083  0.49967275  -0.00007848  1
  V  V31  1  0.61839472  0.49974553  0.61875651  1
  V  V32  1  0.37266635  0.75134763  0.12380057  1
  V  V33  1  -0.00007224  0.87005454  0.87651933  1
  V  V34  1  0.87535654  0.37608271  -0.00034947  1
  V  V35  1  0.88235568  0.50208932  0.87778731  1
  V  V36  1  0.76708603  0.50066924  0.25368914  1
  V  V37  1  0.62001648  0.25407781  0.36263592  1
  V  V38  1  0.14149035  0.74729390  0.36910519  1
  V  V39  1  0.17514256  0.67835671  -0.02729102  1
  V  V40  1  -0.00036852  0.62828581  0.62482491  1
  V  V41  1  0.24605508  0.37539765  0.63869362  1
  V  V42  1  -0.00087475  0.38085251  0.37222705  1
  V  V43  1  0.12896284  0.00029795  0.62458671  1
  V  V44  1  0.61627886  0.00276378  0.12840304  1
  V  V45  1  0.75629518  0.25056476  0.49760940  1
  V  V46  1  0.25162765  0.12687913  0.37658397  1
  V  V47  1  0.00185636  -0.00199572  0.49571304  1
  V  V48  1  0.12381241  0.38280489  0.24515076  1
  V  V49  1  0.61460024  0.87451526  0.75411628  1
  V  V50  1  0.24410942  0.37837357  0.12209255  1
  V  V51  1  0.13737009  0.62986345  0.49466276  1
  V  V52  1  0.87339599  0.00106275  0.86604318  1
  V  V53  1  0.75932756  0.37989444  0.62202312  1
  V  V54  1  -0.00380891  0.50525355  0.49351628  1
  V  V55  1  0.74730354  0.74738196  0.49993589  1
  V  V56  1  0.24988138  0.50336627  0.25229593  1
  V  V57  1  0.12361471  0.86958222  0.75160555  1
  V  V58  1  0.37227658  0.86226451  0.49862924  1
  V  V59  1  0.24718590  0.51928751  0.75610942  1
  V  V60  1  -0.00020545  0.12403930  0.12569273  1
  V  V61  1  0.74758000  0.87291773  0.63018290  1
  V  V62  1  0.12408811  0.00155005  0.12112867  1
  V  V63  1  0.61854043  0.75563369  0.87882573  1
  V  V64  1  0.38915674  0.12822901  0.24550440  1
  V  V65  1  0.87342435  0.75001470  0.62594136  1
  V  V66  1  0.87195293  0.87749518  0.00284777  1
  V  V67  1  0.62203455  0.49760472  0.13861794  1
  V  V68  1  0.42194788  0.31650955  0.56169559  1
  V  V69  1  0.74849636  0.12583639  0.37518422  1
  V  V70  1  0.74308731  0.37360515  0.12947831  1
  V  V71  1  0.37342296  -0.00109127  0.87205508  1
  V  V72  1  0.87327509  0.12374590  0.24972875  1
  V  V73  1  0.62649570  0.62415918  0.00127055  1
  V  V74  1  0.75187093  0.13204010  0.87275098  1
  V  V75  1  0.87308005  0.62951789  0.75256976  1
  V  V76  1  0.25509281  -0.00322783  0.75185674  1
  V  V77  1  0.50693367  0.75432939  0.25163120  1
  V  V78  1  0.37704165  0.49473562  0.38388982  1
  V  V79  1  0.49918639  0.62556432  0.12900221  1
  V  V80  1  0.87153432  0.24994358  0.12472268  1
  V  V81  1  -0.00044161  0.25217719  0.24960291  1
  V  V82  1  0.24928597  0.00468638  0.25023887  1
  V  V83  1  0.12547693  0.25206384  0.37173056  1
  V  V84  1  0.50984348  0.87529342  0.37488437  1
  Zn  Zn85  1  0.50162954  0.14223560  0.63845676  1
  Zn  Zn86  1  0.74736423  0.62650312  0.87664454  1
  Zn  Zn87  1  0.75116495  0.00067971  0.74904158  1
  Zn  Zn88  1  0.62941213  0.74969029  0.36941989  1
  Zn  Zn89  1  0.00273169  0.74819832  0.75581374  1
  Zn  Zn90  1  0.57272108  0.20906672  0.81324158  1
  Zn  Zn91  1  0.24782915  0.12203199  0.87621243  1
  Zn  Zn92  1  0.49355160  0.62424952  0.62671183  1
  Zn  Zn93  1  0.12137746  0.87310096  0.25021412  1
  Zn  Zn94  1  0.48750224  0.74038462  0.75277254  1
  Zn  Zn95  1  -0.00407338  0.74082943  0.25464588  1
  Zn  Zn96  1  -0.00207205  0.00170094  -0.00097810  1
  Zn  Zn97  1  0.93030117  0.27179381  0.67951527  1
  Zn  Zn98  1  0.39014896  0.14683187  0.75273606  1
  Zn  Zn99  1  0.37025379  0.73485901  0.63146916  1
  Zn  Zn100  1  0.00133757  0.86776553  0.37081913  1
  Zn  Zn101  1  0.12174129  0.12743497  -0.00386120  1
  Zn  Zn102  1  0.62661968  0.00222490  0.62649808  1
  Zn  Zn103  1  0.74427904  0.25296035  -0.00231409  1
  Zn  Zn104  1  0.03106346  0.62485691  0.11804008  1
  Zn  Zn105  1  0.74798560  0.75100576  0.00166083  1
  Zn  Zn106  1  0.62537260  0.37351967  0.75084896  1
  Zn  Zn107  1  0.19055476  0.19088827  0.18515560  1
  Zn  Zn108  1  0.22831492  0.20813606  0.71066987  1
  Zn  Zn109  1  0.18594884  0.68413657  0.17654258  1
  Zn  Zn110  1  0.18490367  0.68892675  0.68361971  1
  Zn  Zn111  1  0.68529803  0.18279933  0.18476265  1
  Zn  Zn112  1  0.73449378  0.21602952  0.70996320  1
  Zn  Zn113  1  0.68998659  0.68381020  0.18834107  1
  Zn  Zn114  1  0.65606739  0.67201667  0.70192502  1
  Zn  Zn115  1  0.31424488  0.31300669  0.30937922  1
  Zn  Zn116  1  0.30896938  0.32005212  0.82043479  1
  Zn  Zn117  1  0.31499918  0.81464997  0.31096175  1
  Zn  Zn118  1  0.30685015  0.77067485  0.82491850  1
  Zn  Zn119  1  0.81069612  0.31559873  0.31128445  1
  Zn  Zn120  1  0.85239021  0.32246689  0.80349722  1
  Zn  Zn121  1  0.81238181  0.81254905  0.31204698  1
  Zn  Zn122  1  0.80612162  0.81107896  0.81719028  1
  Zn  Zn123  1  0.18528185  0.44361185  0.43522539  1
  Zn  Zn124  1  0.18301650  0.43031303  0.92653097  1
  Zn  Zn125  1  0.18904315  0.93228769  0.43545374  1
  Zn  Zn126  1  0.18956994  0.85124025  0.93727239  1
  Zn  Zn127  1  0.68461639  0.43770915  0.42983802  1
  Zn  Zn128  1  0.68886903  0.43958588  0.93906797  1
  Zn  Zn129  1  0.68668167  0.93787727  0.44068408  1
  Zn  Zn130  1  0.68746170  0.94025250  0.93914551  1
  Zn  Zn131  1  0.31348536  0.06382843  0.06197391  1
  Zn  Zn132  1  0.31918440  0.06957244  0.57037056  1
  Zn  Zn133  1  0.30892050  0.56243822  0.06630173  1
  Zn  Zn134  1  0.31368108  0.55902089  0.56479756  1
  Zn  Zn135  1  0.80797820  0.06109359  0.06013192  1
  Zn  Zn136  1  0.81138735  0.06034050  0.56194368  1
  Zn  Zn137  1  0.80953425  0.55922686  0.06329799  1
  Zn  Zn138  1  0.81238238  0.56391774  0.56000528  1
  Zn  Zn139  1  0.43140544  0.43858986  0.18498603  1
  Zn  Zn140  1  0.43337900  0.44977860  0.69345045  1
  Zn  Zn141  1  0.43780368  0.93797069  0.19025680  1
  Zn  Zn142  1  0.43483039  0.93118493  0.68500252  1
  Zn  Zn143  1  0.93892662  0.43996249  0.17990237  1
  Zn  Zn144  1  0.93928357  0.44608260  0.68719902  1
  Zn  Zn145  1  0.93662344  0.93159723  0.19070532  1
  Zn  Zn146  1  0.93902656  0.93757685  0.68692487  1
  Zn  Zn147  1  0.06366279  0.06138657  0.31072839  1
  Zn  Zn148  1  0.06625770  0.06130529  0.81428166  1
  Zn  Zn149  1  0.06043960  0.56820476  0.30891111  1
  Zn  Zn150  1  0.06611588  0.56958683  0.82126492  1
  Zn  Zn151  1  0.56438596  0.06159781  0.31728152  1
  Zn  Zn152  1  0.56070617  0.04853810  0.81542159  1
  Zn  Zn153  1  0.56067142  0.56280689  0.31706152  1
  Zn  Zn154  1  0.56090905  0.55948731  0.81448778  1
  Zn  Zn155  1  0.43989725  0.18741965  0.42934118  1
  Zn  Zn156  1  0.43135097  0.18369130  0.94070619  1
  Zn  Zn157  1  0.43714444  0.68556762  0.43628370  1
  Zn  Zn158  1  0.44062273  0.68984784  0.94213483  1
  Zn  Zn159  1  0.93932768  0.18669365  0.43901441  1
  Zn  Zn160  1  0.93456525  0.18725069  0.93824449  1
  Zn  Zn161  1  0.94208021  0.69004685  0.43570129  1
  Zn  Zn162  1  0.93637676  0.68813264  0.94371115  1
  Zn  Zn163  1  0.05926203  0.31629459  0.05945664  1
  Zn  Zn164  1  0.06826169  0.31328136  0.56216472  1
  Zn  Zn165  1  0.05573079  0.81828150  0.06988423  1
  Zn  Zn166  1  0.06371546  0.81045634  0.55904339  1
  Zn  Zn167  1  0.56103403  0.31568291  0.06169460  1
  Zn  Zn168  1  0.58326766  0.31270166  0.55943103  1
  Zn  Zn169  1  0.56068313  0.81548583  0.06455718  1
  Zn  Zn170  1  0.56027291  0.80760036  0.56571808  1
  O  O171  1  0.11424500  0.12039520  0.13093772  1
  O  O172  1  0.11726092  0.10755154  0.61357888  1
  O  O173  1  0.14021553  0.64649671  0.08028542  1
  O  O174  1  0.11961493  0.61936871  0.61457957  1
  O  O175  1  0.62975062  0.11248562  0.11485815  1
  O  O176  1  0.61660186  0.12531598  0.60846671  1
  O  O177  1  0.61820270  0.61754762  0.12150408  1
  O  O178  1  0.63584026  0.61258882  0.60674790  1
  O  O179  1  0.38952900  0.37943256  0.36625254  1
  O  O180  1  0.38009938  0.38361212  0.88623890  1
  O  O181  1  0.38158695  0.88135033  0.38173257  1
  O  O182  1  0.36874263  0.87589182  0.89268729  1
  O  O183  1  0.88286853  0.37453948  0.38216431  1
  O  O184  1  0.86271997  0.38938836  0.89142522  1
  O  O185  1  0.87496862  0.88056461  0.38284152  1
  O  O186  1  0.87623364  0.88192110  0.88363179  1
  O  O187  1  0.25439989  0.00527612  0.36797220  1
  O  O188  1  0.26382464  -0.00505980  0.86772021  1
  O  O189  1  0.26004865  0.48934077  0.35911576  1
  O  O190  1  0.25309033  0.49742957  0.86304084  1
  O  O191  1  0.75256295  0.00432346  0.36874000  1
  O  O192  1  0.75870632  0.00545344  0.87645952  1
  O  O193  1  0.74941234  0.50467306  0.36008403  1
  O  O194  1  0.75626827  0.50368596  0.86616479  1
  O  O195  1  0.25639276  0.48579326  0.13488655  1
  O  O196  1  0.24104627  0.49722866  0.63676419  1
  O  O197  1  0.24418985  0.99881683  0.13338936  1
  O  O198  1  0.24323783  0.99196699  0.62825447  1
  O  O199  1  0.74272100  0.49468267  0.13616530  1
  O  O200  1  0.74740133  0.49592313  0.62910407  1
  O  O201  1  0.74172867  0.99401012  0.13340878  1
  O  O202  1  0.74683408  0.98860001  0.62420382  1
  O  O203  1  0.00668140  0.37374925  0.25060893  1
  O  O204  1  -0.04650405  0.35793714  0.74932266  1
  O  O205  1  0.00386756  0.86502266  0.25195473  1
  O  O206  1  0.00505821  0.87352742  0.75713610  1
  O  O207  1  0.50101171  0.37401399  0.25235384  1
  O  O208  1  0.49615712  0.38085835  0.76693821  1
  O  O209  1  0.49313729  0.86618789  0.26191200  1
  O  O210  1  0.51413642  0.87268816  0.74753717  1
  O  O211  1  0.48789471  0.12157579  0.25636213  1
  O  O212  1  0.50742376  0.13141897  0.75721997  1
  O  O213  1  0.49209474  0.63097424  0.24653418  1
  O  O214  1  0.54216112  0.63627394  0.73588895  1
  O  O215  1  0.99344682  0.13023663  0.24319636  1
  O  O216  1  1.00272890  0.11411336  0.73131338  1
  O  O217  1  1.01624075  0.63021338  0.23022382  1
  O  O218  1  0.99142614  0.62846213  0.74655210  1
  O  O219  1  0.36507822  0.25744416  0.00503191  1
  O  O220  1  0.36691729  0.25116406  0.49993614  1
  O  O221  1  0.38689034  0.76071256  0.01388095  1
  O  O222  1  0.37625936  0.76049724  0.49808573  1
  O  O223  1  0.87226717  0.25874710  0.00860276  1
  O  O224  1  0.86767294  0.25960007  0.49188560  1
  O  O225  1  0.86954091  0.76211829  0.00904743  1
  O  O226  1  0.86525476  0.75451791  0.50350304  1
  O  O227  1  0.13244270  0.24601054  0.48949024  1
  O  O228  1  0.13122977  0.24658831  1.00589723  1
  O  O229  1  0.12400870  0.73659831  0.49210369  1
  O  O230  1  0.12779361  0.77266523  0.99763713  1
  O  O231  1  0.63380706  0.24209687  0.48618212  1
  O  O232  1  0.62394746  0.23589149  1.00822262  1
  O  O233  1  0.63708270  0.74275234  0.49838199  1
  O  O234  1  0.62276119  0.74346602  0.99764000  1
  O  O235  1  0.48378790  0.25527656  0.11962734  1
  O  O236  1  0.49110757  0.26212785  0.61552885  1
  O  O237  1  0.49203410  0.74822361  0.13436119  1
  O  O238  1  0.49284669  0.74593253  0.62879370  1
  O  O239  1  0.99263317  0.24385548  0.13173041  1
  O  O240  1  1.00723570  0.22866870  0.61175810  1
  O  O241  1  0.98204716  0.74928195  0.12263372  1
  O  O242  1  0.99103409  0.74504252  0.62537686  1
  O  O243  1  0.00529960  0.25708782  0.36762224  1
  O  O244  1  0.00816061  0.23901758  0.87109942  1
  O  O245  1  0.01414290  0.74952105  0.37280603  1
  O  O246  1  -0.01040659  0.76603617  0.87562344  1
  O  O247  1  0.50572870  0.26428072  0.37434717  1
  O  O248  1  0.49491605  0.26556230  0.88190069  1
  O  O249  1  0.50196247  0.75768328  0.36847300  1
  O  O250  1  0.51438105  0.74713591  0.87303094  1
  O  O251  1  0.24653485  0.13350492  0.49658885  1
  O  O252  1  0.24679001  0.13502478  1.00110442  1
  O  O253  1  0.23440662  0.61748377  0.50146577  1
  O  O254  1  0.26368529  0.63165695  0.99203712  1
  O  O255  1  0.74440932  0.13200271  0.49528431  1
  O  O256  1  0.73784239  0.12365119  0.99233210  1
  O  O257  1  0.74709074  0.63162316  0.49023036  1
  O  O258  1  0.73520381  0.62521631  1.00357000  1
  O  O259  1  0.25462595  0.37220793  0.00490171  1
  O  O260  1  0.24482429  0.36851725  0.50299512  1
  O  O261  1  0.26347350  0.88648953  0.01878274  1
  O  O262  1  0.26138333  0.88194021  0.50776284  1
  O  O263  1  0.75507496  0.37490662  0.01077561  1
  O  O264  1  0.75955550  0.37223134  0.49626720  1
  O  O265  1  0.75452524  0.87558832  0.01072367  1
  O  O266  1  0.75230286  0.86714354  0.50697977  1
  O  O267  1  0.13373829  0.48898718  0.25509616  1
  O  O268  1  0.13242464  0.50972716  0.74403180  1
  O  O269  1  0.13455782  0.99910679  0.24332695  1
  O  O270  1  0.12726387  0.98909225  0.73924942  1
  O  O271  1  0.62666597  0.50328982  0.23968015  1
  O  O272  1  0.63516126  0.49226853  0.74206207  1
  O  O273  1  0.63313901  1.00617302  0.24311494  1
  O  O274  1  0.62873804  0.98484463  0.74782024  1
  O  O275  1  0.36838409  0.00836101  0.25501201  1
  O  O276  1  0.36873744  -0.01220350  0.75954466  1
  O  O277  1  0.36873285  0.50764130  0.25427655  1
  O  O278  1  0.35773863  0.50112681  0.76094704  1
  O  O279  1  0.86702883  0.00416237  0.25528326  1
  O  O280  1  0.87268278  -0.00541107  0.76271352  1
  O  O281  1  0.86519845  0.50006740  0.24532770  1
  O  O282  1  0.86965169  0.51517978  0.75722667  1
  O  O283  1  0.11909436  0.37063402  0.36629826  1
  O  O284  1  0.12242297  0.35070325  0.87506437  1
  O  O285  1  0.12645076  0.85915899  0.37372334  1
  O  O286  1  0.11161462  0.88692703  0.86233086  1
  O  O287  1  0.60819468  0.36834030  0.37817410  1
  O  O288  1  0.60690221  0.38256032  0.87759144  1
  O  O289  1  0.61324861  0.87233252  0.37939128  1
  O  O290  1  0.62947222  0.87089846  0.86456148  1
  O  O291  1  0.37113204  0.13415057  0.13367685  1
  O  O292  1  0.39170031  0.11388676  0.63975980  1
  O  O293  1  0.38048845  0.63322426  0.13428436  1
  O  O294  1  0.37994844  0.62025496  0.62480167  1
  O  O295  1  0.87877167  0.12811218  0.13048442  1
  O  O296  1  0.89449516  0.11599365  0.61529029  1
  O  O297  1  0.86466358  0.64175628  0.12058815  1
  O  O298  1  0.87890494  0.63005968  0.63279353  1
  O  O299  1  0.25580533  0.26164502  0.11687054  1
  O  O300  1  0.23568054  0.26639664  0.61118349  1
  O  O301  1  0.26562714  0.76266410  0.13551099  1
  O  O302  1  0.24864288  0.76341080  0.62336017  1
  O  O303  1  0.75329260  0.25834531  0.12595940  1
  O  O304  1  0.74470696  0.26507307  0.60267515  1
  O  O305  1  0.75452360  0.75886355  0.12630472  1
  O  O306  1  0.75549393  0.75739262  0.61583616  1
  O  O307  1  0.24631556  0.24774894  0.38076115  1
  O  O308  1  0.24281274  0.25020777  0.89122087  1
  O  O309  1  0.24097541  0.75163731  0.37535521  1
  O  O310  1  0.23321994  0.75193693  0.90039409  1
  O  O311  1  0.74437771  0.24722090  0.38100872  1
  O  O312  1  0.75688698  0.23309751  0.88120978  1
  O  O313  1  0.74871304  0.74272498  0.38018645  1
  O  O314  1  0.73659779  0.74643005  0.88269238  1
  O  O315  1  -0.00228549  0.12258413  0.01591646  1
  O  O316  1  0.00832511  0.11100498  0.49721843  1
  O  O317  1  -0.00902559  0.60772339  0.00447718  1
  O  O318  1  0.00485697  0.61879181  0.50549537  1
  O  O319  1  0.50596953  0.11243568  -0.00398794  1
  O  O320  1  0.50631748  0.11585090  0.49313355  1
  O  O321  1  0.50853365  0.61953150  0.00965688  1
  O  O322  1  0.51657654  0.62788964  0.49707924  1
  O  O323  1  0.48578155  0.36754104  0.50459659  1
  O  O324  1  0.49110500  0.38184745  0.99367321  1
  O  O325  1  0.49312687  0.88050920  0.49286090  1
  O  O326  1  0.49187279  0.88963822  1.00866840  1
  O  O327  1  0.99557239  0.38227655  0.49452765  1
  O  O328  1  0.98348739  0.38573353  1.00729784  1
  O  O329  1  0.99481265  0.88507016  0.49853332  1
  O  O330  1  0.98923552  0.88107807  0.99481612  1
  O  O331  1  0.49340955  0.48381540  0.36927731  1
  O  O332  1  0.49074334  0.49342088  0.88082463  1
  O  O333  1  0.49587527  0.99196042  0.38300673  1
  O  O334  1  0.48591969  0.99509738  0.88493275  1
  O  O335  1  1.00783577  0.49458345  0.38324855  1
  O  O336  1  0.98616630  0.50535718  0.88116773  1
  O  O337  1  0.99569666  0.99638070  0.37997476  1
  O  O338  1  0.98970994  0.99387403  0.87777298  1
  O  O339  1  0.00633086  0.00788045  0.13055027  1
  O  O340  1  0.00718952  0.00226512  0.61460385  1
  O  O341  1  0.00407524  0.50150784  0.11056406  1
  O  O342  1  0.00658128  0.50830447  0.61897891  1
  O  O343  1  0.51174083  -0.00377460  0.12284083  1
  O  O344  1  0.50567707  -0.00870273  0.61109942  1
  O  O345  1  0.50537761  0.50320553  0.12068430  1
  O  O346  1  0.51561717  0.49897214  0.62906516  1
  O  O347  1  0.24265423  0.37861521  0.24096406  1
  O  O348  1  0.24640911  0.38718310  0.74001643  1
  O  O349  1  0.25459962  0.88994111  0.24198606  1
  O  O350  1  0.23874836  0.88344050  0.73905763  1
  O  O351  1  0.75160800  0.38889234  0.24354284  1
  O  O352  1  0.76120930  0.39052166  0.73675289  1
  O  O353  1  0.75206164  0.88748312  0.24515333  1
  O  O354  1  0.74687449  0.87604855  0.73944737  1
  O  O355  1  0.25396338  0.11688703  0.25480062  1
  O  O356  1  0.24097417  0.10024445  0.75130945  1
  O  O357  1  0.25821120  0.61396804  0.24084247  1
  O  O358  1  0.24549536  0.61852207  0.75138861  1
  O  O359  1  0.75537657  0.11458266  0.25470938  1
  O  O360  1  0.73904612  0.11508071  0.77070705  1
  O  O361  1  0.74753542  0.61048265  0.25629618  1
  O  O362  1  0.75316940  0.61512158  0.74876375  1
  O  O363  1  0.36810542  0.12043617  0.36737307  1
  O  O364  1  0.36938121  0.11443687  0.87029949  1
  O  O365  1  0.38134000  0.61483843  0.36375301  1
  O  O366  1  0.38523849  0.61483327  0.87654598  1
  O  O367  1  0.86831272  0.11892115  0.37009088  1
  O  O368  1  0.86104736  0.11283705  0.88778537  1
  O  O369  1  0.86420080  0.62752995  0.37830405  1
  O  O370  1  0.86984401  0.62196885  0.86946920  1
  O  O371  1  0.13275445  0.37114786  0.13328032  1
  O  O372  1  0.13026467  0.39216483  0.62022128  1
  O  O373  1  0.13475934  0.88413892  0.13015828  1
  O  O374  1  0.12947447  0.88302974  0.62507240  1
  O  O375  1  0.63499419  0.38298388  0.12007061  1
  O  O376  1  0.64302493  0.38678738  0.61901586  1
  O  O377  1  0.63670591  0.88336483  0.12216606  1
  O  O378  1  0.63260186  0.87305445  0.63549305  1
  O  O379  1  0.12062806  0.26043004  0.25326360  1
  O  O380  1  0.12813493  0.24283403  0.75667952  1
  O  O381  1  0.13439882  0.74866314  0.26146598  1
  O  O382  1  0.12121953  0.76447414  0.74305258  1
  O  O383  1  0.63113531  0.24362071  0.26391049  1
  O  O384  1  0.63800369  0.26341226  0.74269320  1
  O  O385  1  0.61086262  0.74438585  0.24915058  1
  O  O386  1  0.63403806  0.76653585  0.76162297  1
  O  O387  1  0.36757246  0.23973486  0.23839324  1
  O  O388  1  0.33222214  0.24387121  0.74509981  1
  O  O389  1  0.38308485  0.74257952  0.24703588  1
  O  O390  1  0.37627874  0.76097769  0.74554087  1
  O  O391  1  0.87915724  0.24505892  0.24496032  1
  O  O392  1  0.84281120  0.23381695  0.73733989  1
  O  O393  1  0.87289134  0.75238651  0.23540063  1
  O  O394  1  0.87106811  0.74018341  0.74738267  1
  O  O395  1  0.36569783  0.49907395  0.48204486  1
  O  O396  1  0.37823838  0.49296733  0.99594027  1
  O  O397  1  0.38240961  0.99672939  0.49290150  1
  O  O398  1  0.38189543  0.99647285  0.99580570  1
  O  O399  1  0.88887400  0.49520804  0.50161269  1
  O  O400  1  0.87630636  0.49466706  0.99498104  1
  O  O401  1  0.88196007  0.99442798  0.49220256  1
  O  O402  1  0.87417955  0.98814477  0.99748983  1
  O  O403  1  0.12138103  0.00591813  0.01836827  1
  O  O404  1  0.11876844  0.00001985  0.50236706  1
  O  O405  1  0.10626264  0.48789791  -0.00995165  1
  O  O406  1  0.11608774  0.51041506  0.50498829  1
  O  O407  1  0.61652220  0.00573497  0.00681219  1
  O  O408  1  0.61705810  0.00919598  0.49855436  1
  O  O409  1  0.61981759  0.50713308  0.00913502  1
  O  O410  1  0.63197888  0.50855941  0.50422379  1
  O  O411  1  0.36799731  0.37038162  0.11366549  1
  O  O412  1  0.36622735  0.38167701  0.62263298  1
  O  O413  1  0.37111236  0.86994477  0.12234162  1
  O  O414  1  0.36479852  0.87616579  0.61264213  1
  O  O415  1  0.86250122  0.37142193  0.12009121  1
  O  O416  1  0.86718930  0.37956181  0.60609831  1
  O  O417  1  0.86285323  0.87144252  0.11976430  1
  O  O418  1  0.86780837  0.87058995  0.61933699  1
  O  O419  1  0.13193437  0.13079447  0.37832759  1
  O  O420  1  0.12819140  0.13401328  0.87820051  1
  O  O421  1  0.12610608  0.63375083  0.38605572  1
  O  O422  1  0.12269254  0.63013212  0.90125843  1
  O  O423  1  0.63112761  0.13129494  0.38317861  1
  O  O424  1  0.63154506  0.12362792  0.88407209  1
  O  O425  1  0.63508057  0.62538164  0.38112703  1
  O  O426  1  0.62541739  0.63005018  0.88753161  1
