# generated using pymatgen
data_V85Zn86O256
_symmetry_space_group_name_H-M   'P 1'
_cell_length_a   16.96019342
_cell_length_b   16.96102758
_cell_length_c   16.95800301
_cell_angle_alpha   89.93191795
_cell_angle_beta   89.99984982
_cell_angle_gamma   90.03962364
_symmetry_Int_Tables_number   1
_chemical_formula_structural   V85Zn86O256
_chemical_formula_sum   'V85 Zn86 O256'
_cell_volume   4878.17368094
_cell_formula_units_Z   1
loop_
 _symmetry_equiv_pos_site_id
 _symmetry_equiv_pos_as_xyz
  1  'x, y, z'
loop_
 _atom_site_type_symbol
 _atom_site_label
 _atom_site_symmetry_multiplicity
 _atom_site_fract_x
 _atom_site_fract_y
 _atom_site_fract_z
 _atom_site_occupancy
  V  V0  1  0.49428649  0.37121856  0.36413500  1
  V  V1  1  0.74765757  0.24762526  0.00126477  1
  V  V2  1  0.00176182  0.00119971  -0.00137337  1
  V  V3  1  0.25171300  0.37575688  0.12754841  1
  V  V4  1  0.87630832  0.25409131  0.61747573  1
  V  V5  1  0.00676082  -0.00118314  0.50721595  1
  V  V6  1  0.24907716  0.75465781  0.47544418  1
  V  V7  1  0.25079923  0.75435378  0.00837858  1
  V  V8  1  0.49378784  -0.00574563  0.50318012  1
  V  V9  1  0.87793636  0.50512149  0.86769516  1
  V  V10  1  0.87717024  0.00111437  0.87331197  1
  V  V11  1  0.12594420  0.11963669  0.50407963  1
  V  V12  1  0.37479135  0.62457812  0.75235752  1
  V  V13  1  0.75045386  0.26002068  0.49725890  1
  V  V14  1  0.12425224  -0.00275823  0.12427060  1
  V  V15  1  0.38526444  0.25527887  0.12377744  1
  V  V16  1  0.62884131  0.38824741  0.25129967  1
  V  V17  1  0.26152856  0.12846665  0.87442269  1
  V  V18  1  0.36880363  0.62469360  0.25686410  1
  V  V19  1  0.00197606  0.87625726  0.87000434  1
  V  V20  1  0.00032344  0.86449070  0.37878726  1
  V  V21  1  0.37896953  0.50071880  0.88855282  1
  V  V22  1  0.75879835  0.74026680  0.00572121  1
  V  V23  1  0.61749043  0.24756950  0.36246962  1
  V  V24  1  0.75326002  0.50579012  0.74844547  1
  V  V25  1  0.62348182  0.24948873  0.87899024  1
  V  V26  1  0.62192755  0.61947908  0.50008882  1
  V  V27  1  0.50455548  0.10909545  0.12507553  1
  V  V28  1  0.00491621  0.37059752  0.87399862  1
  V  V29  1  0.37509270  0.37364869  0.50175923  1
  V  V30  1  0.63017453  0.75005250  0.87366547  1
  V  V31  1  0.74654849  0.75085331  0.49914039  1
  V  V32  1  0.00497126  0.26538046  0.24771492  1
  V  V33  1  0.25650711  0.00427966  0.74421213  1
  V  V34  1  0.00533841  0.12145171  0.62565402  1
  V  V35  1  0.49471403  0.62614572  0.62470211  1
  V  V36  1  0.87701383  0.00313158  0.37586717  1
  V  V37  1  0.37254484  -0.00600635  0.37841501  1
  V  V38  1  0.38103708  0.13184786  0.25135449  1
  V  V39  1  0.87513776  0.12528081  0.74851245  1
  V  V40  1  0.87809360  0.87062503  0.00368884  1
  V  V41  1  0.49830809  0.75731727  0.75464562  1
  V  V42  1  0.25324430  0.25817185  -0.00297856  1
  V  V43  1  0.36803828  0.75953441  0.61970369  1
  V  V44  1  0.62590834  0.37498571  0.75180642  1
  V  V45  1  0.24796144  0.00110756  0.24648867  1
  V  V46  1  0.12715689  0.62662611  0.48447473  1
  V  V47  1  0.87505336  0.87556635  0.50152625  1
  V  V48  1  0.37624025  -0.01127176  0.88839535  1
  V  V49  1  0.11826546  0.86826678  0.25047449  1
  V  V50  1  0.62182907  0.49901541  0.62740704  1
  V  V51  1  0.62242959  0.12859774  0.50091601  1
  V  V52  1  0.12774202  0.75116091  0.87170255  1
  V  V53  1  0.75509396  0.12250186  0.37473225  1
  V  V54  1  0.87695156  0.25079998  0.12255669  1
  V  V55  1  0.12281226  0.62316798  -0.00109362  1
  V  V56  1  0.49519041  0.49847525  0.49955263  1
  V  V57  1  0.12133005  0.25334329  0.37033335  1
  V  V58  1  0.12782396  0.13158708  -0.00754044  1
  V  V59  1  0.25187168  0.50055654  0.75033528  1
  V  V60  1  0.49511464  0.61651924  0.11838541  1
  V  V61  1  0.74885374  0.87594840  0.62243946  1
  V  V62  1  0.62217867  0.10572307  0.00320939  1
  V  V63  1  0.61951898  0.74770414  0.37570936  1
  V  V64  1  0.49511813  0.74831563  0.24330436  1
  V  V65  1  0.25194655  0.37491944  0.62343054  1
  V  V66  1  0.00269448  0.12366676  0.12875441  1
  V  V67  1  0.87509905  0.74222853  0.62843607  1
  V  V68  1  0.49896204  0.38021403  0.89058499  1
  V  V69  1  0.62456632  -0.00075995  0.62359069  1
  V  V70  1  0.49753716  0.24588948  0.75341115  1
  V  V71  1  0.37619570  0.24439158  0.63075520  1
  V  V72  1  0.12162353  0.49506934  0.12954230  1
  V  V73  1  0.24468883  0.49977383  0.25676100  1
  V  V74  1  0.87338580  0.37683538  -0.00271589  1
  V  V75  1  0.86267323  0.62057194  0.23956042  1
  V  V76  1  0.75322852  0.61262908  0.37019323  1
  V  V77  1  -0.00000398  0.73958573  0.74681906  1
  V  V78  1  0.49827788  0.87226791  0.37417596  1
  V  V79  1  -0.00272551  0.63270684  0.12537672  1
  V  V80  1  0.12906281  0.36944775  0.75402102  1
  V  V81  1  0.12752230  0.88084618  0.73819682  1
  V  V82  1  0.74932318  0.12433115  0.87569681  1
  V  V83  1  0.24893675  0.12499371  0.37385128  1
  V  V84  1  0.00377124  0.24874519  0.75181766  1
  Zn  Zn85  1  0.74512036  0.87795359  0.12636727  1
  Zn  Zn86  1  0.12137782  0.50372055  0.62068104  1
  Zn  Zn87  1  0.24943595  0.24871532  0.50015399  1
  Zn  Zn88  1  0.00238989  0.61939601  0.61842935  1
  Zn  Zn89  1  -0.00022360  0.49866780  0.00004672  1
  Zn  Zn90  1  0.49671931  0.12254484  0.63107130  1
  Zn  Zn91  1  0.62413701  0.87757814  0.75129250  1
  Zn  Zn92  1  0.74814564  0.00079416  0.74819287  1
  Zn  Zn93  1  -0.02211391  0.47900135  0.49501242  1
  Zn  Zn94  1  0.75513544  0.62737850  0.86727017  1
  Zn  Zn95  1  0.87024399  0.12488810  0.24602346  1
  Zn  Zn96  1  0.51135594  0.88989870  0.89893709  1
  Zn  Zn97  1  0.61675245  0.62087305  -0.00595081  1
  Zn  Zn98  1  0.25189208  0.62594799  0.87714281  1
  Zn  Zn99  1  0.72082162  -0.00605383  0.23218791  1
  Zn  Zn100  1  -0.00587930  0.74716119  0.25308460  1
  Zn  Zn101  1  0.75197296  0.37966485  0.13110408  1
  Zn  Zn102  1  0.27620664  0.88439710  0.10570053  1
  Zn  Zn103  1  0.24969158  0.88248471  0.61450998  1
  Zn  Zn104  1  0.75406088  0.37899129  0.61881500  1
  Zn  Zn105  1  0.63042618  0.50467141  0.11658137  1
  Zn  Zn106  1  0.36186219  0.49737193  0.37951172  1
  Zn  Zn107  1  0.18890757  0.18902627  0.18526365  1
  Zn  Zn108  1  0.18975495  0.18681882  0.68973357  1
  Zn  Zn109  1  0.18456858  0.68593204  0.18826940  1
  Zn  Zn110  1  0.18615083  0.68581560  0.68391099  1
  Zn  Zn111  1  0.68803197  0.18397062  0.18652567  1
  Zn  Zn112  1  0.68804343  0.18882017  0.68640230  1
  Zn  Zn113  1  0.66842124  0.71477190  0.17300497  1
  Zn  Zn114  1  0.68433026  0.68797017  0.68756048  1
  Zn  Zn115  1  0.30679417  0.31300837  0.30994904  1
  Zn  Zn116  1  0.31739820  0.31560048  0.81682783  1
  Zn  Zn117  1  0.31910934  0.82475590  0.28115389  1
  Zn  Zn118  1  0.31104289  0.81478967  0.81218719  1
  Zn  Zn119  1  0.80544452  0.30043352  0.30415543  1
  Zn  Zn120  1  0.81238269  0.31338504  0.81101665  1
  Zn  Zn121  1  0.80783413  0.80527406  0.30969354  1
  Zn  Zn122  1  0.81376600  0.81506553  0.80932374  1
  Zn  Zn123  1  0.13457958  0.45480103  0.41726332  1
  Zn  Zn124  1  0.18967146  0.43841051  0.93835094  1
  Zn  Zn125  1  0.18654660  0.93360787  0.43379897  1
  Zn  Zn126  1  0.18841236  0.93919213  0.93258399  1
  Zn  Zn127  1  0.81386488  0.43984445  0.42282594  1
  Zn  Zn128  1  0.68886614  0.44236301  0.94041600  1
  Zn  Zn129  1  0.67143420  0.94981206  0.41060726  1
  Zn  Zn130  1  0.69611356  0.93186936  0.93726456  1
  Zn  Zn131  1  0.31386494  0.06784126  0.06235353  1
  Zn  Zn132  1  0.31264213  0.06528107  0.56202991  1
  Zn  Zn133  1  0.30977496  0.57014210  0.06845407  1
  Zn  Zn134  1  0.30232980  0.56674033  0.55937987  1
  Zn  Zn135  1  0.81267447  0.05852840  0.06425931  1
  Zn  Zn136  1  0.81318782  0.06548517  0.55824398  1
  Zn  Zn137  1  0.80773065  0.55705228  0.06077266  1
  Zn  Zn138  1  0.80794613  0.56537031  0.56420103  1
  Zn  Zn139  1  0.43302754  0.44140062  0.18553304  1
  Zn  Zn140  1  0.43884157  0.43434150  0.69274103  1
  Zn  Zn141  1  0.43991922  0.93778026  0.19397785  1
  Zn  Zn142  1  0.43427094  0.93929429  0.69309804  1
  Zn  Zn143  1  0.93136711  0.44607020  0.19001529  1
  Zn  Zn144  1  0.94077706  0.43840545  0.68126836  1
  Zn  Zn145  1  0.90342573  0.91635761  0.20893526  1
  Zn  Zn146  1  0.93785320  0.93465521  0.68639111  1
  Zn  Zn147  1  0.05849599  0.06234237  0.31358294  1
  Zn  Zn148  1  0.06966906  0.06294452  0.81181892  1
  Zn  Zn149  1  0.05116168  0.56338657  0.31327218  1
  Zn  Zn150  1  0.06581201  0.55830331  0.81100574  1
  Zn  Zn151  1  0.55996854  0.06254812  0.31108238  1
  Zn  Zn152  1  0.56002833  0.06226138  0.81423622  1
  Zn  Zn153  1  0.55591211  0.56180412  0.31584435  1
  Zn  Zn154  1  0.56025168  0.56542534  0.81614124  1
  Zn  Zn155  1  0.43724748  0.18704103  0.44110070  1
  Zn  Zn156  1  0.43809071  0.18582560  0.94272905  1
  Zn  Zn157  1  0.42768887  0.68577042  0.43657375  1
  Zn  Zn158  1  0.45821197  0.74059521  0.97182084  1
  Zn  Zn159  1  0.94166831  0.30637322  0.43554262  1
  Zn  Zn160  1  0.94002037  0.18848098  0.93748758  1
  Zn  Zn161  1  0.93430410  0.68142158  0.44070496  1
  Zn  Zn162  1  0.94102713  0.68564063  0.93333855  1
  Zn  Zn163  1  0.06514546  0.31343005  0.06064809  1
  Zn  Zn164  1  0.07132662  0.30639955  0.56700457  1
  Zn  Zn165  1  0.06310313  0.81334804  0.06092324  1
  Zn  Zn166  1  0.06728848  0.80469329  0.55886819  1
  Zn  Zn167  1  0.56388757  0.30823545  0.06732396  1
  Zn  Zn168  1  0.56201849  0.31339208  0.56203957  1
  Zn  Zn169  1  0.57237023  0.82649784  0.07048009  1
  Zn  Zn170  1  0.55771161  0.81300016  0.56111948  1
  O  O171  1  0.12216920  0.11719852  0.11538637  1
  O  O172  1  0.11949351  0.13056504  0.61628209  1
  O  O173  1  0.11689596  0.61884308  0.11660383  1
  O  O174  1  0.12293918  0.62564109  0.61530002  1
  O  O175  1  0.61208166  0.12738665  0.11920182  1
  O  O176  1  0.62349770  0.11851589  0.61681212  1
  O  O177  1  0.60677243  0.62677653  0.12658323  1
  O  O178  1  0.61504858  0.62124980  0.61987806  1
  O  O179  1  0.37708190  0.37258375  0.38382285  1
  O  O180  1  0.38629208  0.38887260  0.87230312  1
  O  O181  1  0.37836696  0.88976714  0.36945711  1
  O  O182  1  0.37567530  0.88663266  0.87480854  1
  O  O183  1  0.86931019  0.36104340  0.36977707  1
  O  O184  1  0.88271800  0.37929902  0.87945026  1
  O  O185  1  0.88231736  0.88430884  0.38423231  1
  O  O186  1  0.88234118  0.88445705  0.87686697  1
  O  O187  1  0.25530373  0.00994102  0.37180493  1
  O  O188  1  0.25999692  0.00638947  0.86897950  1
  O  O189  1  0.23961960  0.48789664  0.35783219  1
  O  O190  1  0.25823299  0.49928615  0.86432718  1
  O  O191  1  0.76798552  0.00873861  0.39483407  1
  O  O192  1  0.75938696  0.00581417  0.87115048  1
  O  O193  1  0.73796505  0.51563318  0.37607576  1
  O  O194  1  0.76098316  0.49933560  0.86493404  1
  O  O195  1  0.24307147  0.49253485  0.12840039  1
  O  O196  1  0.25535965  0.49104133  0.63790454  1
  O  O197  1  0.24194578  0.99921571  0.12701537  1
  O  O198  1  0.25742215  1.00057361  0.63910951  1
  O  O199  1  0.74476512  0.49148242  0.12283284  1
  O  O200  1  0.74063277  0.49700761  0.63216831  1
  O  O201  1  0.74616854  0.99403706  0.12334092  1
  O  O202  1  0.74173239  0.99385175  0.62148510  1
  O  O203  1  -0.00113813  0.36384368  0.23758486  1
  O  O204  1  0.01032387  0.36985662  0.75468001  1
  O  O205  1  -0.00142787  0.87066713  0.26035250  1
  O  O206  1  0.00955426  0.87108041  0.75325124  1
  O  O207  1  0.49966495  0.37857709  0.26075784  1
  O  O208  1  0.51188213  0.36703808  0.75775340  1
  O  O209  1  0.49954953  0.86388367  0.26734736  1
  O  O210  1  0.50105851  0.86332315  0.74958262  1
  O  O211  1  0.49409798  0.12283006  0.23942502  1
  O  O212  1  0.50675823  0.14161800  0.74950413  1
  O  O213  1  0.48754539  0.62665433  0.24673092  1
  O  O214  1  0.49236268  0.63474321  0.74388225  1
  O  O215  1  1.00345054  0.13250511  0.23507614  1
  O  O216  1  0.99678293  0.12845613  0.74677041  1
  O  O217  1  0.99200606  0.62821201  0.24095135  1
  O  O218  1  1.00767186  0.63723342  0.74656626  1
  O  O219  1  0.36454313  0.24274791  0.01219203  1
  O  O220  1  0.37419248  0.25976081  0.50878713  1
  O  O221  1  0.34705709  0.73857924  -0.00574352  1
  O  O222  1  0.36350332  0.74743205  0.51258043  1
  O  O223  1  0.87165451  0.25413966  0.00747092  1
  O  O224  1  0.86490085  0.24459749  0.50878509  1
  O  O225  1  0.86701773  0.75800896  -0.01771081  1
  O  O226  1  0.86773281  0.75676917  0.50765968  1
  O  O227  1  0.12781115  0.23448383  0.48827172  1
  O  O228  1  0.13689915  0.24065476  1.00543990  1
  O  O229  1  0.14111990  0.74369953  0.49636106  1
  O  O230  1  0.12709754  0.74355871  0.98930542  1
  O  O231  1  0.62911241  0.24332113  0.49469840  1
  O  O232  1  0.63157850  0.24353112  0.99584433  1
  O  O233  1  0.62394789  0.73637609  0.49869379  1
  O  O234  1  0.64534210  0.74335457  0.98982793  1
  O  O235  1  0.48738013  0.24079161  0.12304605  1
  O  O236  1  0.49380986  0.25116716  0.63461780  1
  O  O237  1  0.49689234  0.74105988  0.14230645  1
  O  O238  1  0.48680777  0.74649865  0.62973255  1
  O  O239  1  0.99628985  0.24393108  0.12639370  1
  O  O240  1  0.99359364  0.24113024  0.63259381  1
  O  O241  1  1.00303188  0.73554520  0.12182155  1
  O  O242  1  0.99153588  0.75244004  0.63140737  1
  O  O243  1  0.01394716  0.24524372  0.36266858  1
  O  O244  1  -0.00395594  0.26184189  0.86748651  1
  O  O245  1  -0.00547386  0.76230870  0.38004126  1
  O  O246  1  0.01004338  0.75443307  0.86550854  1
  O  O247  1  0.50657236  0.25843828  0.38223604  1
  O  O248  1  0.50288508  0.25565459  0.87086384  1
  O  O249  1  0.49905449  0.75598521  0.37726774  1
  O  O250  1  0.51093582  0.74892255  0.86538883  1
  O  O251  1  0.24451396  0.12653499  0.49163194  1
  O  O252  1  0.24508067  0.13397360  0.99391962  1
  O  O253  1  0.24612743  0.64648031  0.49893509  1
  O  O254  1  0.23498619  0.63287394  0.99969542  1
  O  O255  1  0.73857032  0.13182381  0.49478645  1
  O  O256  1  0.74276885  0.12928056  0.99506732  1
  O  O257  1  0.73805958  0.63195057  0.49303326  1
  O  O258  1  0.76024100  0.63443359  0.98733216  1
  O  O259  1  0.24723203  0.36434047  0.00692365  1
  O  O260  1  0.25847528  0.37007338  0.51588536  1
  O  O261  1  0.24130556  0.86160678  -0.00084791  1
  O  O262  1  0.24509571  0.86158481  0.50052450  1
  O  O263  1  0.76308852  0.36552612  -0.00519095  1
  O  O264  1  0.74387559  0.36160872  0.49825660  1
  O  O265  1  0.76180920  0.86169976  0.00122704  1
  O  O266  1  0.75239178  0.86893784  0.51024768  1
  O  O267  1  0.13050568  0.51115127  0.23494999  1
  O  O268  1  0.13518674  0.48926683  0.74737673  1
  O  O269  1  0.12457898  0.99941573  0.23904169  1
  O  O270  1  0.14042422  0.99123001  0.75618393  1
  O  O271  1  0.61954825  0.48872312  0.25072739  1
  O  O272  1  0.62892778  0.49300552  0.74790678  1
  O  O273  1  0.63672895  0.98412723  0.30275654  1
  O  O274  1  0.62421026  1.00065988  0.73611759  1
  O  O275  1  0.37026454  0.01542184  0.26115088  1
  O  O276  1  0.36117180  -0.00060103  0.76020431  1
  O  O277  1  0.36331482  0.50675360  0.25347399  1
  O  O278  1  0.36958384  0.50679768  0.75256842  1
  O  O279  1  0.89406819  0.01312715  0.27211145  1
  O  O280  1  0.87641328  0.01193999  0.75243120  1
  O  O281  1  0.87852885  0.52084556  0.25849218  1
  O  O282  1  0.86437342  0.48805516  0.75505353  1
  O  O283  1  0.14338426  0.34909641  0.37635228  1
  O  O284  1  0.11716406  0.37919946  0.86759086  1
  O  O285  1  0.10789500  0.88681128  0.36369675  1
  O  O286  1  0.12066793  0.86811507  0.86543607  1
  O  O287  1  0.61206067  0.36445817  0.36040968  1
  O  O288  1  0.62018013  0.36904313  0.86920917  1
  O  O289  1  0.61024058  0.85529303  0.39374026  1
  O  O290  1  0.62545448  0.86583830  0.87183819  1
  O  O291  1  0.38608064  0.12794528  0.13211917  1
  O  O292  1  0.37742660  0.14027269  0.62195905  1
  O  O293  1  0.38494618  0.62105548  0.13957536  1
  O  O294  1  0.37607962  0.63329637  0.63373852  1
  O  O295  1  0.88587444  0.13257114  0.12081846  1
  O  O296  1  0.88101401  0.13133183  0.63199907  1
  O  O297  1  0.88075751  0.61787229  0.13302042  1
  O  O298  1  0.87714607  0.63966061  0.62216794  1
  O  O299  1  0.25702520  0.25769097  0.11965826  1
  O  O300  1  0.25932234  0.25724058  0.62773933  1
  O  O301  1  0.23758677  0.75480745  0.11058087  1
  O  O302  1  0.26435717  0.75550225  0.63226794  1
  O  O303  1  0.75948714  0.25266584  0.12046167  1
  O  O304  1  0.75720668  0.24959196  0.61488086  1
  O  O305  1  0.76566222  0.73687074  0.10531099  1
  O  O306  1  0.75528675  0.75593377  0.62176500  1
  O  O307  1  0.24485315  0.23578357  0.37319396  1
  O  O308  1  0.25895826  0.24282498  0.88413148  1
  O  O309  1  0.26177931  0.76029258  0.37909249  1
  O  O310  1  0.23731602  0.74915267  0.87733459  1
  O  O311  1  0.73829532  0.23877590  0.38060950  1
  O  O312  1  0.74509932  0.24252564  0.87969442  1
  O  O313  1  0.73692761  0.74541523  0.38126731  1
  O  O314  1  0.74523109  0.74860752  0.87281811  1
  O  O315  1  0.01011477  0.12461967  0.00615705  1
  O  O316  1  0.01066209  0.11386111  0.50983550  1
  O  O317  1  0.00841591  0.62237159  0.00362858  1
  O  O318  1  0.01895769  0.63274218  0.49932476  1
  O  O319  1  0.50825261  0.12468300  0.01461566  1
  O  O320  1  0.50894605  0.11608013  0.50267368  1
  O  O321  1  0.49462528  0.63925314  0.01694755  1
  O  O322  1  0.50068425  0.61941660  0.50491844  1
  O  O323  1  0.49136920  0.37902714  0.49445703  1
  O  O324  1  0.50474160  0.36834208  0.98896256  1
  O  O325  1  0.49715341  0.88720766  0.49409655  1
  O  O326  1  0.49269367  0.84560832  1.00102697  1
  O  O327  1  1.00913839  0.36714497  0.50004789  1
  O  O328  1  0.99054905  0.37292171  0.99116687  1
  O  O329  1  0.99917678  0.88022080  0.49704097  1
  O  O330  1  0.99869992  0.87937520  0.98760390  1
  O  O331  1  0.49517890  0.48797355  0.38486635  1
  O  O332  1  0.48985964  0.49312627  0.87116266  1
  O  O333  1  0.49078957  0.99301617  0.38397047  1
  O  O334  1  0.48259534  0.99972587  0.87103668  1
  O  O335  1  1.02946738  0.48859299  0.39091219  1
  O  O336  1  0.99504795  0.48706388  0.87253324  1
  O  O337  1  0.99429548  0.99823665  0.39090638  1
  O  O338  1  0.99710037  0.99789169  0.87881648  1
  O  O339  1  0.00748681  0.01061772  0.11553460  1
  O  O340  1  -0.00168998  0.00333785  0.61515865  1
  O  O341  1  0.00682333  0.50788911  0.12141185  1
  O  O342  1  0.00350224  0.50157281  0.61428677  1
  O  O343  1  0.50016748  0.00927392  0.12897989  1
  O  O344  1  0.50350642  0.00084753  0.62030280  1
  O  O345  1  0.50087291  0.51370401  0.12597844  1
  O  O346  1  0.50211912  0.50451013  0.62125869  1
  O  O347  1  0.25156490  0.38232925  0.23513636  1
  O  O348  1  0.24688648  0.37947628  0.74571278  1
  O  O349  1  0.22716755  0.89094096  0.26269856  1
  O  O350  1  0.24400630  0.88741881  0.74831219  1
  O  O351  1  0.73099062  0.37056688  0.25098826  1
  O  O352  1  0.73723812  0.38044494  0.74988387  1
  O  O353  1  0.79156673  0.88949563  0.23773252  1
  O  O354  1  0.74829109  0.87926577  0.73467453  1
  O  O355  1  0.25591314  0.11957689  0.25513631  1
  O  O356  1  0.24401955  0.11319951  0.76010410  1
  O  O357  1  0.26100152  0.61742226  0.24147981  1
  O  O358  1  0.25612850  0.61640929  0.75104535  1
  O  O359  1  0.74974811  0.11749953  0.25964142  1
  O  O360  1  0.75883157  0.12410178  0.75542528  1
  O  O361  1  0.75534081  0.62963198  0.26075738  1
  O  O362  1  0.74631948  0.61009250  0.74782186  1
  O  O363  1  0.36921480  0.12217100  0.36979143  1
  O  O364  1  0.36514803  0.11620983  0.88078461  1
  O  O365  1  0.37566635  0.61360354  0.36276666  1
  O  O366  1  0.37285969  0.61629498  0.85900474  1
  O  O367  1  0.86022862  0.12275212  0.37697484  1
  O  O368  1  0.87218987  0.12085181  0.86816777  1
  O  O369  1  0.85579349  0.62627365  0.37687365  1
  O  O370  1  0.88185230  0.60807821  0.87045758  1
  O  O371  1  0.13380212  0.38586532  0.11805356  1
  O  O372  1  0.13828782  0.37565658  0.63413296  1
  O  O373  1  0.11753047  0.88893379  0.13138820  1
  O  O374  1  0.12785471  0.87103588  0.63555854  1
  O  O375  1  0.61838990  0.37129668  0.14470804  1
  O  O376  1  0.62523963  0.38077771  0.63411549  1
  O  O377  1  0.64554511  0.82733149  0.14861891  1
  O  O378  1  0.63057376  0.88287380  0.62287952  1
  O  O379  1  0.11907944  0.24275774  0.26004978  1
  O  O380  1  0.12150560  0.26178775  0.74800493  1
  O  O381  1  0.11916375  0.76484424  0.24359935  1
  O  O382  1  0.12087163  0.75807428  0.75510411  1
  O  O383  1  0.62403691  0.24822954  0.26060768  1
  O  O384  1  0.62175650  0.25703942  0.75708522  1
  O  O385  1  0.60739885  0.73309233  0.27188732  1
  O  O386  1  0.61620178  0.75262160  0.75439342  1
  O  O387  1  0.36777895  0.23756008  0.24187219  1
  O  O388  1  0.38605712  0.25792777  0.74332188  1
  O  O389  1  0.38215639  0.73082196  0.26369803  1
  O  O390  1  0.37985703  0.74407789  0.74516312  1
  O  O391  1  0.88294371  0.24432058  0.23488687  1
  O  O392  1  0.87994310  0.23829865  0.74612216  1
  O  O393  1  0.87786961  0.72698282  0.25828927  1
  O  O394  1  0.88791205  0.75830399  0.74064546  1
  O  O395  1  0.37310654  0.48836452  0.50132641  1
  O  O396  1  0.36524317  0.51033460  0.98616565  1
  O  O397  1  0.38266382  1.00814714  0.49151283  1
  O  O398  1  0.36642392  0.99722420  0.98800178  1
  O  O399  1  0.86720781  0.50012195  0.49955533  1
  O  O400  1  0.87785231  0.49014056  0.98818849  1
  O  O401  1  0.88647419  0.99516039  0.49841021  1
  O  O402  1  0.88356214  0.99459329  0.99106290  1
  O  O403  1  0.12157846  0.00664536  0.00481430  1
  O  O404  1  0.12175745  0.01010226  0.49643158  1
  O  O405  1  0.12400027  0.50817660  0.00608550  1
  O  O406  1  0.15261895  0.52354148  0.50673793  1
  O  O407  1  0.62608091  0.00674231  -0.00835029  1
  O  O408  1  0.61637439  0.00725602  0.50772477  1
  O  O409  1  0.62436666  0.50820814  -0.00042030  1
  O  O410  1  0.61546165  0.51233473  0.50980586  1
  O  O411  1  0.36834661  0.36560550  0.12740953  1
  O  O412  1  0.37232930  0.36698318  0.62104497  1
  O  O413  1  0.35795987  0.86689920  0.17609149  1
  O  O414  1  0.37454691  0.86191273  0.62801165  1
  O  O415  1  0.87626343  0.36811856  0.11520197  1
  O  O416  1  0.87149113  0.35673989  0.63582795  1
  O  O417  1  0.88923768  0.87342220  0.10352405  1
  O  O418  1  0.86677361  0.86926678  0.61974975  1
  O  O419  1  0.13297844  0.12789965  0.37969062  1
  O  O420  1  0.13756860  0.12024071  0.88746475  1
  O  O421  1  0.12731380  0.62758863  0.38507599  1
  O  O422  1  0.12573127  0.63144431  0.88088528  1
  O  O423  1  0.62762212  0.13198554  0.38529283  1
  O  O424  1  0.62824319  0.12917983  0.88371237  1
  O  O425  1  0.62763348  0.62764417  0.38448751  1
  O  O426  1  0.62851093  0.63787474  0.87305404  1
