# generated using pymatgen
data_V85Zn86O256
_symmetry_space_group_name_H-M   'P 1'
_cell_length_a   16.97884465
_cell_length_b   16.98036812
_cell_length_c   16.97223308
_cell_angle_alpha   90.10719822
_cell_angle_beta   89.96163417
_cell_angle_gamma   89.92431111
_symmetry_Int_Tables_number   1
_chemical_formula_structural   V85Zn86O256
_chemical_formula_sum   'V85 Zn86 O256'
_cell_volume   4893.20021043
_cell_formula_units_Z   1
loop_
 _symmetry_equiv_pos_site_id
 _symmetry_equiv_pos_as_xyz
  1  'x, y, z'
loop_
 _atom_site_type_symbol
 _atom_site_label
 _atom_site_symmetry_multiplicity
 _atom_site_fract_x
 _atom_site_fract_y
 _atom_site_fract_z
 _atom_site_occupancy
  V  V0  1  0.62375326  0.37428430  0.24879335  1
  V  V1  1  0.87529657  0.14857535  0.24707272  1
  V  V2  1  0.13481791  0.12497646  0.49708738  1
  V  V3  1  0.24946273  0.26340268  0.50736248  1
  V  V4  1  0.00326757  0.50154005  -0.00054604  1
  V  V5  1  0.25730576  -0.00379512  0.75182660  1
  V  V6  1  0.57777674  0.17196604  0.55019915  1
  V  V7  1  0.13048190  0.49317160  0.12605413  1
  V  V8  1  -0.00262484  0.12236145  0.62161586  1
  V  V9  1  0.87513183  0.74987232  0.62270446  1
  V  V10  1  0.30129994  0.17509693  0.81842207  1
  V  V11  1  -0.00031099  0.87564732  0.37281279  1
  V  V12  1  0.49934692  0.62962290  0.12537257  1
  V  V13  1  0.12470260  0.12559008  -0.00456617  1
  V  V14  1  0.86975546  0.10680853  0.75481081  1
  V  V15  1  0.62572637  0.75609611  0.87241019  1
  V  V16  1  0.75152343  0.74726228  0.48953561  1
  V  V17  1  0.87251129  0.24732538  0.63029968  1
  V  V18  1  0.87477508  0.87864798  0.49529389  1
  V  V19  1  0.75205246  0.88153910  0.62484812  1
  V  V20  1  0.62094607  0.61285318  -0.01093992  1
  V  V21  1  0.62037696  0.88181071  0.25467204  1
  V  V22  1  0.37894004  0.76264312  0.62254472  1
  V  V23  1  0.87709639  0.62701174  0.75012219  1
  V  V24  1  0.13262575  0.88203668  0.25214166  1
  V  V25  1  0.75438311  0.88202837  0.13513907  1
  V  V26  1  0.11516761  0.24374827  0.37140237  1
  V  V27  1  0.13717838  0.00385512  0.12777076  1
  V  V28  1  0.37672214  0.25677956  0.12037066  1
  V  V29  1  -0.00194267  0.37456408  0.86926906  1
  V  V30  1  0.62184696  0.12571306  -0.00081059  1
  V  V31  1  0.75007171  0.50267846  0.25911751  1
  V  V32  1  0.61787963  0.36991413  0.75907852  1
  V  V33  1  0.37119926  0.02274622  0.37107596  1
  V  V34  1  0.62859584  0.87730149  0.74858223  1
  V  V35  1  0.50738191  -0.01194818  0.48831875  1
  V  V36  1  0.37588495  0.87007555  0.47407499  1
  V  V37  1  0.75252196  0.75009828  0.00013785  1
  V  V38  1  0.00460314  0.88150912  0.87708924  1
  V  V39  1  0.87001564  0.62469824  0.26005920  1
  V  V40  1  0.74827115  0.25034352  -0.00062199  1
  V  V41  1  0.62933585  0.62524226  0.49611500  1
  V  V42  1  0.49627953  0.12625878  0.12661615  1
  V  V43  1  0.49055123  -0.01523493  0.00087622  1
  V  V44  1  0.74783541  0.11916528  0.37229879  1
  V  V45  1  0.13901208  0.49576427  0.62620462  1
  V  V46  1  -0.00194831  0.49978552  0.50373243  1
  V  V47  1  0.12597329  0.74718938  0.87259928  1
  V  V48  1  0.24149900  0.61003049  0.86835516  1
  V  V49  1  0.75147250  0.50101406  0.75055701  1
  V  V50  1  0.82946503  0.93375706  -0.05317521  1
  V  V51  1  0.12848520  -0.00460204  0.62135313  1
  V  V52  1  0.37827942  0.62088515  0.25294781  1
  V  V53  1  -0.00532763  0.62073841  0.12731776  1
  V  V54  1  0.62859449  0.50490709  0.62593486  1
  V  V55  1  0.62295503  0.24201718  0.36809173  1
  V  V56  1  0.37122007  0.60657801  0.75695519  1
  V  V57  1  0.37229232  0.48763357  0.38080932  1
  V  V58  1  0.12656535  0.87501049  0.74343250  1
  V  V59  1  0.87330003  -0.00148567  0.35668156  1
  V  V60  1  -0.00439142  0.13764929  0.12506058  1
  V  V61  1  0.50010500  0.37271579  0.38252443  1
  V  V62  1  0.25439253  0.24706159  -0.00243392  1
  V  V63  1  0.14372960  0.65894984  0.03280464  1
  V  V64  1  0.49133117  0.24937349  0.25137427  1
  V  V65  1  0.62727056  0.50057864  0.12827846  1
  V  V66  1  0.62183442  -0.00240538  0.62176420  1
  V  V67  1  0.00012950  0.74897245  0.25009724  1
  V  V68  1  0.12159497  0.24515110  0.87075636  1
  V  V69  1  0.61716110  0.74947632  0.37224242  1
  V  V70  1  0.87282323  0.36937211  0.00445459  1
  V  V71  1  0.00451541  -0.00618497  0.00347725  1
  V  V72  1  0.14088662  0.37559187  0.74629106  1
  V  V73  1  0.24981832  0.62122130  0.38005649  1
  V  V74  1  0.87569431  0.50117883  0.87694554  1
  V  V75  1  0.12674840  0.74913527  0.37748597  1
  V  V76  1  0.74429594  0.37158253  0.62779142  1
  V  V77  1  0.11726146  0.36962550  0.25126765  1
  V  V78  1  0.24915861  0.75453762  0.50346043  1
  V  V79  1  0.87738414  0.75205942  0.11951158  1
  V  V80  1  0.87450095  0.37320267  0.50250816  1
  V  V81  1  0.45151947  0.81351418  0.80578285  1
  V  V82  1  0.75541375  0.63102856  0.87508350  1
  V  V83  1  0.37671886  0.38454058  -0.02948281  1
  V  V84  1  0.49825173  0.50305021  0.50154125  1
  Zn  Zn85  1  0.61768489  0.23955111  0.86572290  1
  Zn  Zn86  1  0.00295785  0.62455289  0.62526493  1
  Zn  Zn87  1  0.25326871  0.04097823  0.25909122  1
  Zn  Zn88  1  0.75314012  0.37057354  0.12726164  1
  Zn  Zn89  1  0.87027020  0.50190889  0.38104358  1
  Zn  Zn90  1  -0.00937535  0.37151432  0.36807923  1
  Zn  Zn91  1  0.43855290  0.16022720  0.68810253  1
  Zn  Zn92  1  0.62651519  0.00148688  0.12970619  1
  Zn  Zn93  1  0.35236047  0.38566645  0.54600279  1
  Zn  Zn94  1  0.24975239  0.48664091  0.25654096  1
  Zn  Zn95  1  0.48962458  0.49759817  -0.00442135  1
  Zn  Zn96  1  0.50384288  0.63464626  0.63838792  1
  Zn  Zn97  1  0.49482904  0.75397754  0.24921610  1
  Zn  Zn98  1  0.37462817  -0.00363443  0.87868349  1
  Zn  Zn99  1  0.74930966  0.24433166  0.49896028  1
  Zn  Zn100  1  0.33792935  0.81856154  0.05980202  1
  Zn  Zn101  1  -0.00272680  0.24828209  0.74940050  1
  Zn  Zn102  1  0.75498248  0.11635849  0.87726238  1
  Zn  Zn103  1  0.00057180  0.00118479  0.49427560  1
  Zn  Zn104  1  0.25282421  0.37518620  0.12586107  1
  Zn  Zn105  1  0.12358567  0.62313198  0.50234740  1
  Zn  Zn106  1  0.00039840  0.75163225  0.74853731  1
  Zn  Zn107  1  0.18052334  0.19116480  0.17963556  1
  Zn  Zn108  1  0.18145628  0.18756710  0.68163529  1
  Zn  Zn109  1  0.18586575  0.68006473  0.20487142  1
  Zn  Zn110  1  0.18986692  0.68548357  0.68443129  1
  Zn  Zn111  1  0.68907438  0.18791510  0.18410899  1
  Zn  Zn112  1  0.69393350  0.18566896  0.69500633  1
  Zn  Zn113  1  0.68768190  0.68844683  0.18646909  1
  Zn  Zn114  1  0.68937897  0.69393133  0.68540950  1
  Zn  Zn115  1  0.28574744  0.25602496  0.29640129  1
  Zn  Zn116  1  0.35211818  0.34707936  0.75538867  1
  Zn  Zn117  1  0.33601008  0.83120033  0.26601188  1
  Zn  Zn118  1  0.29101830  0.80981022  0.81649207  1
  Zn  Zn119  1  0.80573148  0.31563631  0.31723557  1
  Zn  Zn120  1  0.80697812  0.30765186  0.81710004  1
  Zn  Zn121  1  0.81047276  0.81037775  0.30927793  1
  Zn  Zn122  1  0.81047960  0.81478566  0.80555749  1
  Zn  Zn123  1  0.18044341  0.43265237  0.43594385  1
  Zn  Zn124  1  0.18770159  0.43218701  0.93807286  1
  Zn  Zn125  1  0.19271430  0.93852874  0.43288092  1
  Zn  Zn126  1  0.19689788  0.93669977  0.93718873  1
  Zn  Zn127  1  0.68596573  0.43370195  0.43890714  1
  Zn  Zn128  1  0.67922863  0.44441520  0.93408060  1
  Zn  Zn129  1  0.69208931  0.93670817  0.43236248  1
  Zn  Zn130  1  0.66415354  0.93922452  0.94081987  1
  Zn  Zn131  1  0.31471818  0.06856334  0.06210400  1
  Zn  Zn132  1  0.31070187  0.05004800  0.56345088  1
  Zn  Zn133  1  0.32349167  0.61629064  0.04925291  1
  Zn  Zn134  1  0.31615124  0.57203721  0.56814402  1
  Zn  Zn135  1  0.80836045  0.07144793  0.07263283  1
  Zn  Zn136  1  0.81158455  0.06078825  0.55517675  1
  Zn  Zn137  1  0.80716224  0.55872736  0.06508071  1
  Zn  Zn138  1  0.81199705  0.56321320  0.56313078  1
  Zn  Zn139  1  0.43860054  0.43943356  0.18706079  1
  Zn  Zn140  1  0.44948623  0.46071983  0.69686911  1
  Zn  Zn141  1  0.43569632  0.94359328  0.18766992  1
  Zn  Zn142  1  0.43492059  0.94571665  0.67174286  1
  Zn  Zn143  1  0.93530790  0.43709324  0.18820556  1
  Zn  Zn144  1  0.93860549  0.43708093  0.68638259  1
  Zn  Zn145  1  0.94569276  0.93666428  0.18143145  1
  Zn  Zn146  1  0.94300579  0.93554589  0.68436275  1
  Zn  Zn147  1  0.05607776  0.06573647  0.30835815  1
  Zn  Zn148  1  0.06067586  0.06120996  0.80796974  1
  Zn  Zn149  1  0.06035771  0.55593406  0.31546747  1
  Zn  Zn150  1  0.06295579  0.55981313  0.80673609  1
  Zn  Zn151  1  0.55686159  0.06229996  0.31160318  1
  Zn  Zn152  1  0.55855689  0.05657315  0.81637807  1
  Zn  Zn153  1  0.56347581  0.56385513  0.31661620  1
  Zn  Zn154  1  0.56400703  0.56331096  0.81545627  1
  Zn  Zn155  1  0.40666309  0.16558512  0.49382792  1
  Zn  Zn156  1  0.44584862  0.18872044  0.93389303  1
  Zn  Zn157  1  0.43692661  0.68356891  0.43644521  1
  Zn  Zn158  1  0.43407203  0.68474476  0.93776667  1
  Zn  Zn159  1  0.93531175  0.18586330  0.43909490  1
  Zn  Zn160  1  0.93675663  0.18532887  0.93724581  1
  Zn  Zn161  1  0.94016951  0.68623132  0.43877818  1
  Zn  Zn162  1  0.94926396  0.69134646  0.94145751  1
  Zn  Zn163  1  0.06254818  0.31600655  0.05593098  1
  Zn  Zn164  1  0.06061855  0.31163845  0.56388281  1
  Zn  Zn165  1  0.16492464  0.82404229  0.06336473  1
  Zn  Zn166  1  0.06018615  0.81265448  0.55997768  1
  Zn  Zn167  1  0.55883173  0.31552762  0.05598859  1
  Zn  Zn168  1  0.51415756  0.34199501  0.60458917  1
  Zn  Zn169  1  0.56729021  0.80845510  0.06727080  1
  Zn  Zn170  1  0.55985711  0.81231362  0.56042016  1
  O  O171  1  0.11410590  0.12118326  0.11636034  1
  O  O172  1  0.11408779  0.11709970  0.61719853  1
  O  O173  1  0.11264298  0.61059060  0.13241019  1
  O  O174  1  0.12321105  0.61065141  0.62511933  1
  O  O175  1  0.61937829  0.12321145  0.11581336  1
  O  O176  1  0.63853368  0.11684061  0.61623717  1
  O  O177  1  0.61899125  0.61794882  0.12005876  1
  O  O178  1  0.62543638  0.62489607  0.61668001  1
  O  O179  1  0.38424322  0.38623825  0.37837218  1
  O  O180  1  0.37115347  0.37656112  0.87166491  1
  O  O181  1  0.37379881  0.87034061  0.37331356  1
  O  O182  1  0.38575408  0.86622955  0.86279426  1
  O  O183  1  0.87269147  0.37559139  0.38892532  1
  O  O184  1  0.88062649  0.38036102  0.87873467  1
  O  O185  1  0.87900108  0.88056023  0.37367326  1
  O  O186  1  0.88156687  0.87607195  0.87719810  1
  O  O187  1  0.26619986  0.00419983  0.37413186  1
  O  O188  1  0.25680569  -0.00423024  0.86179852  1
  O  O189  1  0.25587490  0.50207003  0.38023430  1
  O  O190  1  0.23076949  0.51104599  0.86791450  1
  O  O191  1  0.76011637  0.00699551  0.37206873  1
  O  O192  1  0.76215988  -0.01094502  0.89474565  1
  O  O193  1  0.74937076  0.49531988  0.36477680  1
  O  O194  1  0.75782332  0.51014757  0.86847955  1
  O  O195  1  0.23372461  0.49621135  0.12896513  1
  O  O196  1  0.23776045  0.49979961  0.61768455  1
  O  O197  1  0.23954201  1.01689231  0.13467915  1
  O  O198  1  0.23498804  1.00188980  0.63235723  1
  O  O199  1  0.74965905  0.49402682  0.14508082  1
  O  O200  1  0.74699096  0.49234605  0.63101683  1
  O  O201  1  0.74913346  0.98509602  0.11975898  1
  O  O202  1  0.73992954  0.98798045  0.61232239  1
  O  O203  1  0.00987081  0.37921035  0.25090032  1
  O  O204  1  0.00143490  0.37386042  0.76090501  1
  O  O205  1  0.00741666  0.86958328  0.25712300  1
  O  O206  1  0.00990010  0.87596200  0.75753683  1
  O  O207  1  0.50710667  0.36980948  0.25820300  1
  O  O208  1  0.51875173  0.38636797  0.75365027  1
  O  O209  1  0.51768279  0.87066661  0.24522514  1
  O  O210  1  0.50391846  0.87751956  0.74502579  1
  O  O211  1  0.50637272  0.13588711  0.23594456  1
  O  O212  1  0.50523926  0.14189702  0.77213476  1
  O  O213  1  0.49441227  0.62045938  0.24499669  1
  O  O214  1  0.48129197  0.61400032  0.75607647  1
  O  O215  1  0.98482286  0.12637797  0.23996865  1
  O  O216  1  0.98907003  0.12431921  0.73762466  1
  O  O217  1  0.99131451  0.62506004  0.24540401  1
  O  O218  1  0.98734090  0.62793469  0.74715997  1
  O  O219  1  0.36975819  0.25862520  0.00117553  1
  O  O220  1  0.35319780  0.26638985  0.49547264  1
  O  O221  1  0.36536701  0.71952856  0.01688128  1
  O  O222  1  0.36951957  0.75374078  0.50245999  1
  O  O223  1  0.86475926  0.25921221  -0.01027274  1
  O  O224  1  0.87223177  0.25572495  0.51234473  1
  O  O225  1  0.87395931  0.74315089  0.01365656  1
  O  O226  1  0.86861621  0.75457835  0.50396328  1
  O  O227  1  0.12416643  0.24244862  0.49568092  1
  O  O228  1  0.13413335  0.25062535  0.98762177  1
  O  O229  1  0.13180359  0.74742882  0.49703994  1
  O  O230  1  0.10832414  0.74928265  0.98743826  1
  O  O231  1  0.62602027  0.24096660  0.49115554  1
  O  O232  1  0.62734236  0.24173197  0.99545929  1
  O  O233  1  0.63234832  0.74554680  0.49404192  1
  O  O234  1  0.62917301  0.74294563  0.98899235  1
  O  O235  1  0.49528621  0.24773481  0.13028958  1
  O  O236  1  0.51708345  0.22802791  0.61055936  1
  O  O237  1  0.50816453  0.73303052  0.13088015  1
  O  O238  1  0.48726097  0.74717394  0.61946702  1
  O  O239  1  1.00234466  0.23609277  0.11074849  1
  O  O240  1  0.99034183  0.24046480  0.62731765  1
  O  O241  1  0.99164606  0.73398319  0.13413037  1
  O  O242  1  0.98588309  0.74949747  0.62430614  1
  O  O243  1  0.01037498  0.25435810  0.38584703  1
  O  O244  1  0.00551061  0.25769903  0.87270913  1
  O  O245  1  0.00555004  0.75508985  0.37034700  1
  O  O246  1  0.00631576  0.76312286  0.87069752  1
  O  O247  1  0.51186715  0.25267644  0.36600646  1
  O  O248  1  0.50529830  0.24304659  0.86008423  1
  O  O249  1  0.51425703  0.74516644  0.37512282  1
  O  O250  1  0.50511500  0.75018580  0.86988082  1
  O  O251  1  0.23622421  0.12962315  0.50180257  1
  O  O252  1  0.24097255  0.13934510  1.00329732  1
  O  O253  1  0.24991063  0.62994765  0.49230709  1
  O  O254  1  0.22662976  0.61013958  0.98917454  1
  O  O255  1  0.75842591  0.12753425  0.47821461  1
  O  O256  1  0.74308305  0.13107655  1.00015228  1
  O  O257  1  0.74232430  0.63555236  0.50624907  1
  O  O258  1  0.74649862  0.63299884  0.99236425  1
  O  O259  1  0.26160675  0.36418446  -0.00359505  1
  O  O260  1  0.24379840  0.36868032  0.50691307  1
  O  O261  1  0.25053418  0.87251700  0.01006867  1
  O  O262  1  0.25973119  0.86325003  0.49154455  1
  O  O263  1  0.75773517  0.36874645  -0.00383817  1
  O  O264  1  0.75646166  0.37366527  0.51292238  1
  O  O265  1  0.75904272  0.87354164  0.00136404  1
  O  O266  1  0.75652387  0.86625302  0.50398619  1
  O  O267  1  0.12568642  0.48910438  0.24511731  1
  O  O268  1  0.12024612  0.49066387  0.73424749  1
  O  O269  1  0.12907403  0.99940856  0.24658476  1
  O  O270  1  0.13057208  0.99408243  0.74140053  1
  O  O271  1  0.63082467  0.49671162  0.24608937  1
  O  O272  1  0.63491862  0.49494501  0.74559962  1
  O  O273  1  0.62213696  0.98584151  0.24944623  1
  O  O274  1  0.61846553  0.98745268  0.73906787  1
  O  O275  1  0.37556883  0.00826708  0.26736653  1
  O  O276  1  0.36138347  -0.00420488  0.74440856  1
  O  O277  1  0.37204183  0.50220371  0.26325605  1
  O  O278  1  0.36245565  0.50769605  0.75170004  1
  O  O279  1  0.87966500  0.00118235  0.25563306  1
  O  O280  1  0.87722356  0.00886950  0.74429839  1
  O  O281  1  0.86835972  0.50700475  0.25543283  1
  O  O282  1  0.87117020  0.50866891  0.75472455  1
  O  O283  1  0.11552676  0.36478077  0.36873315  1
  O  O284  1  0.11736037  0.36501267  0.86718397  1
  O  O285  1  0.11633511  0.87211271  0.37234036  1
  O  O286  1  0.11972030  0.86860303  0.86719804  1
  O  O287  1  0.61953268  0.36581008  0.36991962  1
  O  O288  1  0.63701741  0.37053595  0.85974539  1
  O  O289  1  0.63212090  0.86623330  0.36126521  1
  O  O290  1  0.62545156  0.86592251  0.86526547  1
  O  O291  1  0.38464367  0.14447498  0.11762538  1
  O  O292  1  0.38466460  0.12415741  0.59862520  1
  O  O293  1  0.38748823  0.60592233  0.14134170  1
  O  O294  1  0.37603715  0.63542379  0.64460487  1
  O  O295  1  0.87931030  0.12806026  0.13977565  1
  O  O296  1  0.87718610  0.12796739  0.62992333  1
  O  O297  1  0.87950345  0.62776405  0.13198114  1
  O  O298  1  0.87348407  0.63452352  0.63257521  1
  O  O299  1  0.25783560  0.25520395  0.11192554  1
  O  O300  1  0.23864535  0.24871990  0.60653749  1
  O  O301  1  0.20616941  0.72153469  0.10169653  1
  O  O302  1  0.25978008  0.74352893  0.61064856  1
  O  O303  1  0.74387050  0.25413628  0.10702294  1
  O  O304  1  0.75469276  0.25580629  0.62187332  1
  O  O305  1  0.75685607  0.75856199  0.11756936  1
  O  O306  1  0.75982935  0.76072092  0.61597439  1
  O  O307  1  0.22424735  0.25333115  0.39340402  1
  O  O308  1  0.24295200  0.24159777  0.87567092  1
  O  O309  1  0.24141764  0.73638143  0.38652131  1
  O  O310  1  0.23135392  0.73873991  0.87814344  1
  O  O311  1  0.73608695  0.24483769  0.37629067  1
  O  O312  1  0.74109690  0.24151164  0.88435577  1
  O  O313  1  0.74368339  0.75222147  0.38608225  1
  O  O314  1  0.74590222  0.75248162  0.88111880  1
  O  O315  1  0.00337667  0.11466706  0.00300204  1
  O  O316  1  0.00208277  0.12222346  0.51125606  1
  O  O317  1  0.01628720  0.62242145  0.01255462  1
  O  O318  1  0.00150597  0.61548103  0.50398046  1
  O  O319  1  0.50574790  0.12202674  0.01046855  1
  O  O320  1  0.51740736  0.11508743  0.49150997  1
  O  O321  1  0.50389950  0.62066428  0.01006775  1
  O  O322  1  0.50838835  0.61541410  0.50020342  1
  O  O323  1  0.50513685  0.39200831  0.49967034  1
  O  O324  1  0.48144198  0.37691600  0.99508491  1
  O  O325  1  0.49087792  0.87959718  0.49546536  1
  O  O326  1  0.50064379  0.88592666  1.01338181  1
  O  O327  1  0.98428507  0.38003537  0.50628797  1
  O  O328  1  0.99145220  0.37861810  0.98639226  1
  O  O329  1  0.99211242  0.87509477  0.48857844  1
  O  O330  1  0.99769947  0.89109779  0.99204351  1
  O  O331  1  0.49392872  0.49673745  0.38492028  1
  O  O332  1  0.57318089  0.51920689  0.91819351  1
  O  O333  1  0.48852367  1.00251361  0.38193952  1
  O  O334  1  0.49524591  0.99649349  0.89533749  1
  O  O335  1  0.99620183  0.49488721  0.39120204  1
  O  O336  1  0.99583401  0.49405692  0.87891777  1
  O  O337  1  0.99184333  0.99240015  0.37348208  1
  O  O338  1  1.00739866  0.98924583  0.88153993  1
  O  O339  1  0.00830632  0.01070872  0.11804383  1
  O  O340  1  0.00968619  0.00570024  0.62047275  1
  O  O341  1  0.00210930  0.50790806  0.12105314  1
  O  O342  1  0.00109827  0.50179932  0.61489309  1
  O  O343  1  0.49814391  0.01137868  0.11977162  1
  O  O344  1  0.51396500  -0.00108442  0.60851973  1
  O  O345  1  0.51356330  0.50547466  0.12142261  1
  O  O346  1  0.51162805  0.51211065  0.61763452  1
  O  O347  1  0.23224939  0.36570042  0.24784693  1
  O  O348  1  0.23953666  0.37092478  0.75053241  1
  O  O349  1  0.23140790  0.87441189  0.26114857  1
  O  O350  1  0.23491266  0.88190913  0.74839534  1
  O  O351  1  0.74037489  0.38060342  0.24882262  1
  O  O352  1  0.74822221  0.37980217  0.74011393  1
  O  O353  1  0.73915923  0.86914664  0.24233304  1
  O  O354  1  0.74269189  0.87604176  0.73646697  1
  O  O355  1  0.25164314  0.15346999  0.25459956  1
  O  O356  1  0.24214972  0.11742348  0.75496170  1
  O  O357  1  0.25719934  0.61605119  0.26575929  1
  O  O358  1  0.26245866  0.63325915  0.75670788  1
  O  O359  1  0.76588654  0.13242687  0.25582304  1
  O  O360  1  0.76431821  0.11943804  0.75471965  1
  O  O361  1  0.75936627  0.61758855  0.24553390  1
  O  O362  1  0.76158028  0.62507418  0.75338934  1
  O  O363  1  0.37772764  0.12010690  0.38812059  1
  O  O364  1  0.36281580  0.12236436  0.87954037  1
  O  O365  1  0.36861577  0.60952112  0.37606583  1
  O  O366  1  0.36061017  0.62672722  0.86337291  1
  O  O367  1  0.87305799  0.12004307  0.36128322  1
  O  O368  1  0.87761674  0.12302045  0.85828525  1
  O  O369  1  0.87670984  0.62550920  0.36357959  1
  O  O370  1  0.87494382  0.62480557  0.86908575  1
  O  O371  1  0.12265523  0.37790423  0.13179019  1
  O  O372  1  0.11774261  0.38605171  0.63345294  1
  O  O373  1  0.11648934  0.89336261  0.13919393  1
  O  O374  1  0.11628977  0.88320109  0.63148341  1
  O  O375  1  0.62365771  0.38280493  0.13209427  1
  O  O376  1  0.62861147  0.38334141  0.63365287  1
  O  O377  1  0.63608189  0.87293222  0.13724394  1
  O  O378  1  0.63190743  0.87929381  0.62832095  1
  O  O379  1  0.11648997  0.25237368  0.26449311  1
  O  O380  1  0.12021022  0.25592610  0.75492709  1
  O  O381  1  0.11728701  0.75686002  0.25898551  1
  O  O382  1  0.12304694  0.75810027  0.75157917  1
  O  O383  1  0.61796731  0.25567577  0.25254442  1
  O  O384  1  0.63243449  0.26715870  0.74560104  1
  O  O385  1  0.62548874  0.75448960  0.25918437  1
  O  O386  1  0.62741975  0.76520111  0.75425818  1
  O  O387  1  0.38812614  0.25865639  0.24205667  1
  O  O388  1  0.35599641  0.23111773  0.75371219  1
  O  O389  1  0.37968048  0.72484530  0.26601955  1
  O  O390  1  0.38180588  0.76170138  0.74704970  1
  O  O391  1  0.87645862  0.24667276  0.25440990  1
  O  O392  1  0.87288610  0.24395678  0.73938088  1
  O  O393  1  0.87867381  0.74105664  0.24233697  1
  O  O394  1  0.87553256  0.74494431  0.74022109  1
  O  O395  1  0.38201753  0.49655608  0.50331235  1
  O  O396  1  0.37149175  0.48551124  0.99301021  1
  O  O397  1  0.38078277  0.98726223  0.48602065  1
  O  O398  1  0.38570772  1.00059050  1.00254650  1
  O  O399  1  0.87860088  0.49225151  0.50193653  1
  O  O400  1  0.88073012  0.49599001  0.99351321  1
  O  O401  1  0.87770181  0.99277901  0.48727700  1
  O  O402  1  0.88162010  1.00082499  1.00535643  1
  O  O403  1  0.12204930  0.00523934  0.00796536  1
  O  O404  1  0.12490827  0.00567359  0.50420108  1
  O  O405  1  0.11405850  0.48575609  0.01264463  1
  O  O406  1  0.11560709  0.49718096  0.51123369  1
  O  O407  1  0.60855675  0.00604219  0.01028790  1
  O  O408  1  0.61670438  -0.01263514  0.50347586  1
  O  O409  1  0.66199471  0.50706451  0.02892838  1
  O  O410  1  0.62258012  0.50901048  0.50425649  1
  O  O411  1  0.37509990  0.36576186  0.12283298  1
  O  O412  1  0.40189586  0.36747898  0.64707635  1
  O  O413  1  0.37074215  0.85834334  0.15962574  1
  O  O414  1  0.37604824  0.86564323  0.61066289  1
  O  O415  1  0.87562374  0.37969925  0.10787115  1
  O  O416  1  0.86550060  0.36647694  0.62354226  1
  O  O417  1  0.86933126  0.86293631  0.13395069  1
  O  O418  1  0.86951188  0.87069374  0.61891333  1
  O  O419  1  0.11202539  0.13434277  0.38433014  1
  O  O420  1  0.11434291  0.13762439  0.87796709  1
  O  O421  1  0.13302204  0.62645069  0.37718331  1
  O  O422  1  0.12571755  0.63426519  0.86655266  1
  O  O423  1  0.63528786  0.13055251  0.36152206  1
  O  O424  1  0.63348625  0.11269880  0.89108160  1
  O  O425  1  0.62624553  0.63209664  0.38818199  1
  O  O426  1  0.63853180  0.64494608  0.86678962  1
