# generated using pymatgen
data_V85Zn86O256
_symmetry_space_group_name_H-M   'P 1'
_cell_length_a   16.94982865
_cell_length_b   16.94030498
_cell_length_c   16.93408537
_cell_angle_alpha   89.98172647
_cell_angle_beta   90.02651598
_cell_angle_gamma   89.92054990
_symmetry_Int_Tables_number   1
_chemical_formula_structural   V85Zn86O256
_chemical_formula_sum   'V85 Zn86 O256'
_cell_volume   4862.36767558
_cell_formula_units_Z   1
loop_
 _symmetry_equiv_pos_site_id
 _symmetry_equiv_pos_as_xyz
  1  'x, y, z'
loop_
 _atom_site_type_symbol
 _atom_site_label
 _atom_site_symmetry_multiplicity
 _atom_site_fract_x
 _atom_site_fract_y
 _atom_site_fract_z
 _atom_site_occupancy
  V  V0  1  0.12025288  0.62372559  0.01307302  1
  V  V1  1  0.75045429  -0.00105559  0.74483053  1
  V  V2  1  0.86947955  0.25251714  0.12688067  1
  V  V3  1  -0.00109151  0.87995610  0.88412208  1
  V  V4  1  0.25029504  0.49880289  0.75048792  1
  V  V5  1  0.37607018  0.37061597  0.00590621  1
  V  V6  1  0.51030258  0.50470096  0.51391387  1
  V  V7  1  0.50296799  0.74227404  0.74735502  1
  V  V8  1  0.25253294  0.50373562  0.27266458  1
  V  V9  1  0.86215147  0.50772210  0.37553476  1
  V  V10  1  0.62613138  0.39353867  0.25059231  1
  V  V11  1  0.37526017  0.49868981  0.87723645  1
  V  V12  1  0.87960544  0.00024869  0.88502424  1
  V  V13  1  0.12271844  0.38060871  0.24999383  1
  V  V14  1  0.62610280  0.87724010  0.25056701  1
  V  V15  1  0.49584482  0.12782527  0.12535933  1
  V  V16  1  0.50898548  0.24906144  0.75546927  1
  V  V17  1  0.49835070  0.37763572  0.37626134  1
  V  V18  1  0.12923709  0.74967443  0.37023870  1
  V  V19  1  0.12545286  0.37544176  0.75099817  1
  V  V20  1  0.75179825  0.38074597  0.61596321  1
  V  V21  1  0.51300596  0.37170714  0.88022898  1
  V  V22  1  0.37594673  0.25002903  0.62550773  1
  V  V23  1  0.75814576  0.75613233  -0.00358008  1
  V  V24  1  -0.00131719  0.37838378  0.87434160  1
  V  V25  1  0.24553320  0.24289965  0.50028746  1
  V  V26  1  0.12651124  0.25095191  0.87882275  1
  V  V27  1  0.88422067  0.75073630  0.12099599  1
  V  V28  1  0.64606742  0.64888169  0.49864108  1
  V  V29  1  0.62392683  0.13337186  0.49499754  1
  V  V30  1  0.62146170  0.12713604  -0.00245713  1
  V  V31  1  0.50085325  0.87416336  0.87686579  1
  V  V32  1  0.78016244  0.78227841  0.50879046  1
  V  V33  1  0.51085324  0.24865455  0.25529362  1
  V  V34  1  0.80829025  -0.05657185  0.30397738  1
  V  V35  1  0.37328668  0.62390497  0.26356057  1
  V  V36  1  -0.01619927  0.00098589  0.48869080  1
  V  V37  1  -0.00532514  0.49935278  0.49898653  1
  V  V38  1  0.75057783  0.62784848  0.86947302  1
  V  V39  1  -0.01032586  0.37583247  0.37623495  1
  V  V40  1  0.87267859  0.37681130  0.00086211  1
  V  V41  1  0.25134749  0.75086979  0.00110915  1
  V  V42  1  0.50489337  0.87094239  0.37518655  1
  V  V43  1  0.62616349  0.38146710  0.74552003  1
  V  V44  1  0.12196569  0.50169950  0.62422278  1
  V  V45  1  -0.03545958  0.78351548  0.72495887  1
  V  V46  1  0.50221233  0.12471764  0.62496149  1
  V  V47  1  0.12132871  0.12678612  0.00165285  1
  V  V48  1  0.24968138  0.37357243  0.62568750  1
  V  V49  1  0.24993048  0.24984494  0.01491833  1
  V  V50  1  0.37884741  0.62168216  0.74581443  1
  V  V51  1  0.87353566  0.50192327  0.87402749  1
  V  V52  1  0.75522898  0.88049543  0.11918347  1
  V  V53  1  0.37393245  0.74833897  0.62396332  1
  V  V54  1  0.37191857  0.13445797  0.24719581  1
  V  V55  1  0.49979342  0.50257192  0.01047211  1
  V  V56  1  0.50557811  0.74680582  0.25161674  1
  V  V57  1  0.12214614  -0.00165880  0.11959451  1
  V  V58  1  0.50184854  0.00051655  0.50005038  1
  V  V59  1  0.62799003  0.75047530  0.87294410  1
  V  V60  1  0.25109289  0.38879548  0.12772453  1
  V  V61  1  0.87554613  0.12655503  0.74706880  1
  V  V62  1  0.87784032  0.61986474  0.73661200  1
  V  V63  1  0.87438482  0.61855393  0.24027172  1
  V  V64  1  0.62648465  0.87557694  0.74241951  1
  V  V65  1  0.37735246  0.12660581  0.75210337  1
  V  V66  1  0.25001612  0.12728385  0.87845426  1
  V  V67  1  0.24958266  0.00197381  0.74957351  1
  V  V68  1  0.74498025  0.12918267  0.87155257  1
  V  V69  1  0.62557135  0.62593772  0.00951168  1
  V  V70  1  0.13368421  0.62414281  0.49310443  1
  V  V71  1  -0.00317378  0.12341366  0.11987209  1
  V  V72  1  0.75896062  0.24882216  0.49697927  1
  V  V73  1  0.37495333  -0.00175826  0.87750817  1
  V  V74  1  0.13007224  0.87498981  0.74624585  1
  V  V75  1  -0.00024463  0.24815875  0.74842463  1
  V  V76  1  0.37501161  0.00143971  0.37297036  1
  V  V77  1  0.12790114  0.00596421  0.61017542  1
  V  V78  1  0.12078373  0.24368332  0.37757097  1
  V  V79  1  0.74500627  0.25026991  -0.00254514  1
  V  V80  1  0.24858212  -0.00075047  0.24790719  1
  V  V81  1  0.37385267  0.38123985  0.49516063  1
  V  V82  1  0.86970088  0.12325089  0.25279171  1
  V  V83  1  0.74385456  0.12660031  0.36723929  1
  V  V84  1  0.12383534  0.74755429  0.86717408  1
  Zn  Zn85  1  0.37604960  0.87246907  0.50036652  1
  Zn  Zn86  1  -0.00233982  0.25045396  0.25096518  1
  Zn  Zn87  1  0.25232440  0.87422266  0.61947066  1
  Zn  Zn88  1  0.00549242  0.12931501  0.61464104  1
  Zn  Zn89  1  0.37678844  0.87097925  0.00320474  1
  Zn  Zn90  1  0.74312352  0.50322966  0.74345892  1
  Zn  Zn91  1  0.37524382  0.74898802  0.12823606  1
  Zn  Zn92  1  0.24864458  0.62482462  0.87549134  1
  Zn  Zn93  1  -0.00846871  0.87396728  0.37397641  1
  Zn  Zn94  1  0.49979601  0.62199113  0.13278367  1
  Zn  Zn95  1  0.87735742  0.25287933  0.62045946  1
  Zn  Zn96  1  0.63244403  -0.00210594  0.61926313  1
  Zn  Zn97  1  0.74539044  0.39631823  0.13841135  1
  Zn  Zn98  1  0.25262755  0.87329186  0.12620046  1
  Zn  Zn99  1  -0.00239133  0.51729502  0.01762024  1
  Zn  Zn100  1  0.25672394  0.74643227  0.49210174  1
  Zn  Zn101  1  0.62741625  0.00188477  0.12696854  1
  Zn  Zn102  1  0.50136254  -0.00223527  0.00348843  1
  Zn  Zn103  1  0.00059593  0.63419740  0.62196404  1
  Zn  Zn104  1  0.12184630  0.87453019  0.24912289  1
  Zn  Zn105  1  0.24208920  0.12112612  0.37874267  1
  Zn  Zn106  1  0.00041192  0.74871926  0.25023302  1
  Zn  Zn107  1  0.18377686  0.18948783  0.19116040  1
  Zn  Zn108  1  0.18736050  0.18628500  0.68806559  1
  Zn  Zn109  1  0.19081752  0.68312471  0.18925998  1
  Zn  Zn110  1  0.18954686  0.68408213  0.68535465  1
  Zn  Zn111  1  0.68541039  0.18858938  0.18425536  1
  Zn  Zn112  1  0.68630827  0.19099607  0.68258524  1
  Zn  Zn113  1  0.69098966  0.69072129  0.18736983  1
  Zn  Zn114  1  0.69073143  0.68629904  0.67349674  1
  Zn  Zn115  1  0.31091160  0.31208475  0.31479841  1
  Zn  Zn116  1  0.31637918  0.31208711  0.81732937  1
  Zn  Zn117  1  0.31360756  0.81231422  0.31248010  1
  Zn  Zn118  1  0.31206007  0.81053721  0.81286288  1
  Zn  Zn119  1  0.80641549  0.31274960  0.31367771  1
  Zn  Zn120  1  0.80933726  0.31370266  0.80998224  1
  Zn  Zn121  1  0.79623280  0.75340465  0.31507636  1
  Zn  Zn122  1  0.81568607  0.81821571  0.80139713  1
  Zn  Zn123  1  0.18117658  0.43010645  0.43964005  1
  Zn  Zn124  1  0.18707318  0.43980666  0.94097023  1
  Zn  Zn125  1  0.19151780  0.92878076  0.43500668  1
  Zn  Zn126  1  0.18600212  0.93651988  0.93862161  1
  Zn  Zn127  1  0.68113057  0.43333757  0.43422752  1
  Zn  Zn128  1  0.70015190  0.45401945  0.96427315  1
  Zn  Zn129  1  0.68922895  0.92460779  0.44373322  1
  Zn  Zn130  1  0.68805412  0.94142145  0.93467713  1
  Zn  Zn131  1  0.31331204  0.06110665  0.06390914  1
  Zn  Zn132  1  0.31452866  0.06199069  0.56207110  1
  Zn  Zn133  1  0.31376691  0.56984793  0.06720569  1
  Zn  Zn134  1  0.31471974  0.56171556  0.56276917  1
  Zn  Zn135  1  0.81094525  0.06467770  0.06282238  1
  Zn  Zn136  1  0.81227961  0.06407829  0.56161889  1
  Zn  Zn137  1  0.81099246  0.56552598  0.06026620  1
  Zn  Zn138  1  0.80566329  0.56521426  0.55472030  1
  Zn  Zn139  1  0.43352822  0.43728876  0.19161214  1
  Zn  Zn140  1  0.43770570  0.43342049  0.68837976  1
  Zn  Zn141  1  0.43701663  0.93768615  0.18578578  1
  Zn  Zn142  1  0.43920907  0.93501506  0.68826959  1
  Zn  Zn143  1  0.93416768  0.44060919  0.18935701  1
  Zn  Zn144  1  0.93303516  0.43719028  0.68413998  1
  Zn  Zn145  1  0.94510988  0.93094588  0.18047130  1
  Zn  Zn146  1  0.94275922  0.95067343  0.68626773  1
  Zn  Zn147  1  0.05781316  0.06170281  0.30801460  1
  Zn  Zn148  1  0.06327349  0.06129877  0.81105684  1
  Zn  Zn149  1  0.05909544  0.56465851  0.31023950  1
  Zn  Zn150  1  0.05826892  0.56389787  0.81093646  1
  Zn  Zn151  1  0.56370072  0.05885095  0.31044227  1
  Zn  Zn152  1  0.56433078  0.06076834  0.81455122  1
  Zn  Zn153  1  0.55780587  0.56213507  0.32685760  1
  Zn  Zn154  1  0.56262022  0.56044104  0.81871399  1
  Zn  Zn155  1  0.43441556  0.19046104  0.43461347  1
  Zn  Zn156  1  0.43658575  0.18987436  0.93946369  1
  Zn  Zn157  1  0.44564379  0.68382510  0.43776052  1
  Zn  Zn158  1  0.43747439  0.68566594  0.93565860  1
  Zn  Zn159  1  0.93796260  0.17952479  0.43457391  1
  Zn  Zn160  1  0.93505108  0.18933111  0.93644428  1
  Zn  Zn161  1  0.94044415  0.68654899  0.43748552  1
  Zn  Zn162  1  0.94021936  0.69269200  0.92737120  1
  Zn  Zn163  1  0.04444082  0.34290034  0.08032840  1
  Zn  Zn164  1  0.06104601  0.31555417  0.56039524  1
  Zn  Zn165  1  0.06836610  0.81090780  0.06133316  1
  Zn  Zn166  1  0.06366247  0.81787993  0.55360589  1
  Zn  Zn167  1  0.56256161  0.30958183  0.07049159  1
  Zn  Zn168  1  0.56472220  0.31452730  0.56280759  1
  Zn  Zn169  1  0.56584534  0.80975949  0.06601116  1
  Zn  Zn170  1  0.55836804  0.81021438  0.56561351  1
  O  O171  1  0.11475855  0.12337848  0.12166824  1
  O  O172  1  0.12412541  0.10966136  0.63154508  1
  O  O173  1  0.12301782  0.62730056  0.11191147  1
  O  O174  1  0.12284817  0.61555042  0.61931848  1
  O  O175  1  0.61732040  0.12247566  0.11691368  1
  O  O176  1  0.61847822  0.12147984  0.61549989  1
  O  O177  1  0.62495672  0.63015170  0.11266771  1
  O  O178  1  0.63050056  0.62424042  0.59885821  1
  O  O179  1  0.38096709  0.36817679  0.38611689  1
  O  O180  1  0.38183732  0.38123183  0.88707632  1
  O  O181  1  0.38550341  0.88748719  0.37246150  1
  O  O182  1  0.38301046  0.88161537  0.87536404  1
  O  O183  1  0.88479431  0.38522571  0.36468685  1
  O  O184  1  0.87931178  0.38497588  0.87393102  1
  O  O185  1  0.86762056  0.88319598  0.35498557  1
  O  O186  1  0.89080080  0.88429421  0.86908883  1
  O  O187  1  0.25686051  0.00230572  0.36841996  1
  O  O188  1  0.25670480  0.00612942  0.87159498  1
  O  O189  1  0.25106624  0.49406835  0.37061914  1
  O  O190  1  0.26205494  0.49756786  0.87092829  1
  O  O191  1  0.75207330  0.00034510  0.36986842  1
  O  O192  1  0.75735181  0.01050435  0.86615634  1
  O  O193  1  0.76475395  0.49355230  0.38213790  1
  O  O194  1  0.75865683  0.50860071  0.87387939  1
  O  O195  1  0.24939601  0.49000600  0.12529707  1
  O  O196  1  0.24363222  0.49269946  0.63134375  1
  O  O197  1  0.24259888  1.00035179  0.13223281  1
  O  O198  1  0.24303770  1.00060582  0.63005976  1
  O  O199  1  0.73630259  0.48575965  0.07274529  1
  O  O200  1  0.75219988  0.48443362  0.62160420  1
  O  O201  1  0.74922912  0.98520020  0.11630580  1
  O  O202  1  0.75015162  1.00823216  0.64082290  1
  O  O203  1  0.00795241  0.37418319  0.25883867  1
  O  O204  1  0.00254035  0.36848462  0.75747465  1
  O  O205  1  0.00507297  0.87034608  0.25432947  1
  O  O206  1  0.01889738  0.88140189  0.75714806  1
  O  O207  1  0.50255288  0.36849457  0.25626240  1
  O  O208  1  0.50561019  0.36752570  0.75843603  1
  O  O209  1  0.50656493  0.86897493  0.25580361  1
  O  O210  1  0.50538288  0.86828527  0.76127243  1
  O  O211  1  0.49374528  0.13029827  0.24604957  1
  O  O212  1  0.49739116  0.13164915  0.74855394  1
  O  O213  1  0.49579151  0.63055564  0.25427269  1
  O  O214  1  0.49362662  0.63194540  0.75721237  1
  O  O215  1  0.98876558  0.12815913  0.23827660  1
  O  O216  1  0.99333130  0.13270866  0.74872171  1
  O  O217  1  0.98151186  0.62548371  0.24870562  1
  O  O218  1  0.98850925  0.62408034  0.74237672  1
  O  O219  1  0.36338975  0.26022059  -0.00488226  1
  O  O220  1  0.36753678  0.25669508  0.50718662  1
  O  O221  1  0.36464649  0.74805493  -0.00122385  1
  O  O222  1  0.37913849  0.74639059  0.51132661  1
  O  O223  1  0.86575959  0.25229015  0.00701842  1
  O  O224  1  0.86305360  0.24192597  0.49984220  1
  O  O225  1  0.86577239  0.74206284  0.00284053  1
  O  O226  1  0.87944459  0.75845636  0.50164366  1
  O  O227  1  0.13348598  0.25660324  0.49206005  1
  O  O228  1  0.13401835  0.24548832  0.99517985  1
  O  O229  1  0.12727707  0.74091664  0.49104899  1
  O  O230  1  0.13067996  0.74093519  0.98982794  1
  O  O231  1  0.63154418  0.23685228  0.50248384  1
  O  O232  1  0.63114058  0.23918558  1.00444720  1
  O  O233  1  0.61733577  0.74745321  0.49595172  1
  O  O234  1  0.63113689  0.74337450  0.99233239  1
  O  O235  1  0.49905063  0.23655026  0.13577701  1
  O  O236  1  0.49601318  0.24445220  0.63371471  1
  O  O237  1  0.50022702  0.74829777  0.14009451  1
  O  O238  1  0.48979318  0.75317995  0.64081579  1
  O  O239  1  0.98358115  0.24859555  0.12749520  1
  O  O240  1  1.00032514  0.25027828  0.63482769  1
  O  O241  1  0.98698410  0.75531131  0.11932530  1
  O  O242  1  1.00948044  0.75354064  0.63562673  1
  O  O243  1  0.00262445  0.25782929  0.37551787  1
  O  O244  1  0.00535194  0.25308930  0.86285996  1
  O  O245  1  0.01334355  0.75239406  0.37455832  1
  O  O246  1  0.00471292  0.76596699  0.85772690  1
  O  O247  1  0.49500685  0.25961404  0.36593740  1
  O  O248  1  0.49355237  0.25965353  0.86693838  1
  O  O249  1  0.49521310  0.76063031  0.36451874  1
  O  O250  1  0.50466790  0.75609116  0.86606522  1
  O  O251  1  0.25535156  0.13889178  0.49884922  1
  O  O252  1  0.24660466  0.13376207  0.99744889  1
  O  O253  1  0.23777502  0.62444533  0.50476342  1
  O  O254  1  0.24006557  0.63387246  0.99694431  1
  O  O255  1  0.74298892  0.12875304  0.49154707  1
  O  O256  1  0.74289937  0.13256088  0.99252556  1
  O  O257  1  0.75047280  0.64113335  0.49308373  1
  O  O258  1  0.74209562  0.63738357  0.98928538  1
  O  O259  1  0.25485745  0.37063927  0.00820015  1
  O  O260  1  0.25591092  0.36601569  0.50556460  1
  O  O261  1  0.24959032  0.86117123  -0.00157961  1
  O  O262  1  0.25907689  0.86687967  0.50202000  1
  O  O263  1  0.75784266  0.35540447  -0.01868291  1
  O  O264  1  0.74213808  0.36413136  0.50895793  1
  O  O265  1  0.74305218  0.86473497  0.00352555  1
  O  O266  1  0.76394272  0.88406945  0.51691706  1
  O  O267  1  0.13845393  0.49272849  0.25834700  1
  O  O268  1  0.12906879  0.49374020  0.74611910  1
  O  O269  1  0.13280973  1.00391617  0.23846428  1
  O  O270  1  0.13319962  0.99473790  0.74456389  1
  O  O271  1  0.61630307  0.49231380  0.25168572  1
  O  O272  1  0.62343869  0.48573139  0.75487410  1
  O  O273  1  0.62139074  0.98402752  0.24517712  1
  O  O274  1  0.63271534  0.99356547  0.74961067  1
  O  O275  1  0.36886749  0.00843245  0.25591926  1
  O  O276  1  0.37150929  0.00458309  0.76016742  1
  O  O277  1  0.36028355  0.50468274  0.25065335  1
  O  O278  1  0.37302453  0.50271270  0.75725916  1
  O  O279  1  0.86918653  0.00388330  0.24370293  1
  O  O280  1  0.86930349  0.01107380  0.75759388  1
  O  O281  1  0.87035129  0.50996112  0.25529676  1
  O  O282  1  0.87041849  0.50490984  0.75669079  1
  O  O283  1  0.11514521  0.36652958  0.36734715  1
  O  O284  1  0.11746612  0.37197423  0.87158719  1
  O  O285  1  0.12428983  0.86077382  0.37163631  1
  O  O286  1  0.11952463  0.86888381  0.86838996  1
  O  O287  1  0.61315341  0.37391104  0.36116921  1
  O  O288  1  0.61378189  0.37719704  0.87206727  1
  O  O289  1  0.61104206  0.88403410  0.36855576  1
  O  O290  1  0.61750732  0.87120727  0.86706046  1
  O  O291  1  0.38225637  0.12075200  0.13485150  1
  O  O292  1  0.38145909  0.12998259  0.63287723  1
  O  O293  1  0.37917675  0.62808683  0.13923690  1
  O  O294  1  0.37289941  0.62852648  0.63943491  1
  O  O295  1  0.87704089  0.13041345  0.13216962  1
  O  O296  1  0.87818936  0.12843976  0.63720872  1
  O  O297  1  0.87094557  0.62972047  0.13192093  1
  O  O298  1  0.87558377  0.61708790  0.63380406  1
  O  O299  1  0.24817634  0.25666078  0.11755203  1
  O  O300  1  0.25292519  0.25417085  0.61988743  1
  O  O301  1  0.24933631  0.75118707  0.11558864  1
  O  O302  1  0.26485157  0.74982989  0.62733361  1
  O  O303  1  0.75689206  0.24857889  0.11401356  1
  O  O304  1  0.75273882  0.25586735  0.61468372  1
  O  O305  1  0.75869367  0.75914750  0.11416222  1
  O  O306  1  0.74821552  0.75506276  0.60432761  1
  O  O307  1  0.23976268  0.24926123  0.38347286  1
  O  O308  1  0.24476932  0.24591299  0.88305578  1
  O  O309  1  0.23613218  0.75064778  0.37373853  1
  O  O310  1  0.24098459  0.74841546  0.88042769  1
  O  O311  1  0.75039847  0.23783833  0.38256318  1
  O  O312  1  0.75643652  0.23523800  0.87870576  1
  O  O313  1  0.74475850  0.77683025  0.40730852  1
  O  O314  1  0.74787646  0.74933240  0.87845372  1
  O  O315  1  0.00306525  0.13385414  0.01240870  1
  O  O316  1  0.00053820  0.10991227  0.49976802  1
  O  O317  1  0.01500941  0.63011808  -0.00731102  1
  O  O318  1  0.00987727  0.61358282  0.50302244  1
  O  O319  1  0.50519835  0.12691328  0.00674736  1
  O  O320  1  0.50579081  0.12113968  0.50127463  1
  O  O321  1  0.50535664  0.61959882  0.00308396  1
  O  O322  1  0.49324430  0.60477755  0.50397997  1
  O  O323  1  0.49140363  0.37181465  0.49417321  1
  O  O324  1  0.49476853  0.37851407  0.99801486  1
  O  O325  1  0.49727222  0.88395046  0.49291360  1
  O  O326  1  0.50227632  0.87344434  0.98783517  1
  O  O327  1  1.00369908  0.38813375  0.49033643  1
  O  O328  1  0.98730844  0.35682509  0.97887694  1
  O  O329  1  1.00534295  0.89498501  0.49401428  1
  O  O330  1  1.00793809  0.87199949  0.98219179  1
  O  O331  1  0.49550589  0.48292530  0.38862444  1
  O  O332  1  0.48814155  0.49054986  0.88124671  1
  O  O333  1  0.49266095  0.99642514  0.38118666  1
  O  O334  1  0.49220861  0.99156085  0.87594440  1
  O  O335  1  0.99280987  0.49350406  0.38024628  1
  O  O336  1  0.99313219  0.49051770  0.87492021  1
  O  O337  1  1.00059678  0.99968757  0.38446894  1
  O  O338  1  0.99528683  0.99005275  0.87201506  1
  O  O339  1  0.00886479  0.01120472  0.12472446  1
  O  O340  1  0.01309128  0.00302696  0.61389031  1
  O  O341  1  0.00713701  0.45165795  0.10692026  1
  O  O342  1  0.00579953  0.49552445  0.61575771  1
  O  O343  1  0.50192505  0.01269641  0.12278885  1
  O  O344  1  0.49783537  0.00728371  0.61601923  1
  O  O345  1  0.49628499  0.49913044  0.11341265  1
  O  O346  1  0.49955546  0.48754693  0.61290276  1
  O  O347  1  0.24819932  0.38572043  0.24709712  1
  O  O348  1  0.24622599  0.37849945  0.74742587  1
  O  O349  1  0.24828181  0.88925389  0.24971558  1
  O  O350  1  0.24353098  0.88344434  0.75023968  1
  O  O351  1  0.73168375  0.37668817  0.25322406  1
  O  O352  1  0.74085050  0.37529914  0.74067457  1
  O  O353  1  0.74735558  0.87576187  0.24547681  1
  O  O354  1  0.73682683  0.88725027  0.75845248  1
  O  O355  1  0.25631907  0.11714017  0.25090814  1
  O  O356  1  0.25736624  0.12223048  0.75847062  1
  O  O357  1  0.25503805  0.60951428  0.25121291  1
  O  O358  1  0.25880516  0.61499224  0.75360237  1
  O  O359  1  0.75313616  0.12653817  0.25627512  1
  O  O360  1  0.75457705  0.12380548  0.75526718  1
  O  O361  1  0.77010251  0.64594490  0.25823844  1
  O  O362  1  0.75563199  0.62309966  0.75224855  1
  O  O363  1  0.37327959  0.11454416  0.36723969  1
  O  O364  1  0.37150439  0.11789211  0.87127384  1
  O  O365  1  0.37741287  0.62591738  0.36373135  1
  O  O366  1  0.37389159  0.61485306  0.86577853  1
  O  O367  1  0.86592252  0.12528797  0.35887971  1
  O  O368  1  0.87089539  0.12033676  0.86487788  1
  O  O369  1  0.87829562  0.61272562  0.36570615  1
  O  O370  1  0.87274962  0.61332203  0.87026899  1
  O  O371  1  0.13886298  0.36515095  0.14393640  1
  O  O372  1  0.13033326  0.38091669  0.63172888  1
  O  O373  1  0.12838480  0.88532280  0.12535376  1
  O  O374  1  0.12952892  0.88734095  0.63099679  1
  O  O375  1  0.62262416  0.37031603  0.14621065  1
  O  O376  1  0.63814686  0.36743606  0.63457627  1
  O  O377  1  0.63619353  0.87539183  0.13217594  1
  O  O378  1  0.61348267  0.88069875  0.63911039  1
  O  O379  1  0.12277183  0.25990316  0.26011963  1
  O  O380  1  0.11932467  0.25569383  0.75621952  1
  O  O381  1  0.12344415  0.74610256  0.25882487  1
  O  O382  1  0.13381629  0.76118320  0.75456207  1
  O  O383  1  0.61233847  0.24864031  0.25134661  1
  O  O384  1  0.61399049  0.25749758  0.74885919  1
  O  O385  1  0.61928401  0.76225553  0.24880784  1
  O  O386  1  0.61999927  0.75518780  0.75092193  1
  O  O387  1  0.37907402  0.23736623  0.25532130  1
  O  O388  1  0.38443150  0.24624715  0.74605159  1
  O  O389  1  0.38187072  0.74139499  0.25103131  1
  O  O390  1  0.38237164  0.73999116  0.74870368  1
  O  O391  1  0.87077268  0.24220330  0.24234799  1
  O  O392  1  0.88433964  0.24392612  0.75072026  1
  O  O393  1  0.88077064  0.74175457  0.23834393  1
  O  O394  1  0.87853753  0.72743143  0.76707762  1
  O  O395  1  0.37848280  0.48397907  0.50771224  1
  O  O396  1  0.37989299  0.49628943  0.99394429  1
  O  O397  1  0.38578961  1.00234703  0.49147233  1
  O  O398  1  0.37665048  0.99809090  0.98751079  1
  O  O399  1  0.88276324  0.50613707  0.48668307  1
  O  O400  1  0.88242005  0.49490503  0.98931944  1
  O  O401  1  0.88528001  1.00184010  0.50082841  1
  O  O402  1  0.87183501  1.00854568  0.98404027  1
  O  O403  1  0.13314661  0.01095584  0.01133766  1
  O  O404  1  0.13295870  0.00056920  0.50992185  1
  O  O405  1  0.12400462  0.52132187  -0.01045349  1
  O  O406  1  0.11919981  0.50474330  0.50421608  1
  O  O407  1  0.62284975  0.01399147  -0.00043460  1
  O  O408  1  0.61405772  0.00678756  0.50006044  1
  O  O409  1  0.60654637  0.51656544  -0.01822194  1
  O  O410  1  0.61024024  0.48908025  0.50332133  1
  O  O411  1  0.36837056  0.37724534  0.11376526  1
  O  O412  1  0.36752313  0.36609562  0.62163708  1
  O  O413  1  0.37221758  0.87067084  0.12073974  1
  O  O414  1  0.37435378  0.86377026  0.62649366  1
  O  O415  1  0.86189690  0.36687187  0.12199259  1
  O  O416  1  0.85692897  0.36945534  0.62948661  1
  O  O417  1  0.86633783  0.86548314  0.12495481  1
  O  O418  1  0.88887395  0.85134639  0.69163059  1
  O  O419  1  0.12297289  0.13988234  0.36690400  1
  O  O420  1  0.12957850  0.12960243  0.88133343  1
  O  O421  1  0.12053315  0.63451565  0.38227878  1
  O  O422  1  0.12456094  0.63993968  0.86905305  1
  O  O423  1  0.63516715  0.11740031  0.38050902  1
  O  O424  1  0.63361955  0.12347836  0.88203146  1
  O  O425  1  0.61785781  0.61452340  0.40461589  1
  O  O426  1  0.63106597  0.63457151  0.87761389  1
