# generated using pymatgen
data_V85Zn86O256
_symmetry_space_group_name_H-M   'P 1'
_cell_length_a   16.95336967
_cell_length_b   16.94703499
_cell_length_c   16.92831248
_cell_angle_alpha   89.90928152
_cell_angle_beta   89.97745334
_cell_angle_gamma   89.93073347
_symmetry_Int_Tables_number   1
_chemical_formula_structural   V85Zn86O256
_chemical_formula_sum   'V85 Zn86 O256'
_cell_volume   4863.65241704
_cell_formula_units_Z   1
loop_
 _symmetry_equiv_pos_site_id
 _symmetry_equiv_pos_as_xyz
  1  'x, y, z'
loop_
 _atom_site_type_symbol
 _atom_site_label
 _atom_site_symmetry_multiplicity
 _atom_site_fract_x
 _atom_site_fract_y
 _atom_site_fract_z
 _atom_site_occupancy
  V  V0  1  0.74533984  0.37896438  0.13496747  1
  V  V1  1  0.63154537  0.12333252  0.00014505  1
  V  V2  1  0.00153874  0.50735188  0.01358295  1
  V  V3  1  0.86820810  -0.00180071  0.87668296  1
  V  V4  1  0.74984575  0.62102193  0.36835777  1
  V  V5  1  0.87819512  0.87355436  0.50651876  1
  V  V6  1  0.48080760  0.25322682  0.24716291  1
  V  V7  1  0.50266894  0.49827044  0.49222056  1
  V  V8  1  0.25308960  0.00428437  0.25146729  1
  V  V9  1  0.25036914  0.74891998  -0.00340804  1
  V  V10  1  0.75327565  -0.00141915  0.25174384  1
  V  V11  1  0.75067083  0.37420358  0.62572118  1
  V  V12  1  0.88491582  0.61949645  0.24909905  1
  V  V13  1  0.25230332  0.50297304  0.75282494  1
  V  V14  1  0.37576975  0.00557043  0.37255342  1
  V  V15  1  0.63130185  0.25008269  0.87847607  1
  V  V16  1  0.51078460  0.62738990  0.12024336  1
  V  V17  1  0.74440006  0.74387670  0.00059290  1
  V  V18  1  0.87732791  0.12427467  0.24513524  1
  V  V19  1  0.87419780  0.73179034  0.63117161  1
  V  V20  1  0.37890852  0.87727344  -0.00211547  1
  V  V21  1  0.11714325  0.50812418  0.62753983  1
  V  V22  1  0.00185484  0.12587344  0.12125751  1
  V  V23  1  0.37710535  0.74826858  0.13000431  1
  V  V24  1  0.74863226  0.75040358  0.49611567  1
  V  V25  1  0.13142871  0.24356211  0.87689375  1
  V  V26  1  -0.00109707  0.37675873  0.87671882  1
  V  V27  1  0.51089739  0.50602833  -0.00352905  1
  V  V28  1  0.37777417  0.37929165  0.49254570  1
  V  V29  1  0.87419055  0.37214835  0.00642821  1
  V  V30  1  0.00239610  0.11603544  0.62589055  1
  V  V31  1  0.36900335  0.12444769  0.74943569  1
  V  V32  1  0.87632498  0.50705718  0.87289931  1
  V  V33  1  0.25327753  0.13222277  0.36826546  1
  V  V34  1  0.62884117  0.87095586  0.25648815  1
  V  V35  1  0.00754996  0.87442535  0.86912252  1
  V  V36  1  0.74865274  0.25310092  0.49871877  1
  V  V37  1  0.37210739  0.87338573  0.50601776  1
  V  V38  1  0.12437778  0.87354869  0.25420884  1
  V  V39  1  0.25375722  0.87739276  0.12671922  1
  V  V40  1  0.49855547  0.25581645  0.74812731  1
  V  V41  1  0.86820689  0.12596471  0.75672194  1
  V  V42  1  0.87514467  0.49357366  0.37046832  1
  V  V43  1  0.13619046  0.74438350  0.38003848  1
  V  V44  1  0.74123202  0.62308065  0.87885884  1
  V  V45  1  -0.00153208  0.24956620  0.25158594  1
  V  V46  1  0.75227399  0.50697936  0.74966274  1
  V  V47  1  0.62734060  0.62673306  0.49674832  1
  V  V48  1  0.49434209  0.62598200  0.62433546  1
  V  V49  1  0.88276577  0.37141487  0.49642757  1
  V  V50  1  0.75686596  0.24778586  0.00375186  1
  V  V51  1  0.50388849  0.00322627  0.50284640  1
  V  V52  1  0.12227362  0.37769255  0.74986717  1
  V  V53  1  0.24922292  0.38152066  0.62048329  1
  V  V54  1  0.12326379  0.26252162  0.37382692  1
  V  V55  1  0.62471405  0.87836895  0.74567128  1
  V  V56  1  0.62575313  0.25527368  0.36131874  1
  V  V57  1  0.49899088  0.75124088  0.75085907  1
  V  V58  1  0.75275323  0.87470186  0.12241418  1
  V  V59  1  0.62303181  0.37468465  0.75345667  1
  V  V60  1  0.87500597  0.24933092  0.62517337  1
  V  V61  1  0.23425648  0.87237338  0.62543347  1
  V  V62  1  0.50572075  0.87723481  0.37781546  1
  V  V63  1  0.62371442  0.49999656  0.62526539  1
  V  V64  1  0.88066656  -0.00104936  0.37834373  1
  V  V65  1  0.26916926  0.37157464  0.11258684  1
  V  V66  1  -0.00297924  0.50733613  0.50055570  1
  V  V67  1  0.24997073  0.25284213  0.49898691  1
  V  V68  1  0.74502450  0.00272269  0.74499896  1
  V  V69  1  0.50015869  0.74910911  0.25245187  1
  V  V70  1  0.62701888  0.12442198  0.50148094  1
  V  V71  1  0.50411709  0.12252668  0.62657249  1
  V  V72  1  0.37682304  0.50257109  0.88825156  1
  V  V73  1  0.87730319  0.74446590  0.12737109  1
  V  V74  1  0.13146976  0.62620301  0.49957308  1
  V  V75  1  0.11860862  0.37870369  0.23136635  1
  V  V76  1  0.23696405  0.00076140  0.74322437  1
  V  V77  1  0.00234586  0.73644245  0.74862807  1
  V  V78  1  0.12654560  0.12069771  0.50161806  1
  V  V79  1  0.36862481  0.00026772  0.87191006  1
  V  V80  1  0.44319631  0.32623499  0.93363900  1
  V  V81  1  0.62737560  0.00202456  0.12588973  1
  V  V82  1  0.12530650  -0.00154298  0.12281724  1
  V  V83  1  0.48919584  0.12354065  0.13277143  1
  V  V84  1  -0.00261557  0.25058610  0.75009229  1
  Zn  Zn85  1  0.00250437  0.87019528  0.37915154  1
  Zn  Zn86  1  0.87829906  0.87056092  -0.00321473  1
  Zn  Zn87  1  0.36812753  0.75184830  0.62523154  1
  Zn  Zn88  1  0.74728987  0.87787309  0.62409496  1
  Zn  Zn89  1  0.00677865  -0.00494683  0.50578954  1
  Zn  Zn90  1  0.00484098  0.74311908  0.25040309  1
  Zn  Zn91  1  0.24144272  0.49463758  0.24245245  1
  Zn  Zn92  1  0.33325954  0.57431037  0.31709175  1
  Zn  Zn93  1  0.13173897  0.75127033  0.86666985  1
  Zn  Zn94  1  0.00022199  -0.00664023  -0.00122710  1
  Zn  Zn95  1  0.50280228  -0.00060687  -0.00108032  1
  Zn  Zn96  1  0.37327668  0.62607069  0.75300174  1
  Zn  Zn97  1  0.12511977  0.61900765  0.00925876  1
  Zn  Zn98  1  0.50217060  0.38660235  0.35690740  1
  Zn  Zn99  1  0.50215225  0.87781020  0.87355031  1
  Zn  Zn100  1  0.37383772  0.25113914  0.62344646  1
  Zn  Zn101  1  0.26271283  0.24490422  0.00143031  1
  Zn  Zn102  1  0.13239930  0.12007524  -0.00536123  1
  Zn  Zn103  1  0.75104081  0.12510689  0.37463383  1
  Zn  Zn104  1  0.62273063  0.74925001  0.87728513  1
  Zn  Zn105  1  0.24839950  0.62384577  0.88152515  1
  Zn  Zn106  1  0.62691594  0.50037878  0.13796378  1
  Zn  Zn107  1  0.18992844  0.19135846  0.18358875  1
  Zn  Zn108  1  0.18571000  0.18929106  0.68713519  1
  Zn  Zn109  1  0.18366599  0.68361803  0.18671675  1
  Zn  Zn110  1  0.18512179  0.68620031  0.68378430  1
  Zn  Zn111  1  0.69364094  0.18745736  0.18267911  1
  Zn  Zn112  1  0.68670733  0.18647976  0.68802310  1
  Zn  Zn113  1  0.68882124  0.68898917  0.19088696  1
  Zn  Zn114  1  0.68555651  0.68922595  0.68641627  1
  Zn  Zn115  1  0.31173740  0.33488580  0.30708303  1
  Zn  Zn116  1  0.30788801  0.31310230  0.80577080  1
  Zn  Zn117  1  0.31401095  0.81410343  0.31647775  1
  Zn  Zn118  1  0.31359042  0.81578920  0.80764767  1
  Zn  Zn119  1  0.81792405  0.30586411  0.31405313  1
  Zn  Zn120  1  0.81052287  0.31519354  0.81724876  1
  Zn  Zn121  1  0.81632809  0.80941908  0.31591292  1
  Zn  Zn122  1  0.81275451  0.81275133  0.81118124  1
  Zn  Zn123  1  0.19047941  0.44735937  0.43280147  1
  Zn  Zn124  1  0.18681535  0.43578365  0.94421172  1
  Zn  Zn125  1  0.18997709  0.93708562  0.43909558  1
  Zn  Zn126  1  0.18899947  0.93349670  0.93497010  1
  Zn  Zn127  1  0.69049287  0.43781090  0.31416748  1
  Zn  Zn128  1  0.68681238  0.43304457  0.93829257  1
  Zn  Zn129  1  0.69134943  0.94043355  0.43963715  1
  Zn  Zn130  1  0.68883477  0.93482158  0.93324076  1
  Zn  Zn131  1  0.30842263  0.06495383  0.05706157  1
  Zn  Zn132  1  0.31286009  0.06111578  0.56341771  1
  Zn  Zn133  1  0.29675058  0.57861313  0.10318827  1
  Zn  Zn134  1  0.33580944  0.58953709  0.50424946  1
  Zn  Zn135  1  0.81528687  0.06095757  0.06148970  1
  Zn  Zn136  1  0.81359993  0.06355748  0.56443069  1
  Zn  Zn137  1  0.81386219  0.56034461  0.06228226  1
  Zn  Zn138  1  0.80971397  0.55821224  0.55770930  1
  Zn  Zn139  1  0.43509426  0.44333364  0.18341445  1
  Zn  Zn140  1  0.43294890  0.43996550  0.68438518  1
  Zn  Zn141  1  0.43945122  0.93929060  0.18945809  1
  Zn  Zn142  1  0.43711017  0.93923946  0.68712577  1
  Zn  Zn143  1  0.93327933  0.43289326  0.18862032  1
  Zn  Zn144  1  0.93548013  0.44010062  0.68748686  1
  Zn  Zn145  1  0.94060172  0.93510546  0.18762439  1
  Zn  Zn146  1  0.93567472  0.93417788  0.69143349  1
  Zn  Zn147  1  0.06572272  0.06399094  0.31455102  1
  Zn  Zn148  1  0.05591132  0.06161512  0.81171054  1
  Zn  Zn149  1  0.06392996  0.55745949  0.31911770  1
  Zn  Zn150  1  0.06684590  0.56741195  0.82194573  1
  Zn  Zn151  1  0.56527744  0.06540056  0.31243749  1
  Zn  Zn152  1  0.56114831  0.06386260  0.81388748  1
  Zn  Zn153  1  0.56160475  0.56983730  0.31185936  1
  Zn  Zn154  1  0.56020171  0.56263795  0.81185816  1
  Zn  Zn155  1  0.43776791  0.19271286  0.43543436  1
  Zn  Zn156  1  0.44362974  0.16206182  0.93501699  1
  Zn  Zn157  1  0.44860973  0.69809557  0.43754166  1
  Zn  Zn158  1  0.43555402  0.68538412  0.93800336  1
  Zn  Zn159  1  0.94038047  0.18498786  0.43529048  1
  Zn  Zn160  1  0.94109161  0.18523451  0.93857979  1
  Zn  Zn161  1  0.94135031  0.68810849  0.43419620  1
  Zn  Zn162  1  0.93265338  0.68844063  0.93476769  1
  Zn  Zn163  1  0.05630934  0.30724685  0.05912902  1
  Zn  Zn164  1  0.06233864  0.31171945  0.56292067  1
  Zn  Zn165  1  0.07335202  0.78746719  0.07128409  1
  Zn  Zn166  1  0.05812884  0.80577538  0.56480568  1
  Zn  Zn167  1  0.56657662  0.30712597  0.07329403  1
  Zn  Zn168  1  0.56378844  0.31152130  0.56136549  1
  Zn  Zn169  1  0.56569018  0.81499823  0.06343165  1
  Zn  Zn170  1  0.56453281  0.81290041  0.56574696  1
  O  O171  1  0.11886010  0.11340946  0.12679143  1
  O  O172  1  0.11415825  0.13463045  0.61483587  1
  O  O173  1  0.10936172  0.67839185  0.10405021  1
  O  O174  1  0.11832965  0.61305822  0.62206004  1
  O  O175  1  0.62218752  0.11891897  0.11964451  1
  O  O176  1  0.61617978  0.13218258  0.61508927  1
  O  O177  1  0.61478251  0.62638358  0.12996566  1
  O  O178  1  0.61752577  0.62049435  0.61887964  1
  O  O179  1  0.38409490  0.36854623  0.38889932  1
  O  O180  1  0.37999501  0.37937219  0.87159543  1
  O  O181  1  0.38253153  0.88493438  0.38407939  1
  O  O182  1  0.37918877  0.88181703  0.88118089  1
  O  O183  1  0.86920008  0.38039516  0.38472696  1
  O  O184  1  0.88014918  0.38246113  0.88457739  1
  O  O185  1  0.87686410  0.88055921  0.38758925  1
  O  O186  1  0.87973307  0.88336134  0.87456889  1
  O  O187  1  0.25763732  0.00986565  0.37240237  1
  O  O188  1  0.26031747  -0.00853616  0.86010876  1
  O  O189  1  0.24026906  0.50945835  0.35870202  1
  O  O190  1  0.25704485  0.49725834  0.86974475  1
  O  O191  1  0.76371840  0.00201574  0.37015655  1
  O  O192  1  0.76178595  -0.00258123  0.86538566  1
  O  O193  1  0.76292421  0.50738892  0.37733556  1
  O  O194  1  0.75458943  0.50335113  0.87013480  1
  O  O195  1  0.24772194  0.47650331  0.12023958  1
  O  O196  1  0.23735119  0.48874949  0.63350661  1
  O  O197  1  0.24571426  0.99640270  0.13211551  1
  O  O198  1  0.25103739  0.99334827  0.63608934  1
  O  O199  1  0.74857196  0.48297069  0.11925346  1
  O  O200  1  0.74525935  0.49529532  0.63216602  1
  O  O201  1  0.74779127  0.99200408  0.13131347  1
  O  O202  1  0.75443300  1.00001624  0.64010930  1
  O  O203  1  0.00497279  0.35933221  0.24287293  1
  O  O204  1  0.00157053  0.37071095  0.75774980  1
  O  O205  1  0.01625686  0.87669978  0.25337725  1
  O  O206  1  -0.00916099  0.86275256  0.76219834  1
  O  O207  1  0.49855813  0.35679907  0.24264623  1
  O  O208  1  0.50321210  0.36201833  0.74086329  1
  O  O209  1  0.51009189  0.87301544  0.25751915  1
  O  O210  1  0.50580239  0.86849746  0.74935572  1
  O  O211  1  0.50243365  0.13186808  0.23961854  1
  O  O212  1  0.49497603  0.13558481  0.74430987  1
  O  O213  1  0.50116231  0.64389557  0.24643295  1
  O  O214  1  0.49785982  0.63143408  0.74046511  1
  O  O215  1  0.99632227  0.12857688  0.24413677  1
  O  O216  1  0.99014391  0.13088284  0.74328824  1
  O  O217  1  0.98842460  0.62283906  0.25447145  1
  O  O218  1  0.99438682  0.63783193  0.76034895  1
  O  O219  1  0.38749064  0.25601897  -0.01818424  1
  O  O220  1  0.36812712  0.25834773  0.50299542  1
  O  O221  1  0.37034203  0.76007231  0.00487832  1
  O  O222  1  0.38509163  0.77078773  0.50550027  1
  O  O223  1  0.86811111  0.25695438  -0.00655056  1
  O  O224  1  0.87126210  0.25361332  0.50175467  1
  O  O225  1  0.86387607  0.74944527  0.00909750  1
  O  O226  1  0.87270797  0.75481736  0.51033963  1
  O  O227  1  0.12955833  0.24527593  0.49141954  1
  O  O228  1  0.11837465  0.24968831  0.98164799  1
  O  O229  1  0.11786224  0.74112474  0.48971623  1
  O  O230  1  0.14978120  0.77805642  0.98567334  1
  O  O231  1  0.62880883  0.24275699  0.49051677  1
  O  O232  1  0.63197414  0.24372795  0.99623582  1
  O  O233  1  0.63645707  0.74074777  0.50824688  1
  O  O234  1  0.63968347  0.75591643  0.99814089  1
  O  O235  1  0.50231262  0.23615765  0.13771150  1
  O  O236  1  0.49895657  0.24086984  0.63240126  1
  O  O237  1  0.49823676  0.74972876  0.13216630  1
  O  O238  1  0.50147530  0.74303307  0.63539132  1
  O  O239  1  1.00454104  0.23312403  0.13249296  1
  O  O240  1  0.99318796  0.24393097  0.63182874  1
  O  O241  1  0.97816784  0.76537037  0.13221140  1
  O  O242  1  0.98643133  0.75051829  0.63814852  1
  O  O243  1  0.01084803  0.24231754  0.36332468  1
  O  O244  1  0.00273373  0.26162010  0.86945927  1
  O  O245  1  0.01072631  0.75295186  0.37011809  1
  O  O246  1  -0.00437065  0.75765986  0.86415989  1
  O  O247  1  0.50927945  0.24747861  0.35950534  1
  O  O248  1  0.50187433  0.25773535  0.87347362  1
  O  O249  1  0.50232610  0.76886140  0.36737760  1
  O  O250  1  0.50063856  0.74836359  0.86227635  1
  O  O251  1  0.24428241  0.13234279  0.49495561  1
  O  O252  1  0.24545388  0.13334860  0.99853408  1
  O  O253  1  0.22942498  0.62266491  0.51609511  1
  O  O254  1  0.25116139  0.63780873  1.00841598  1
  O  O255  1  0.74394775  0.13338822  0.50051093  1
  O  O256  1  0.74070527  0.13222426  1.00795614  1
  O  O257  1  0.74508535  0.62953683  0.49308673  1
  O  O258  1  0.75260146  0.63077889  0.99188735  1
  O  O259  1  0.25033145  0.36424070  0.00714936  1
  O  O260  1  0.25629797  0.37607778  0.50396503  1
  O  O261  1  0.26614915  0.87658286  0.00570555  1
  O  O262  1  0.25938076  0.88613530  0.51543128  1
  O  O263  1  0.75731832  0.36729769  0.00549308  1
  O  O264  1  0.76316382  0.36400917  0.51056909  1
  O  O265  1  0.75320167  0.86866126  0.00864326  1
  O  O266  1  0.75568843  0.86666635  0.50235460  1
  O  O267  1  0.11251333  0.48013598  0.24875636  1
  O  O268  1  0.12766588  0.49670867  0.74632897  1
  O  O269  1  0.13176330  0.99421133  0.24351588  1
  O  O270  1  0.13894197  1.00864588  0.75226026  1
  O  O271  1  0.62096523  0.49802285  0.25201467  1
  O  O272  1  0.63013200  0.49371801  0.74532816  1
  O  O273  1  0.63371811  0.99241172  0.24724369  1
  O  O274  1  0.63416447  0.99548838  0.75747710  1
  O  O275  1  0.37029903  -0.00466897  0.26463474  1
  O  O276  1  0.36862721  0.00766115  0.75363654  1
  O  O277  1  0.36290137  0.48077090  0.25818491  1
  O  O278  1  0.36653766  0.50106914  0.75744300  1
  O  O279  1  0.87297119  0.00238961  0.25805447  1
  O  O280  1  0.86799489  0.00797663  0.75602741  1
  O  O281  1  0.87742281  0.50434099  0.25874020  1
  O  O282  1  0.86362948  0.49225103  0.76014359  1
  O  O283  1  0.12778930  0.36418018  0.36814764  1
  O  O284  1  0.11521659  0.36994936  0.86966648  1
  O  O285  1  0.12598632  0.86762463  0.37185272  1
  O  O286  1  0.11040398  0.87761358  0.86782726  1
  O  O287  1  0.62180681  0.35887787  0.37412634  1
  O  O288  1  0.62675098  0.36133662  0.86819314  1
  O  O289  1  0.61836239  0.88455579  0.36831730  1
  O  O290  1  0.62167231  0.87170705  0.86351008  1
  O  O291  1  0.39146167  0.11584016  0.12244297  1
  O  O292  1  0.38225557  0.12819970  0.63337611  1
  O  O293  1  0.39267626  0.64492773  0.11873574  1
  O  O294  1  0.38857676  0.62925230  0.61425079  1
  O  O295  1  0.88575110  0.11465513  0.13705646  1
  O  O296  1  0.88186279  0.13181204  0.63276239  1
  O  O297  1  0.86505744  0.63216200  0.13716379  1
  O  O298  1  0.87246274  0.63372887  0.62119534  1
  O  O299  1  0.24712672  0.26371506  0.11969066  1
  O  O300  1  0.24654568  0.26467553  0.61878007  1
  O  O301  1  0.26298536  0.76204113  0.11902215  1
  O  O302  1  0.24955476  0.76732390  0.63194343  1
  O  O303  1  0.74923096  0.26127721  0.11280435  1
  O  O304  1  0.75583068  0.25325191  0.62028560  1
  O  O305  1  0.75551133  0.75633464  0.12066568  1
  O  O306  1  0.76161124  0.74912040  0.61707739  1
  O  O307  1  0.24488010  0.24763040  0.37815800  1
  O  O308  1  0.23311646  0.25608024  0.87185262  1
  O  O309  1  0.23583674  0.75459032  0.37611557  1
  O  O310  1  0.25528504  0.74849545  0.88041556  1
  O  O311  1  0.73983030  0.24773224  0.37953394  1
  O  O312  1  0.74212353  0.25175186  0.88821843  1
  O  O313  1  0.75819461  0.74065838  0.39026996  1
  O  O314  1  0.75251446  0.73987772  0.88229590  1
  O  O315  1  0.00623987  0.11803768  0.00818302  1
  O  O316  1  0.00754147  0.12414725  0.50881856  1
  O  O317  1  -0.00844764  0.60840832  -0.00536226  1
  O  O318  1  0.00467432  0.61182835  0.49848100  1
  O  O319  1  0.51356116  0.12225321  0.01502758  1
  O  O320  1  0.50676299  0.12486048  0.50680619  1
  O  O321  1  0.50224599  0.61859809  0.00701381  1
  O  O322  1  0.51115252  0.62199782  0.50543177  1
  O  O323  1  0.49486053  0.38359498  0.50271245  1
  O  O324  1  0.50086468  0.37704282  1.00169801  1
  O  O325  1  0.50011619  0.88432394  0.49536789  1
  O  O326  1  0.49109920  0.87766057  0.99952983  1
  O  O327  1  0.98738705  0.37960892  0.50459566  1
  O  O328  1  0.99198704  0.38101655  0.99403849  1
  O  O329  1  0.99231399  0.87746829  0.50100024  1
  O  O330  1  0.99738452  0.87098496  0.98188663  1
  O  O331  1  0.50541989  0.50030072  0.38836955  1
  O  O332  1  0.49299745  0.50324948  0.88238564  1
  O  O333  1  0.49458293  0.99559356  0.37848144  1
  O  O334  1  0.48592690  1.00129654  0.87662852  1
  O  O335  1  0.98620377  0.49868376  0.38592342  1
  O  O336  1  0.99240385  0.48986900  0.87561800  1
  O  O337  1  0.98997173  0.99869654  0.37759177  1
  O  O338  1  0.99066245  0.98831334  0.87163195  1
  O  O339  1  0.00940192  0.00517028  0.12436034  1
  O  O340  1  -0.00503357  0.01245127  0.62728200  1
  O  O341  1  -0.00841810  0.49808826  0.11159104  1
  O  O342  1  0.00685151  0.49298561  0.61655100  1
  O  O343  1  0.50921513  0.00905944  0.12687507  1
  O  O344  1  0.49754197  0.01503047  0.62103509  1
  O  O345  1  0.50132008  0.51131412  0.11632839  1
  O  O346  1  0.50572988  0.50855831  0.62159018  1
  O  O347  1  0.23120846  0.36882312  0.23439004  1
  O  O348  1  0.24364957  0.38530835  0.74224000  1
  O  O349  1  0.24224565  0.88266314  0.24800373  1
  O  O350  1  0.25143776  0.88843450  0.73647598  1
  O  O351  1  0.75674293  0.37022237  0.23872857  1
  O  O352  1  0.74377815  0.38267633  0.74597727  1
  O  O353  1  0.74558365  0.87665090  0.24677976  1
  O  O354  1  0.74283792  0.88360642  0.74862966  1
  O  O355  1  0.24480880  0.12204388  0.26172357  1
  O  O356  1  0.25771692  0.11492251  0.74030254  1
  O  O357  1  0.26300509  0.61192675  0.21590039  1
  O  O358  1  0.24990316  0.61128223  0.74723936  1
  O  O359  1  0.76117497  0.11850397  0.24907105  1
  O  O360  1  0.76037241  0.12086845  0.74861526  1
  O  O361  1  0.75579920  0.63124754  0.26503157  1
  O  O362  1  0.74541032  0.61182747  0.75435595  1
  O  O363  1  0.36525054  0.11809957  0.38294941  1
  O  O364  1  0.37488813  0.11696203  0.85889202  1
  O  O365  1  0.36969609  0.63064273  0.40321626  1
  O  O366  1  0.36886969  0.61522803  0.87354370  1
  O  O367  1  0.87498110  0.11594228  0.36594971  1
  O  O368  1  0.88357867  0.11484584  0.86525176  1
  O  O369  1  0.86911552  0.61658272  0.36997445  1
  O  O370  1  0.86350849  0.61118941  0.87675537  1
  O  O371  1  0.11866955  0.37075216  0.13133550  1
  O  O372  1  0.12865970  0.38188313  0.63058479  1
  O  O373  1  0.13242385  0.87915340  0.13462060  1
  O  O374  1  0.13558450  0.87580853  0.61660428  1
  O  O375  1  0.64200150  0.37538096  0.12414872  1
  O  O376  1  0.63124430  0.37895596  0.63137694  1
  O  O377  1  0.63604162  0.88154206  0.13281093  1
  O  O378  1  0.62819679  0.87459832  0.63919266  1
  O  O379  1  0.11672467  0.25590748  0.25514227  1
  O  O380  1  0.11809403  0.25700307  0.75816963  1
  O  O381  1  0.12693657  0.75705133  0.26294317  1
  O  O382  1  0.10739247  0.74516101  0.74835055  1
  O  O383  1  0.62593581  0.24208082  0.26055607  1
  O  O384  1  0.61749779  0.25102632  0.75953030  1
  O  O385  1  0.61933677  0.76494797  0.24778956  1
  O  O386  1  0.61845084  0.75790865  0.75189634  1
  O  O387  1  0.38329084  0.25065785  0.25768658  1
  O  O388  1  0.38088738  0.24355818  0.74836546  1
  O  O389  1  0.38714495  0.76452940  0.24130417  1
  O  O390  1  0.38364564  0.74659814  0.74469856  1
  O  O391  1  0.88555335  0.23639759  0.25442288  1
  O  O392  1  0.87658630  0.24354941  0.74910595  1
  O  O393  1  0.87521567  0.73902479  0.24581137  1
  O  O394  1  0.87614364  0.74900815  0.73586142  1
  O  O395  1  0.39051491  0.48920291  0.51000903  1
  O  O396  1  0.38651221  0.49777113  0.98873346  1
  O  O397  1  0.38346943  0.99535664  0.49223129  1
  O  O398  1  0.37637492  0.99482903  0.99009488  1
  O  O399  1  0.88020157  0.49055804  0.49596730  1
  O  O400  1  0.88183343  0.49129060  0.99192969  1
  O  O401  1  0.87608159  0.99283258  0.49462363  1
  O  O402  1  0.87733758  0.99654942  0.99012708  1
  O  O403  1  0.12635600  -0.00434209  0.01233248  1
  O  O404  1  0.12432078  0.01656419  0.49298405  1
  O  O405  1  0.10632151  0.49996171  -0.00186805  1
  O  O406  1  0.11482199  0.50297088  0.50694021  1
  O  O407  1  0.62724808  0.00707898  0.00384916  1
  O  O408  1  0.62135598  0.01615768  0.49429505  1
  O  O409  1  0.61288700  0.49375187  0.00178714  1
  O  O410  1  0.61750694  0.51029858  0.51205576  1
  O  O411  1  0.36774837  0.36983329  0.12018295  1
  O  O412  1  0.36414638  0.37341287  0.61697569  1
  O  O413  1  0.37518183  0.87154318  0.11788631  1
  O  O414  1  0.36831401  0.87799783  0.61869516  1
  O  O415  1  0.86517832  0.37569293  0.11285799  1
  O  O416  1  0.87057591  0.36762297  0.62029726  1
  O  O417  1  0.86239142  0.87118463  0.12742519  1
  O  O418  1  0.87152155  0.87117523  0.61507443  1
  O  O419  1  0.13429376  0.13487692  0.38125998  1
  O  O420  1  0.11525097  0.14080670  0.87163740  1
  O  O421  1  0.12188246  0.63647603  0.38243770  1
  O  O422  1  0.13078454  0.63306904  0.88872237  1
  O  O423  1  0.62770942  0.13509779  0.38242659  1
  O  O424  1  0.61547362  0.13908186  0.88654175  1
  O  O425  1  0.63402938  0.62322361  0.38861145  1
  O  O426  1  0.63770102  0.62615055  0.87061998  1
