# generated using pymatgen
data_V85Zn86O256
_symmetry_space_group_name_H-M   'P 1'
_cell_length_a   16.95695226
_cell_length_b   16.95224741
_cell_length_c   16.96130819
_cell_angle_alpha   90.08253138
_cell_angle_beta   90.05297153
_cell_angle_gamma   89.86107206
_symmetry_Int_Tables_number   1
_chemical_formula_structural   V85Zn86O256
_chemical_formula_sum   'V85 Zn86 O256'
_cell_volume   4875.64990170
_cell_formula_units_Z   1
loop_
 _symmetry_equiv_pos_site_id
 _symmetry_equiv_pos_as_xyz
  1  'x, y, z'
loop_
 _atom_site_type_symbol
 _atom_site_label
 _atom_site_symmetry_multiplicity
 _atom_site_fract_x
 _atom_site_fract_y
 _atom_site_fract_z
 _atom_site_occupancy
  V  V0  1  0.62897803  0.37433249  0.74448431  1
  V  V1  1  0.12486931  0.74709516  0.37295914  1
  V  V2  1  0.37963011  0.75119281  0.63025903  1
  V  V3  1  0.62821094  0.00251884  0.62944023  1
  V  V4  1  0.25279127  0.49101160  0.74025481  1
  V  V5  1  0.50221056  0.50053158  0.50261818  1
  V  V6  1  0.76241851  0.49376070  0.75325087  1
  V  V7  1  0.25940085  0.74768797  -0.00842123  1
  V  V8  1  0.13069198  0.48881713  0.12414369  1
  V  V9  1  0.62779562  0.37368327  0.24601414  1
  V  V10  1  0.75114693  0.87903308  0.62847603  1
  V  V11  1  -0.00198837  -0.01748777  -0.00347435  1
  V  V12  1  0.88153246  0.37788063  0.48264248  1
  V  V13  1  0.75231360  0.74398530  -0.00232417  1
  V  V14  1  -0.00782470  0.63892408  0.62903294  1
  V  V15  1  0.87595444  0.75109002  0.12044513  1
  V  V16  1  0.13003125  0.62401988  -0.00681873  1
  V  V17  1  0.63332857  0.50118095  0.62715853  1
  V  V18  1  0.49674447  0.37623581  0.87490369  1
  V  V19  1  0.49781174  0.50035469  0.00233096  1
  V  V20  1  0.24822827  0.12472534  0.87797704  1
  V  V21  1  0.49973715  0.12742370  0.12395057  1
  V  V22  1  0.87416741  0.24792014  0.12461396  1
  V  V23  1  0.75086023  0.12477706  0.37516842  1
  V  V24  1  0.00047817  0.12866696  0.62910116  1
  V  V25  1  0.25453786  0.62930691  0.37236762  1
  V  V26  1  0.24344262  0.24764643  0.48219244  1
  V  V27  1  0.62010390  0.87552211  0.24932953  1
  V  V28  1  0.37680339  0.65246475  0.25064695  1
  V  V29  1  0.24982432  0.87576517  0.63167702  1
  V  V30  1  0.12754170  0.62398882  0.50705973  1
  V  V31  1  0.61842428  0.75054631  0.36996695  1
  V  V32  1  0.38557281  -0.00574760  0.88289466  1
  V  V33  1  0.36860640  0.37775941  0.50382516  1
  V  V34  1  0.62467134  0.25062758  0.87483376  1
  V  V35  1  0.74628309  0.25846003  0.00813154  1
  V  V36  1  0.12674200  0.87662666  0.24806404  1
  V  V37  1  0.74947430  0.75156197  0.50074494  1
  V  V38  1  0.87562014  0.61819334  0.24857063  1
  V  V39  1  0.49585657  0.25082177  0.25149819  1
  V  V40  1  0.00373086  0.61964574  0.12572648  1
  V  V41  1  0.87339189  0.37740115  -0.00421450  1
  V  V42  1  0.13089312  -0.00008530  0.12642938  1
  V  V43  1  0.50346396  0.75365028  0.76143689  1
  V  V44  1  0.25404155  0.49541251  0.24453718  1
  V  V45  1  0.37277490  0.11267419  0.26119349  1
  V  V46  1  0.24572184  0.25444552  0.00751931  1
  V  V47  1  -0.00202013  0.49779000  -0.01088328  1
  V  V48  1  0.25314555  0.75209688  0.50359317  1
  V  V49  1  0.11079177  0.75240473  0.87313311  1
  V  V50  1  0.87761003  0.26244023  0.63261462  1
  V  V51  1  0.87515419  0.86297310  0.50097565  1
  V  V52  1  0.11912084  0.12612826  -0.00008658  1
  V  V53  1  0.11817298  0.36841762  0.74134365  1
  V  V54  1  0.10616494  0.87236785  0.75455243  1
  V  V55  1  0.74636598  0.00100958  0.24188958  1
  V  V56  1  0.37627875  0.88236919  0.50027535  1
  V  V57  1  -0.00150842  -0.00041456  0.49838448  1
  V  V58  1  0.49780023  0.12653830  0.62548086  1
  V  V59  1  0.62628102  0.25002809  0.37631005  1
  V  V60  1  0.87103213  -0.00427556  0.37412549  1
  V  V61  1  0.75196300  0.25612505  0.50427179  1
  V  V62  1  0.62616762  0.62548932  0.50346817  1
  V  V63  1  0.36829476  0.37601528  0.01007306  1
  V  V64  1  0.00021364  0.74747970  0.24672697  1
  V  V65  1  0.75609519  0.87914636  0.11871875  1
  V  V66  1  0.75143243  0.62127926  0.37377567  1
  V  V67  1  0.62624932  0.49876966  0.12663551  1
  V  V68  1  0.36648478  0.50265202  0.87779135  1
  V  V69  1  0.00370608  0.25198243  0.25976947  1
  V  V70  1  0.75607242  0.49413916  0.25034719  1
  V  V71  1  0.49825981  0.00246461  0.49344468  1
  V  V72  1  0.75406710  0.61301867  0.87719077  1
  V  V73  1  0.62504826  0.87858155  0.75832782  1
  V  V74  1  0.37060655  0.62683429  0.75618769  1
  V  V75  1  0.61906657  0.12853826  0.00167530  1
  V  V76  1  0.12287392  -0.00043141  0.62683695  1
  V  V77  1  0.25624189  0.86876027  0.12012348  1
  V  V78  1  0.49554370  0.63434406  0.13322937  1
  V  V79  1  0.50079775  0.37727759  0.37748317  1
  V  V80  1  0.24890869  -0.00209049  0.75507148  1
  V  V81  1  0.36278332  0.25303052  0.62666916  1
  V  V82  1  0.86901554  0.11982502  0.75032981  1
  V  V83  1  0.56801249  -0.04638079  0.06399125  1
  V  V84  1  0.49764268  0.25093687  0.74890749  1
  Zn  Zn85  1  0.50566837  0.62604823  0.63045812  1
  Zn  Zn86  1  0.12147920  0.25330895  0.87095330  1
  Zn  Zn87  1  -0.00551100  0.37077497  0.86582893  1
  Zn  Zn88  1  0.12539699  0.50137500  0.62366578  1
  Zn  Zn89  1  0.62647153  0.74860303  0.87687764  1
  Zn  Zn90  1  0.13006851  0.36235253  0.26165440  1
  Zn  Zn91  1  0.88402179  0.62969209  0.75550856  1
  Zn  Zn92  1  0.36945462  0.25066736  0.12914113  1
  Zn  Zn93  1  -0.00470326  0.86968819  0.37340952  1
  Zn  Zn94  1  0.37336723  0.12429877  0.75228979  1
  Zn  Zn95  1  0.37979811  0.50622794  0.37256176  1
  Zn  Zn96  1  0.49835299  0.87602736  0.36999294  1
  Zn  Zn97  1  0.12496261  0.13104468  0.48356942  1
  Zn  Zn98  1  0.74677371  0.12177945  0.86993750  1
  Zn  Zn99  1  0.62645739  0.12692838  0.50278410  1
  Zn  Zn100  1  0.88131133  -0.01168918  0.86899591  1
  Zn  Zn101  1  0.87313181  0.12372730  0.24286714  1
  Zn  Zn102  1  -0.00352076  0.12222373  0.12363455  1
  Zn  Zn103  1  -0.00138066  0.49475809  0.49211018  1
  Zn  Zn104  1  0.22241326  0.04509951  0.31696047  1
  Zn  Zn105  1  0.38801691  0.87486949  0.00106295  1
  Zn  Zn106  1  0.62394796  0.61984145  -0.00036876  1
  Zn  Zn107  1  0.18723927  0.18645100  0.18784510  1
  Zn  Zn108  1  0.18563823  0.18380435  0.68410868  1
  Zn  Zn109  1  0.19036786  0.68695146  0.18297956  1
  Zn  Zn110  1  0.19001916  0.68706704  0.69449545  1
  Zn  Zn111  1  0.68735028  0.18698353  0.18308451  1
  Zn  Zn112  1  0.69166427  0.18962492  0.68564090  1
  Zn  Zn113  1  0.68689724  0.68611353  0.18694362  1
  Zn  Zn114  1  0.71629943  0.69830169  0.70016730  1
  Zn  Zn115  1  0.31675463  0.31676062  0.31423323  1
  Zn  Zn116  1  0.30921972  0.31297406  0.81741693  1
  Zn  Zn117  1  0.29948790  0.84616632  0.32533342  1
  Zn  Zn118  1  0.31051509  0.81506544  0.81951961  1
  Zn  Zn119  1  0.81345415  0.30977428  0.30854375  1
  Zn  Zn120  1  0.81146988  0.30807691  0.81684366  1
  Zn  Zn121  1  0.80871321  0.80955619  0.30948624  1
  Zn  Zn122  1  0.82714287  0.80506913  0.80431435  1
  Zn  Zn123  1  0.19189199  0.43767512  0.43341961  1
  Zn  Zn124  1  0.18626359  0.43691712  0.93094120  1
  Zn  Zn125  1  0.18256331  0.93693614  0.44045383  1
  Zn  Zn126  1  0.18453598  0.93471481  0.93813275  1
  Zn  Zn127  1  0.69152637  0.43634814  0.43623858  1
  Zn  Zn128  1  0.68554455  0.43536045  0.93626114  1
  Zn  Zn129  1  0.68380430  0.93912002  0.43861588  1
  Zn  Zn130  1  0.73794665  0.91889502  0.91289831  1
  Zn  Zn131  1  0.31251662  0.06240069  0.06473986  1
  Zn  Zn132  1  0.31034085  0.06680398  0.56253184  1
  Zn  Zn133  1  0.31334793  0.56852434  0.06560673  1
  Zn  Zn134  1  0.31680641  0.56695836  0.56416388  1
  Zn  Zn135  1  0.80473135  0.05852532  0.04031346  1
  Zn  Zn136  1  0.81416398  0.06428447  0.56248846  1
  Zn  Zn137  1  0.81298701  0.55778296  0.06499645  1
  Zn  Zn138  1  0.81325586  0.55985912  0.56462088  1
  Zn  Zn139  1  0.43708064  0.44334422  0.19000628  1
  Zn  Zn140  1  0.44049119  0.43798280  0.68540892  1
  Zn  Zn141  1  0.43165442  0.93350096  0.18991294  1
  Zn  Zn142  1  0.43945222  0.93971024  0.69161875  1
  Zn  Zn143  1  0.93858380  0.42934703  0.18074225  1
  Zn  Zn144  1  0.94534478  0.44775224  0.67562276  1
  Zn  Zn145  1  0.93916635  0.93841332  0.18301317  1
  Zn  Zn146  1  0.93268616  0.93966027  0.68254353  1
  Zn  Zn147  1  0.05205295  0.06600665  0.31190667  1
  Zn  Zn148  1  0.05801804  0.06359175  0.81435023  1
  Zn  Zn149  1  0.07106205  0.52082765  0.32529988  1
  Zn  Zn150  1  0.06703254  0.56310417  0.80969628  1
  Zn  Zn151  1  0.56432293  0.06309496  0.31119529  1
  Zn  Zn152  1  0.56348202  0.06429742  0.81169976  1
  Zn  Zn153  1  0.56352323  0.56370926  0.31229833  1
  Zn  Zn154  1  0.56382085  0.56393335  0.81384929  1
  Zn  Zn155  1  0.43466966  0.18970849  0.43943189  1
  Zn  Zn156  1  0.43323769  0.18863282  0.93716965  1
  Zn  Zn157  1  0.43943833  0.69102942  0.44091121  1
  Zn  Zn158  1  0.43982921  0.68442374  0.93876670  1
  Zn  Zn159  1  0.93483514  0.18621906  0.43959568  1
  Zn  Zn160  1  0.94081615  0.19402739  0.93469740  1
  Zn  Zn161  1  0.95617971  0.65368815  0.41827600  1
  Zn  Zn162  1  0.93542131  0.68286057  0.93827895  1
  Zn  Zn163  1  0.05719968  0.31128138  0.06463120  1
  Zn  Zn164  1  0.06256429  0.31508856  0.56158199  1
  Zn  Zn165  1  0.06755366  0.80860886  0.06227641  1
  Zn  Zn166  1  0.06113831  0.80922239  0.56457792  1
  Zn  Zn167  1  0.55688528  0.31434783  0.06479478  1
  Zn  Zn168  1  0.56181505  0.31292116  0.56414574  1
  Zn  Zn169  1  0.56838412  0.79405092  0.06607796  1
  Zn  Zn170  1  0.56349225  0.81408799  0.56637836  1
  O  O171  1  0.12677445  0.11526345  0.11642580  1
  O  O172  1  0.11648305  0.11711528  0.61976944  1
  O  O173  1  0.11837790  0.62291096  0.11067811  1
  O  O174  1  0.12555532  0.62776233  0.62017560  1
  O  O175  1  0.60874933  0.12798539  0.12106625  1
  O  O176  1  0.61784570  0.12066192  0.62520386  1
  O  O177  1  0.61268563  0.61657431  0.12847282  1
  O  O178  1  0.62691762  0.61686978  0.61919317  1
  O  O179  1  0.38394502  0.37942066  0.38664165  1
  O  O180  1  0.37940980  0.38241514  0.88346097  1
  O  O181  1  0.38644003  0.85980850  0.39841467  1
  O  O182  1  0.37576834  0.88911288  0.87977037  1
  O  O183  1  0.87408633  0.37177303  0.38420727  1
  O  O184  1  0.87573721  0.36930330  0.88974695  1
  O  O185  1  0.87255563  0.87899186  0.38010801  1
  O  O186  1  0.84230759  0.88242955  0.87659127  1
  O  O187  1  0.26105808  -0.04743435  0.36508527  1
  O  O188  1  0.25315820  0.00506536  0.87051638  1
  O  O189  1  0.25623704  0.51917673  0.36763524  1
  O  O190  1  0.26257482  0.49821452  0.86437227  1
  O  O191  1  0.75272977  0.00603395  0.36959327  1
  O  O192  1  0.77779995  0.02520370  0.92068756  1
  O  O193  1  0.74403505  0.50944964  0.36337372  1
  O  O194  1  0.74895375  0.50117526  0.86794517  1
  O  O195  1  0.24406530  0.50592857  0.13221817  1
  O  O196  1  0.25449495  0.50290420  0.63818776  1
  O  O197  1  0.23831123  0.98816150  0.11543712  1
  O  O198  1  0.24423904  0.99736420  0.63462553  1
  O  O199  1  0.73368201  0.50515405  0.13438920  1
  O  O200  1  0.73921684  0.50060681  0.63361001  1
  O  O201  1  0.75624244  0.99137162  0.12968282  1
  O  O202  1  0.73861202  0.99361062  0.61526924  1
  O  O203  1  -0.00151847  0.35587721  0.24549518  1
  O  O204  1  0.01508701  0.38670188  0.74771159  1
  O  O205  1  0.01077993  0.86652751  0.24734273  1
  O  O206  1  0.00690357  0.87966298  0.74656844  1
  O  O207  1  0.50374966  0.36910742  0.25673058  1
  O  O208  1  0.50614078  0.36939774  0.75458297  1
  O  O209  1  0.51451925  0.88225026  0.24998410  1
  O  O210  1  0.51164199  0.86637247  0.74570681  1
  O  O211  1  0.49490664  0.13218022  0.24507215  1
  O  O212  1  0.49677180  0.13318548  0.74250742  1
  O  O213  1  0.49141308  0.62148100  0.24179375  1
  O  O214  1  0.49096388  0.63278948  0.74990468  1
  O  O215  1  0.99217026  0.13279244  0.24302161  1
  O  O216  1  0.99359739  0.12125670  0.73490284  1
  O  O217  1  0.99676586  0.62825463  0.23462287  1
  O  O218  1  0.99922326  0.61699715  0.73512067  1
  O  O219  1  0.36591126  0.25989342  0.00134509  1
  O  O220  1  0.36586833  0.25829177  0.50541728  1
  O  O221  1  0.36382518  0.75387623  -0.00795119  1
  O  O222  1  0.37279820  0.75510959  0.51447804  1
  O  O223  1  0.86335767  0.25234643  0.00436578  1
  O  O224  1  0.87013013  0.25889479  0.50681838  1
  O  O225  1  0.86920105  0.74240020  0.01317734  1
  O  O226  1  0.86589990  0.76086117  0.49171012  1
  O  O227  1  0.13972011  0.25160149  0.50128064  1
  O  O228  1  0.13064474  0.24303732  1.00216731  1
  O  O229  1  0.13511261  0.74815012  0.49336135  1
  O  O230  1  0.13054387  0.74294245  0.98878160  1
  O  O231  1  0.63369809  0.25032096  0.49619055  1
  O  O232  1  0.62673817  0.25064570  0.99617640  1
  O  O233  1  0.62910012  0.74573760  0.49257192  1
  O  O234  1  0.63661221  0.73956161  0.99813918  1
  O  O235  1  0.49542017  0.24444405  0.13556603  1
  O  O236  1  0.49286593  0.24061706  0.62724004  1
  O  O237  1  0.50004355  0.73418532  0.13094591  1
  O  O238  1  0.49113273  0.75045989  0.63579977  1
  O  O239  1  0.98959288  0.24396989  0.12964429  1
  O  O240  1  0.98638860  0.24173425  0.61677850  1
  O  O241  1  0.99455221  0.74155294  0.12553618  1
  O  O242  1  1.00417258  0.73894043  0.63335585  1
  O  O243  1  -0.00590138  0.24104329  0.35867406  1
  O  O244  1  0.00902480  0.25807383  0.87661363  1
  O  O245  1  0.00832158  0.74572294  0.36529906  1
  O  O246  1  0.01129293  0.74590358  0.87861700  1
  O  O247  1  0.50671335  0.25481370  0.37000921  1
  O  O248  1  0.50325397  0.25504481  0.86846926  1
  O  O249  1  0.51525774  0.75149985  0.37889980  1
  O  O250  1  0.50461617  0.74782912  0.86597103  1
  O  O251  1  0.25093092  0.14333159  0.50057266  1
  O  O252  1  0.24100232  0.13022793  0.99475255  1
  O  O253  1  0.25117105  0.63444205  0.49327648  1
  O  O254  1  0.24418981  0.63775596  1.00226879  1
  O  O255  1  0.75058331  0.13538175  0.49181330  1
  O  O256  1  0.72776003  0.14252955  1.01307293  1
  O  O257  1  0.74701150  0.63134724  0.49329260  1
  O  O258  1  0.74927427  0.62581234  0.99711355  1
  O  O259  1  0.25628214  0.36688333  -0.00655022  1
  O  O260  1  0.25964662  0.36657706  0.49534180  1
  O  O261  1  0.24912394  0.86259729  0.00362568  1
  O  O262  1  0.25788043  0.86998208  0.51387706  1
  O  O263  1  0.75396309  0.36594084  -0.00144133  1
  O  O264  1  0.75825190  0.36138422  0.49383665  1
  O  O265  1  0.74117572  0.86034361  0.01531134  1
  O  O266  1  0.75417971  0.86978914  0.50260697  1
  O  O267  1  0.13984755  0.51792984  0.23365219  1
  O  O268  1  0.14215731  0.49641648  0.74838197  1
  O  O269  1  0.12545227  0.99006776  0.24208202  1
  O  O270  1  0.12900262  0.99200468  0.74807526  1
  O  O271  1  0.63079894  0.49201513  0.24578764  1
  O  O272  1  0.62595598  0.49026089  0.74319228  1
  O  O273  1  0.63897236  0.99330786  0.25417473  1
  O  O274  1  0.61984222  0.99495845  0.73841962  1
  O  O275  1  0.38177897  0.01317322  0.25411788  1
  O  O276  1  0.36532329  0.00105936  0.76024565  1
  O  O277  1  0.36654743  0.50901796  0.25233325  1
  O  O278  1  0.36950777  0.50386562  0.75511624  1
  O  O279  1  0.86359203  -0.00170764  0.25508899  1
  O  O280  1  0.87654078  0.01560073  0.74975877  1
  O  O281  1  0.86290446  0.50055974  0.23771608  1
  O  O282  1  0.86368063  0.50134566  0.74081960  1
  O  O283  1  0.11319243  0.41659549  0.35905027  1
  O  O284  1  0.12735613  0.37606120  0.85521442  1
  O  O285  1  0.11902929  0.86047244  0.36684337  1
  O  O286  1  0.12405614  0.86221978  0.86879296  1
  O  O287  1  0.62031399  0.36978453  0.36581088  1
  O  O288  1  0.61568042  0.36962244  0.86634943  1
  O  O289  1  0.62517050  0.86847919  0.36583292  1
  O  O290  1  0.64063143  0.87870673  0.86033242  1
  O  O291  1  0.38586838  0.12548676  0.13234507  1
  O  O292  1  0.38185765  0.13372793  0.62904482  1
  O  O293  1  0.38729514  0.62464829  0.13536211  1
  O  O294  1  0.38024237  0.63549118  0.63491848  1
  O  O295  1  0.87115233  0.13668996  0.11911267  1
  O  O296  1  0.88039922  0.13195300  0.63304008  1
  O  O297  1  0.88306159  0.62890641  0.12987905  1
  O  O298  1  0.89065622  0.62506340  0.61803700  1
  O  O299  1  0.25203732  0.24649854  0.11203681  1
  O  O300  1  0.26168815  0.24714228  0.62254918  1
  O  O301  1  0.24146408  0.75713134  0.10504221  1
  O  O302  1  0.26249939  0.75539362  0.62764541  1
  O  O303  1  0.75603360  0.25352363  0.11962435  1
  O  O304  1  0.76517531  0.24576599  0.61526707  1
  O  O305  1  0.75735329  0.75168619  0.11864678  1
  O  O306  1  0.73622385  0.76297943  0.60486402  1
  O  O307  1  0.25007692  0.25281239  0.38339069  1
  O  O308  1  0.24586723  0.24053834  0.88473057  1
  O  O309  1  0.24438680  0.74630022  0.38033486  1
  O  O310  1  0.24052490  0.75234941  0.88790724  1
  O  O311  1  0.74582377  0.24187726  0.37892237  1
  O  O312  1  0.74033779  0.24410177  0.88580876  1
  O  O313  1  0.73895716  0.74589376  0.38287250  1
  O  O314  1  0.74832492  0.73825125  0.89050881  1
  O  O315  1  0.01244163  0.12334877  0.00113969  1
  O  O316  1  0.00099518  0.11552466  0.50629263  1
  O  O317  1  0.00608399  0.61704902  0.00761914  1
  O  O318  1  0.01843903  0.64218638  0.51476301  1
  O  O319  1  0.50840966  0.13569258  0.00834402  1
  O  O320  1  0.50018983  0.12071517  0.50801061  1
  O  O321  1  0.49877784  0.61817835  0.01461288  1
  O  O322  1  0.50791976  0.61778359  0.50327463  1
  O  O323  1  0.49517457  0.38154576  0.49616462  1
  O  O324  1  0.49008271  0.38154221  0.99540124  1
  O  O325  1  0.49379165  0.88658534  0.50630718  1
  O  O326  1  0.51060507  0.88392710  1.01442475  1
  O  O327  1  0.98661573  0.37527937  0.49794039  1
  O  O328  1  0.99318522  0.38386191  0.99978435  1
  O  O329  1  0.99022535  0.87853161  0.49976795  1
  O  O330  1  1.00824183  0.88357990  1.00015574  1
  O  O331  1  0.50176717  0.49626101  0.38469395  1
  O  O332  1  0.49125580  0.49546903  0.88187721  1
  O  O333  1  0.50757394  0.99887509  0.39033077  1
  O  O334  1  0.48296660  1.00838276  0.87131686  1
  O  O335  1  0.98712635  0.54514832  0.39129968  1
  O  O336  1  1.00590145  0.49843131  0.88691148  1
  O  O337  1  0.98747856  0.99409273  0.38170862  1
  O  O338  1  0.99685093  1.00276577  0.89093956  1
  O  O339  1  0.01542268  -0.00002916  0.11888377  1
  O  O340  1  0.00139884  0.00736071  0.61589044  1
  O  O341  1  0.01014901  0.50549430  0.11852676  1
  O  O342  1  0.00804391  0.51500099  0.60906727  1
  O  O343  1  0.50192776  0.00607037  0.12358739  1
  O  O344  1  0.50403368  0.01301320  0.62158042  1
  O  O345  1  0.50863280  0.50678765  0.12287084  1
  O  O346  1  0.51209844  0.50177958  0.61864178  1
  O  O347  1  0.25055010  0.39103659  0.25499140  1
  O  O348  1  0.24837223  0.38742888  0.74996635  1
  O  O349  1  0.23284190  0.85907230  0.23341039  1
  O  O350  1  0.24458898  0.88533791  0.74991800  1
  O  O351  1  0.73964568  0.38188793  0.25514791  1
  O  O352  1  0.73880836  0.37991527  0.75817272  1
  O  O353  1  0.74060196  0.87954118  0.23733279  1
  O  O354  1  0.74097388  0.87373810  0.73141291  1
  O  O355  1  0.26678678  0.12420867  0.24552837  1
  O  O356  1  0.24726141  0.11370215  0.75802934  1
  O  O357  1  0.26057709  0.62690580  0.25581409  1
  O  O358  1  0.26485226  0.61492237  0.74979906  1
  O  O359  1  0.74952957  0.11731463  0.25526548  1
  O  O360  1  0.76348019  0.12614746  0.75074078  1
  O  O361  1  0.75208078  0.61514266  0.25508060  1
  O  O362  1  0.73800880  0.60300843  0.76296195  1
  O  O363  1  0.38036535  0.12798543  0.36000352  1
  O  O364  1  0.36187805  0.11792777  0.87513898  1
  O  O365  1  0.37084504  0.63045897  0.36873297  1
  O  O366  1  0.38095519  0.61424316  0.86851960  1
  O  O367  1  0.86220181  0.11730406  0.37386939  1
  O  O368  1  0.88106143  0.13456493  0.85279271  1
  O  O369  1  0.85596659  0.63675541  0.36263101  1
  O  O370  1  0.86060747  0.62456178  0.87352006  1
  O  O371  1  0.12228199  0.38742819  0.13057765  1
  O  O372  1  0.12464517  0.38133748  0.63579886  1
  O  O373  1  0.13111486  0.87949960  0.12992560  1
  O  O374  1  0.13028132  0.87808126  0.63569618  1
  O  O375  1  0.61653840  0.38239607  0.13902847  1
  O  O376  1  0.62115356  0.38070532  0.63727580  1
  O  O377  1  0.62638381  0.88459661  0.12549742  1
  O  O378  1  0.63006288  0.88559433  0.63019040  1
  O  O379  1  0.11092090  0.24799191  0.24608692  1
  O  O380  1  0.13247542  0.26586431  0.74540079  1
  O  O381  1  0.11981458  0.75038172  0.25536272  1
  O  O382  1  0.13107761  0.75708028  0.76601640  1
  O  O383  1  0.61591385  0.25605317  0.25337490  1
  O  O384  1  0.62095836  0.25642777  0.75291422  1
  O  O385  1  0.63328050  0.76137051  0.25734192  1
  O  O386  1  0.61979202  0.75893440  0.75162009  1
  O  O387  1  0.38553815  0.24768142  0.24977442  1
  O  O388  1  0.37840481  0.25137303  0.74343040  1
  O  O389  1  0.36913010  0.74987179  0.25805665  1
  O  O390  1  0.38052839  0.74552884  0.75081677  1
  O  O391  1  0.87987387  0.24722736  0.23992814  1
  O  O392  1  0.87008794  0.24475784  0.73604007  1
  O  O393  1  0.87826757  0.74173758  0.23902300  1
  O  O394  1  0.82745890  0.72569748  0.73276975  1
  O  O395  1  0.38192821  0.49414439  0.50083426  1
  O  O396  1  0.37518529  0.49576651  0.99438349  1
  O  O397  1  0.38368684  0.99280954  0.51010425  1
  O  O398  1  0.37222453  0.99885725  0.98695001  1
  O  O399  1  0.86684608  0.47824501  0.50412541  1
  O  O400  1  0.88586574  0.48973498  1.00888484  1
  O  O401  1  0.88255962  0.99273698  0.49476762  1
  O  O402  1  0.90065969  0.99852781  1.01704694  1
  O  O403  1  0.11800251  0.00643305  0.00456368  1
  O  O404  1  0.10931163  -0.01061333  0.50954496  1
  O  O405  1  0.12310100  0.50640484  0.00421528  1
  O  O406  1  0.13656565  0.51815187  0.50217983  1
  O  O407  1  0.62098536  0.01056353  0.00023865  1
  O  O408  1  0.61563720  0.00307398  0.51169608  1
  O  O409  1  0.61763749  0.49671781  0.01084744  1
  O  O410  1  0.62404009  0.50241379  0.50803356  1
  O  O411  1  0.37996977  0.37602274  0.11272181  1
  O  O412  1  0.38311646  0.36662254  0.61289470  1
  O  O413  1  0.36158130  0.87886605  0.11967474  1
  O  O414  1  0.37164215  0.86942459  0.62284618  1
  O  O415  1  0.87778963  0.35927294  0.11009061  1
  O  O416  1  0.88009568  0.36316565  0.62364762  1
  O  O417  1  0.86682035  0.86327647  0.13151649  1
  O  O418  1  0.86282780  0.88070863  0.61342154  1
  O  O419  1  0.13711405  0.09097950  0.37841120  1
  O  O420  1  0.13460933  0.12383369  0.88156952  1
  O  O421  1  0.13684730  0.63667693  0.38297689  1
  O  O422  1  0.12262415  0.63375384  0.88528227  1
  O  O423  1  0.63536420  0.13075674  0.37712383  1
  O  O424  1  0.62399624  0.13217740  0.88355947  1
  O  O425  1  0.63374144  0.63149244  0.37903035  1
  O  O426  1  0.63619519  0.62327640  0.88063182  1
