# generated using pymatgen
data_V85Zn86O256
_symmetry_space_group_name_H-M   'P 1'
_cell_length_a   16.93455961
_cell_length_b   16.92642371
_cell_length_c   16.93014045
_cell_angle_alpha   90.01168518
_cell_angle_beta   90.00997568
_cell_angle_gamma   90.01136899
_symmetry_Int_Tables_number   1
_chemical_formula_structural   V85Zn86O256
_chemical_formula_sum   'V85 Zn86 O256'
_cell_volume   4852.88111426
_cell_formula_units_Z   1
loop_
 _symmetry_equiv_pos_site_id
 _symmetry_equiv_pos_as_xyz
  1  'x, y, z'
loop_
 _atom_site_type_symbol
 _atom_site_label
 _atom_site_symmetry_multiplicity
 _atom_site_fract_x
 _atom_site_fract_y
 _atom_site_fract_z
 _atom_site_occupancy
  V  V0  1  0.87334505  0.86008241  0.50232140  1
  V  V1  1  0.12511699  0.37603452  0.24921162  1
  V  V2  1  0.74423120  0.12822292  0.87464908  1
  V  V3  1  0.74463701  0.48946974  0.74038772  1
  V  V4  1  0.50238372  0.12681701  0.12767230  1
  V  V5  1  0.75764951  0.61398834  0.87838932  1
  V  V6  1  0.37375824  0.00240686  0.37075475  1
  V  V7  1  0.64050102  0.87916297  0.24893078  1
  V  V8  1  0.24971783  0.36797727  0.11138442  1
  V  V9  1  0.63875245  -0.00035190  0.12647031  1
  V  V10  1  -0.00276418  0.12776683  0.62529201  1
  V  V11  1  0.00157871  0.74749560  0.24928030  1
  V  V12  1  0.75278616  0.85850455  0.61979539  1
  V  V13  1  0.37777495  0.13588898  0.24972992  1
  V  V14  1  0.00199727  0.39113145  0.87224122  1
  V  V15  1  0.86933329  0.11727165  0.24850772  1
  V  V16  1  0.87796585  0.39196230  -0.00622928  1
  V  V17  1  0.37698996  0.74406260  0.62484677  1
  V  V18  1  0.36818750  0.36277901  0.50013777  1
  V  V19  1  0.25526878  0.74741022  0.49819382  1
  V  V20  1  0.87740686  0.12673914  0.74918938  1
  V  V21  1  0.37562176  0.87465508  0.49835703  1
  V  V22  1  0.86900290  0.49709755  0.37110070  1
  V  V23  1  0.87740572  0.00048485  0.87302395  1
  V  V24  1  0.75182035  -0.00126651  0.74577909  1
  V  V25  1  0.12532896  0.00085461  0.62450038  1
  V  V26  1  0.62763654  0.36884794  0.24780539  1
  V  V27  1  0.51036809  0.61653255  0.62654670  1
  V  V28  1  0.62773957  0.13801024  0.50221980  1
  V  V29  1  0.12701285  0.62329835  0.50119557  1
  V  V30  1  0.25446462  0.62277180  0.37385906  1
  V  V31  1  0.75177497  0.38870933  0.12868686  1
  V  V32  1  0.25350334  0.87509090  0.12391885  1
  V  V33  1  0.37654562  0.25233330  0.10850038  1
  V  V34  1  0.00027327  0.24994593  0.24802310  1
  V  V35  1  0.00467522  0.25665903  0.75310702  1
  V  V36  1  0.12770365  0.87536621  0.24878026  1
  V  V37  1  0.49261616  0.12273929  0.63520120  1
  V  V38  1  0.12696794  0.87416753  0.74927143  1
  V  V39  1  0.25936411  0.13659820  0.87505889  1
  V  V40  1  0.25704555  0.49847839  0.24771982  1
  V  V41  1  0.74476052  0.25330987  -0.00269802  1
  V  V42  1  0.86127163  0.37028186  0.50589620  1
  V  V43  1  0.36959361  0.62238344  0.75985431  1
  V  V44  1  0.25144983  0.74805377  -0.00400634  1
  V  V45  1  0.50367050  0.74388136  0.24636091  1
  V  V46  1  0.50042317  0.88483053  0.87624451  1
  V  V47  1  0.86485531  0.62149243  0.24893841  1
  V  V48  1  0.38082999  0.74245010  0.12268360  1
  V  V49  1  0.62584034  0.87400888  0.74849805  1
  V  V50  1  0.74907356  0.12636827  0.37607298  1
  V  V51  1  0.50226283  0.87582048  0.36749373  1
  V  V52  1  0.87407294  0.25250777  0.12158154  1
  V  V53  1  0.37804868  0.48406984  0.88014707  1
  V  V54  1  0.62739396  -0.00053666  0.62468511  1
  V  V55  1  0.12515458  0.49102216  0.62607169  1
  V  V56  1  0.62714393  0.74738869  0.87930297  1
  V  V57  1  -0.00151024  0.62440152  0.12081824  1
  V  V58  1  0.00326895  0.12724375  0.12338170  1
  V  V59  1  0.12925698  0.74850672  0.87155441  1
  V  V60  1  0.74423377  0.62492297  0.39226139  1
  V  V61  1  0.50168523  0.00066313  0.49777669  1
  V  V62  1  -0.00817123  0.74903853  0.74349815  1
  V  V63  1  0.12273144  0.62417492  -0.00520593  1
  V  V64  1  0.49874641  0.74722868  0.75258568  1
  V  V65  1  0.56597042  0.31888665  0.79043084  1
  V  V66  1  0.25211827  0.87446781  0.62425633  1
  V  V67  1  -0.00180350  0.49816207  0.50153041  1
  V  V68  1  0.86872823  0.87645013  0.00652670  1
  V  V69  1  0.50016914  0.36764606  0.36786507  1
  V  V70  1  0.36750462  0.24022290  0.63891151  1
  V  V71  1  0.25712603  0.00489065  0.75246716  1
  V  V72  1  0.00077410  0.87462483  0.37467452  1
  V  V73  1  0.12630693  0.25096448  0.37569814  1
  V  V74  1  0.37839247  0.50326363  0.37977841  1
  V  V75  1  -0.00475216  0.00000843  0.49798504  1
  V  V76  1  0.25001854  0.13074968  0.37524599  1
  V  V77  1  0.24516274  0.49392109  0.75458451  1
  V  V78  1  0.61549568  0.51162471  0.13272559  1
  V  V79  1  0.00606434  0.00138707  -0.00229817  1
  V  V80  1  -0.00231858  0.37520154  0.37458720  1
  V  V81  1  0.12611393  0.13121218  0.49966990  1
  V  V82  1  0.12263944  0.50106075  0.12184892  1
  V  V83  1  0.51000872  0.49416703  0.50761352  1
  V  V84  1  0.12954873  0.13751137  -0.00320096  1
  Zn  Zn85  1  -0.01179214  0.62937625  0.61800853  1
  Zn  Zn86  1  0.74675662  0.75325830  0.00577252  1
  Zn  Zn87  1  0.49699896  0.49964093  -0.00026752  1
  Zn  Zn88  1  0.12981401  0.74892810  0.37486118  1
  Zn  Zn89  1  0.63718538  0.75296316  0.38564078  1
  Zn  Zn90  1  0.37759641  0.87665867  -0.00227002  1
  Zn  Zn91  1  0.86624752  -0.00539752  0.36945835  1
  Zn  Zn92  1  0.70949268  0.36473769  0.64139378  1
  Zn  Zn93  1  0.38896000  0.61587448  0.24314907  1
  Zn  Zn94  1  0.86923459  0.75781764  0.13056082  1
  Zn  Zn95  1  0.49909850  0.00225961  0.00340684  1
  Zn  Zn96  1  0.37831183  0.00564321  0.87530390  1
  Zn  Zn97  1  0.25185752  0.00110221  0.24713052  1
  Zn  Zn98  1  0.12785402  0.25899583  0.87253625  1
  Zn  Zn99  1  0.62308563  0.12846194  0.00190779  1
  Zn  Zn100  1  0.00168896  0.87459273  0.87477062  1
  Zn  Zn101  1  0.86634480  0.25267093  0.62338381  1
  Zn  Zn102  1  0.62102576  0.62470322  0.00455176  1
  Zn  Zn103  1  0.87181383  0.62081692  0.74562725  1
  Zn  Zn104  1  0.12976068  0.00191047  0.12220405  1
  Zn  Zn105  1  0.24422915  0.36603571  0.62387829  1
  Zn  Zn106  1  0.62754943  0.25193383  0.37504578  1
  Zn  Zn107  1  0.19063371  0.18797050  0.18666602  1
  Zn  Zn108  1  0.18787527  0.18863930  0.68968246  1
  Zn  Zn109  1  0.19115435  0.68692721  0.18604744  1
  Zn  Zn110  1  0.18800296  0.68184603  0.68568442  1
  Zn  Zn111  1  0.69026519  0.19066585  0.18713396  1
  Zn  Zn112  1  0.69130759  0.19043524  0.68221469  1
  Zn  Zn113  1  0.69176387  0.69648878  0.18999413  1
  Zn  Zn114  1  0.68769063  0.68157081  0.69479322  1
  Zn  Zn115  1  0.31213256  0.31524418  0.31079114  1
  Zn  Zn116  1  0.31723913  0.31590386  0.81057795  1
  Zn  Zn117  1  0.31798383  0.80919274  0.30945438  1
  Zn  Zn118  1  0.31382582  0.81307730  0.81260941  1
  Zn  Zn119  1  0.80926111  0.30736172  0.31192254  1
  Zn  Zn120  1  0.81594614  0.31300631  0.81377234  1
  Zn  Zn121  1  0.81538396  0.80515851  0.31879928  1
  Zn  Zn122  1  0.81026503  0.81410687  0.81748241  1
  Zn  Zn123  1  0.18879671  0.43698870  0.43786510  1
  Zn  Zn124  1  0.18620928  0.44152983  0.93413335  1
  Zn  Zn125  1  0.18700783  0.94081574  0.43573019  1
  Zn  Zn126  1  0.19012554  0.93879102  0.93526731  1
  Zn  Zn127  1  0.68788061  0.43936444  0.43294361  1
  Zn  Zn128  1  0.67805886  0.43411071  0.93618701  1
  Zn  Zn129  1  0.69095679  0.94073054  0.43713969  1
  Zn  Zn130  1  0.68458199  0.94305477  0.93603814  1
  Zn  Zn131  1  0.31512303  0.06265515  0.05752401  1
  Zn  Zn132  1  0.30932053  0.06272187  0.55871166  1
  Zn  Zn133  1  0.30780136  0.56447331  0.06032851  1
  Zn  Zn134  1  0.31628702  0.55787181  0.56607430  1
  Zn  Zn135  1  0.81511890  0.06492646  0.05964131  1
  Zn  Zn136  1  0.81137083  0.06185969  0.55897919  1
  Zn  Zn137  1  0.80857606  0.57075993  0.06129511  1
  Zn  Zn138  1  0.81033840  0.55434722  0.57114153  1
  Zn  Zn139  1  0.45722821  0.41564131  0.15725293  1
  Zn  Zn140  1  0.43599621  0.43212574  0.68778033  1
  Zn  Zn141  1  0.43950529  0.93980722  0.18544518  1
  Zn  Zn142  1  0.43932047  0.93723732  0.68860148  1
  Zn  Zn143  1  0.93777741  0.43999304  0.18507482  1
  Zn  Zn144  1  0.93050731  0.44593657  0.69076438  1
  Zn  Zn145  1  0.94298249  0.93996445  0.18467279  1
  Zn  Zn146  1  0.93762767  0.93346830  0.68448174  1
  Zn  Zn147  1  0.06133645  0.06068511  0.31087727  1
  Zn  Zn148  1  0.06796562  0.06607196  0.81276158  1
  Zn  Zn149  1  0.06260535  0.56181270  0.31247219  1
  Zn  Zn150  1  0.06418122  0.56615516  0.80915688  1
  Zn  Zn151  1  0.56562810  0.06460579  0.30881694  1
  Zn  Zn152  1  0.55876122  0.14839948  0.81486103  1
  Zn  Zn153  1  0.56812399  0.55343073  0.31153441  1
  Zn  Zn154  1  0.56191505  0.55945324  0.81716826  1
  Zn  Zn155  1  0.44131249  0.18737136  0.43916323  1
  Zn  Zn156  1  0.44375845  0.19859093  0.93529397  1
  Zn  Zn157  1  0.47243137  0.69670689  0.45090137  1
  Zn  Zn158  1  0.44347901  0.68305288  0.94050134  1
  Zn  Zn159  1  0.93527604  0.18858227  0.43477754  1
  Zn  Zn160  1  0.93750253  0.19167927  0.93555851  1
  Zn  Zn161  1  0.93897097  0.68328290  0.43313909  1
  Zn  Zn162  1  0.93984836  0.69072848  0.93402858  1
  Zn  Zn163  1  0.05964168  0.31849982  0.05754283  1
  Zn  Zn164  1  0.05477294  0.31187846  0.56318179  1
  Zn  Zn165  1  0.06116305  0.81353653  0.06200162  1
  Zn  Zn166  1  0.06458472  0.81163153  0.56129957  1
  Zn  Zn167  1  0.56191506  0.31841410  0.05654228  1
  Zn  Zn168  1  0.55235538  0.31439951  0.57907334  1
  Zn  Zn169  1  0.56465553  0.81690997  0.06423636  1
  Zn  Zn170  1  0.56625299  0.80914629  0.56209299  1
  O  O171  1  0.12265136  0.12359713  0.11644913  1
  O  O172  1  0.11939338  0.12152516  0.61621222  1
  O  O173  1  0.11906999  0.62053883  0.11892635  1
  O  O174  1  0.12482774  0.61529346  0.61135897  1
  O  O175  1  0.61922701  0.11684592  0.12920573  1
  O  O176  1  0.61597797  0.11628123  0.61844401  1
  O  O177  1  0.63792474  0.61216495  0.12954558  1
  O  O178  1  0.60919097  0.62806847  0.63057224  1
  O  O179  1  0.38036032  0.38079989  0.38190890  1
  O  O180  1  0.36648912  0.38575748  0.88512236  1
  O  O181  1  0.38014436  0.88422054  0.37731677  1
  O  O182  1  0.38683629  0.87523484  0.87411152  1
  O  O183  1  0.87712757  0.37984705  0.37950059  1
  O  O184  1  0.88367272  0.37473748  0.88866229  1
  O  O185  1  0.88252528  0.87652681  0.38207598  1
  O  O186  1  0.87943860  0.88828760  0.88091469  1
  O  O187  1  0.25543441  0.01158458  0.37272274  1
  O  O188  1  0.25179835  0.00896095  0.86661680  1
  O  O189  1  0.25804750  0.50222186  0.36819819  1
  O  O190  1  0.25348803  0.49950436  0.86001446  1
  O  O191  1  0.75184231  0.01649900  0.37705055  1
  O  O192  1  0.76006339  0.00432986  0.86707781  1
  O  O193  1  0.76244912  0.50718039  0.37502589  1
  O  O194  1  0.74702800  0.51279748  0.88164088  1
  O  O195  1  0.24388863  0.49416946  0.13210021  1
  O  O196  1  0.24282388  0.49506768  0.63233895  1
  O  O197  1  0.25061315  0.98731537  0.12416495  1
  O  O198  1  0.24383501  0.99645919  0.63014520  1
  O  O199  1  0.75168024  0.49054079  0.12407408  1
  O  O200  1  0.74144191  0.48385560  0.63481976  1
  O  O201  1  0.73780157  1.00858927  0.12489790  1
  O  O202  1  0.74244123  0.99486187  0.62752102  1
  O  O203  1  0.00500299  0.37033096  0.25424596  1
  O  O204  1  -0.01108865  0.37095748  0.76401962  1
  O  O205  1  0.00737606  0.86781948  0.25208493  1
  O  O206  1  0.00970248  0.86650987  0.74869656  1
  O  O207  1  0.51014773  0.38151608  0.25816028  1
  O  O208  1  0.47776495  0.36384103  0.76581998  1
  O  O209  1  0.50862823  0.87192423  0.25441680  1
  O  O210  1  0.50693776  0.86768772  0.75393605  1
  O  O211  1  0.49204809  0.12303943  0.23891340  1
  O  O212  1  0.49415067  0.10272482  0.73295703  1
  O  O213  1  0.50543745  0.64056413  0.26190470  1
  O  O214  1  0.49126858  0.62678025  0.74522212  1
  O  O215  1  0.99615478  0.13152726  0.24299017  1
  O  O216  1  0.99525104  0.13081097  0.74587940  1
  O  O217  1  0.99825685  0.63177650  0.24174509  1
  O  O218  1  0.99818921  0.63954093  0.74972454  1
  O  O219  1  0.37264879  0.25085592  0.01005384  1
  O  O220  1  0.37360814  0.26087968  0.49648282  1
  O  O221  1  0.36695731  0.75123234  0.00418389  1
  O  O222  1  0.37571598  0.75441110  0.50493718  1
  O  O223  1  0.86984191  0.25497962  0.01037422  1
  O  O224  1  0.88139895  0.26754841  0.49827705  1
  O  O225  1  0.88075610  0.77084500  -0.00332094  1
  O  O226  1  0.88739179  0.76157242  0.49847282  1
  O  O227  1  0.11594395  0.23795901  0.49386556  1
  O  O228  1  0.12078589  0.24014479  0.99872081  1
  O  O229  1  0.13446409  0.74056958  0.49857219  1
  O  O230  1  0.12892291  0.74673690  0.99164038  1
  O  O231  1  0.61346291  0.23943176  0.50414836  1
  O  O232  1  0.64004028  0.25117903  1.00798335  1
  O  O233  1  0.57902085  0.73807211  0.48002226  1
  O  O234  1  0.62522230  0.75372949  0.98887512  1
  O  O235  1  0.48463774  0.24332545  0.12409483  1
  O  O236  1  0.47869420  0.23306397  0.61773522  1
  O  O237  1  0.49277462  0.75662761  0.13333657  1
  O  O238  1  0.49231405  0.74291115  0.63415148  1
  O  O239  1  0.99362166  0.24735947  0.12682621  1
  O  O240  1  0.99280565  0.24417189  0.63275028  1
  O  O241  1  0.99735903  0.74466542  0.13507824  1
  O  O242  1  1.00961718  0.74824247  0.63979370  1
  O  O243  1  0.00576848  0.25504319  0.36700121  1
  O  O244  1  0.00105116  0.25945745  0.86783833  1
  O  O245  1  0.00554576  0.75323006  0.36288987  1
  O  O246  1  0.01274613  0.75343960  0.86427474  1
  O  O247  1  0.50279104  0.26409501  0.37873050  1
  O  O248  1  0.51278426  0.24415204  0.85987969  1
  O  O249  1  0.48555252  0.76925552  0.35978884  1
  O  O250  1  0.50727080  0.75691299  0.86824877  1
  O  O251  1  0.23644648  0.11936417  0.48935621  1
  O  O252  1  0.24176459  0.12042822  0.98498337  1
  O  O253  1  0.24662500  0.62606785  0.49485465  1
  O  O254  1  0.23713616  0.64115756  1.00657222  1
  O  O255  1  0.73758630  0.12253775  0.49444563  1
  O  O256  1  0.75187921  0.13514123  0.99291729  1
  O  O257  1  0.75057420  0.61465800  0.49042470  1
  O  O258  1  0.74404621  0.63045326  0.98940536  1
  O  O259  1  0.24292184  0.37893449  0.01306984  1
  O  O260  1  0.26471003  0.37762186  0.50076563  1
  O  O261  1  0.24905545  0.86468534  0.00658871  1
  O  O262  1  0.25629059  0.87031433  0.50318653  1
  O  O263  1  0.76073271  0.37111187  0.00317851  1
  O  O264  1  0.76058918  0.37896556  0.49966629  1
  O  O265  1  0.76678458  0.88086045  -0.00607404  1
  O  O266  1  0.76059836  0.87668684  0.50606417  1
  O  O267  1  0.13374176  0.49649177  0.24303781  1
  O  O268  1  0.13665877  0.50682893  0.74101286  1
  O  O269  1  0.12634126  0.98675722  0.24681997  1
  O  O270  1  0.13253569  0.99379357  0.74394135  1
  O  O271  1  0.63162845  0.48821272  0.23946609  1
  O  O272  1  0.64603080  0.50867362  0.75907043  1
  O  O273  1  0.62442614  0.98887521  0.24126556  1
  O  O274  1  0.63081321  0.99183905  0.73323342  1
  O  O275  1  0.37413659  0.01024006  0.25581141  1
  O  O276  1  0.35997119  -0.00559997  0.74976140  1
  O  O277  1  0.36640935  0.49846481  0.25770814  1
  O  O278  1  0.36553930  0.50374573  0.75903511  1
  O  O279  1  0.88400657  0.01340260  0.24987116  1
  O  O280  1  0.87492558  0.00487387  0.75616813  1
  O  O281  1  0.88419884  0.50925284  0.25957149  1
  O  O282  1  0.85453743  0.50342163  0.75214624  1
  O  O283  1  0.12002249  0.37054801  0.37019348  1
  O  O284  1  0.10696329  0.37538622  0.88252877  1
  O  O285  1  0.12068120  0.87262166  0.36681803  1
  O  O286  1  0.12469885  0.86839409  0.86641821  1
  O  O287  1  0.61871595  0.37505895  0.36679254  1
  O  O288  1  0.61538690  0.37191448  0.86157942  1
  O  O289  1  0.61866242  0.87681977  0.36600079  1
  O  O290  1  0.62093762  0.87081300  0.86785106  1
  O  O291  1  0.37743198  0.13501490  0.13020528  1
  O  O292  1  0.37742540  0.13184696  0.61805981  1
  O  O293  1  0.36761634  0.63811251  0.12733224  1
  O  O294  1  0.38194835  0.62881924  0.63316754  1
  O  O295  1  0.88062564  0.13318665  0.12974970  1
  O  O296  1  0.88091789  0.12412644  0.63033814  1
  O  O297  1  0.88433210  0.62360973  0.13233206  1
  O  O298  1  0.87624238  0.62149233  0.62971445  1
  O  O299  1  0.25983431  0.25575658  0.12578284  1
  O  O300  1  0.26078067  0.24701752  0.62289628  1
  O  O301  1  0.25609050  0.75881423  0.11852938  1
  O  O302  1  0.25766382  0.75302441  0.61803424  1
  O  O303  1  0.75949553  0.25903007  0.11788825  1
  O  O304  1  0.75324628  0.26069745  0.62526720  1
  O  O305  1  0.75788433  0.74978638  0.11876839  1
  O  O306  1  0.74052107  0.76011537  0.62813920  1
  O  O307  1  0.24323697  0.23904071  0.37043934  1
  O  O308  1  0.24707279  0.24003899  0.86710233  1
  O  O309  1  0.25340478  0.74146404  0.38022653  1
  O  O310  1  0.23862951  0.75423419  0.88120237  1
  O  O311  1  0.74632122  0.23519138  0.37500986  1
  O  O312  1  0.75944739  0.23947631  0.88441980  1
  O  O313  1  0.75200274  0.73189080  0.38028626  1
  O  O314  1  0.74154079  0.74553243  0.87870052  1
  O  O315  1  0.00658168  0.11973780  0.00250422  1
  O  O316  1  0.00429267  0.11782166  0.50223630  1
  O  O317  1  0.00644443  0.63437005  0.01280647  1
  O  O318  1  0.00968932  0.61644615  0.49742741  1
  O  O319  1  0.50333885  0.12720352  0.01268823  1
  O  O320  1  0.50559913  0.11248093  0.50271283  1
  O  O321  1  0.50788983  0.61467800  -0.00223537  1
  O  O322  1  0.48955559  0.60091090  0.51201774  1
  O  O323  1  0.48900659  0.38040540  0.49746487  1
  O  O324  1  0.48410513  0.39459604  1.04390875  1
  O  O325  1  0.49512508  0.88691558  0.49121302  1
  O  O326  1  0.50033170  0.87674582  0.98936463  1
  O  O327  1  0.99634967  0.38290271  0.49028569  1
  O  O328  1  0.98642693  0.37596359  0.98996348  1
  O  O329  1  0.99707175  0.88195534  0.49641867  1
  O  O330  1  0.99545702  0.88678923  0.99717439  1
  O  O331  1  0.49507198  0.49095570  0.38550126  1
  O  O332  1  0.48201152  0.49847140  0.87445042  1
  O  O333  1  0.49641946  0.99380421  0.37795388  1
  O  O334  1  0.50193851  0.98720839  0.87245787  1
  O  O335  1  0.99174095  0.49546832  0.38053152  1
  O  O336  1  1.00072927  0.49044695  0.86926665  1
  O  O337  1  0.99931515  0.99294060  0.38280376  1
  O  O338  1  0.99468358  1.00164147  0.88050152  1
  O  O339  1  0.00525551  0.00930533  0.11421115  1
  O  O340  1  0.00614209  0.00548489  0.61787408  1
  O  O341  1  0.01427441  0.50872456  0.12962732  1
  O  O342  1  0.00807357  0.50166804  0.61907438  1
  O  O343  1  0.50881346  0.01027792  0.12493244  1
  O  O344  1  0.50526603  0.00000553  0.61376896  1
  O  O345  1  0.51513924  0.51684017  0.14322432  1
  O  O346  1  0.49408633  0.50065029  0.61665060  1
  O  O347  1  0.24224713  0.38370289  0.24567667  1
  O  O348  1  0.25329101  0.38925129  0.74372976  1
  O  O349  1  0.24405469  0.87417308  0.24291100  1
  O  O350  1  0.24413613  0.88043100  0.74343113  1
  O  O351  1  0.74607465  0.37104834  0.23904952  1
  O  O352  1  0.75160062  0.38580209  0.75648584  1
  O  O353  1  0.73906058  0.87184118  0.25982482  1
  O  O354  1  0.74660859  0.88039153  0.74191836  1
  O  O355  1  0.25617752  0.12135853  0.25753423  1
  O  O356  1  0.24200933  0.11678784  0.76417760  1
  O  O357  1  0.25109451  0.61440241  0.25587430  1
  O  O358  1  0.25944253  0.61016616  0.74117639  1
  O  O359  1  0.76102037  0.12981618  0.25581433  1
  O  O360  1  0.75897056  0.11786438  0.75610555  1
  O  O361  1  0.76398100  0.62820010  0.25613674  1
  O  O362  1  0.75236624  0.62032232  0.76472404  1
  O  O363  1  0.36941657  0.12277291  0.37024045  1
  O  O364  1  0.36237844  0.12795813  0.87932982  1
  O  O365  1  0.37528043  0.61032817  0.37502582  1
  O  O366  1  0.37405325  0.62844434  0.86111996  1
  O  O367  1  0.86875589  0.12464068  0.36559455  1
  O  O368  1  0.86962959  0.11506819  0.87198909  1
  O  O369  1  0.86943911  0.61587062  0.36937885  1
  O  O370  1  0.86091424  0.63202695  0.87469869  1
  O  O371  1  0.12849101  0.38255249  0.12867067  1
  O  O372  1  0.12543086  0.38651324  0.61665070  1
  O  O373  1  0.13399254  0.87495911  0.13144201  1
  O  O374  1  0.13332579  0.88055361  0.62813525  1
  O  O375  1  0.63542424  0.38253174  0.13174793  1
  O  O376  1  0.59864708  0.35334294  0.67357466  1
  O  O377  1  0.62589815  0.88756152  0.13753469  1
  O  O378  1  0.63077733  0.88024394  0.62523835  1
  O  O379  1  0.11986974  0.25574372  0.25413216  1
  O  O380  1  0.10900024  0.24891433  0.74879332  1
  O  O381  1  0.12098811  0.75893829  0.24962561  1
  O  O382  1  0.12388182  0.75303830  0.75528901  1
  O  O383  1  0.62666800  0.26375422  0.24965164  1
  O  O384  1  0.62067241  0.22933028  0.76023763  1
  O  O385  1  0.61970648  0.76356191  0.25508306  1
  O  O386  1  0.61972004  0.75510967  0.76051969  1
  O  O387  1  0.37183990  0.23781484  0.25009410  1
  O  O388  1  0.36814199  0.24309881  0.73736608  1
  O  O389  1  0.38461566  0.74621327  0.23930212  1
  O  O390  1  0.37724541  0.74203724  0.74367149  1
  O  O391  1  0.88078709  0.24469823  0.23773655  1
  O  O392  1  0.88488904  0.24112479  0.75072808  1
  O  O393  1  0.88623312  0.74118743  0.25112925  1
  O  O394  1  0.89110259  0.75672590  0.75535200  1
  O  O395  1  0.37927443  0.48669742  0.49392030  1
  O  O396  1  0.36532277  0.51157651  0.97920293  1
  O  O397  1  0.38225718  0.99648058  0.49188165  1
  O  O398  1  0.38056151  0.99545516  0.99441482  1
  O  O399  1  0.88064850  0.48885027  0.49174439  1
  O  O400  1  0.87436252  0.48959188  1.00528589  1
  O  O401  1  0.88737610  0.99484959  0.49816335  1
  O  O402  1  0.88469477  0.99548059  0.99342265  1
  O  O403  1  0.11644938  0.00713990  -0.00264548  1
  O  O404  1  0.11449482  0.00772788  0.50310102  1
  O  O405  1  0.13151387  0.51297712  0.00908889  1
  O  O406  1  0.11999858  0.50492622  0.50441382  1
  O  O407  1  0.62332715  0.00069829  0.01605404  1
  O  O408  1  0.61815296  0.00357201  0.50817544  1
  O  O409  1  0.62491931  0.49643187  0.02045616  1
  O  O410  1  0.60870488  0.48837505  0.50182431  1
  O  O411  1  0.36109140  0.35598065  0.13900931  1
  O  O412  1  0.37379122  0.35836933  0.61424681  1
  O  O413  1  0.36765198  0.86547008  0.12468866  1
  O  O414  1  0.37101202  0.86769412  0.61855429  1
  O  O415  1  0.87277259  0.37066980  0.11604154  1
  O  O416  1  0.88165890  0.37735065  0.60803155  1
  O  O417  1  0.88024131  0.87961053  0.11013030  1
  O  O418  1  0.86476293  0.87823983  0.61494838  1
  O  O419  1  0.13076047  0.12863681  0.37926405  1
  O  O420  1  0.13353019  0.13075775  0.88233339  1
  O  O421  1  0.13296404  0.62313252  0.38543804  1
  O  O422  1  0.12001190  0.63262950  0.88642505  1
  O  O423  1  0.62873097  0.12734939  0.38344579  1
  O  O424  1  0.64220258  0.10865919  0.88359058  1
  O  O425  1  0.64363121  0.61874127  0.37058847  1
  O  O426  1  0.63422155  0.63467517  0.87581741  1
