# generated using pymatgen
data_V85Zn86O256
_symmetry_space_group_name_H-M   'P 1'
_cell_length_a   16.93613137
_cell_length_b   16.95176112
_cell_length_c   16.95801358
_cell_angle_alpha   90.02182308
_cell_angle_beta   90.03592097
_cell_angle_gamma   90.03148903
_symmetry_Int_Tables_number   1
_chemical_formula_structural   V85Zn86O256
_chemical_formula_sum   'V85 Zn86 O256'
_cell_volume   4868.59707574
_cell_formula_units_Z   1
loop_
 _symmetry_equiv_pos_site_id
 _symmetry_equiv_pos_as_xyz
  1  'x, y, z'
loop_
 _atom_site_type_symbol
 _atom_site_label
 _atom_site_symmetry_multiplicity
 _atom_site_fract_x
 _atom_site_fract_y
 _atom_site_fract_z
 _atom_site_occupancy
  V  V0  1  0.24058998  0.38391135  0.62682938  1
  V  V1  1  0.49939348  0.50489761  0.49834622  1
  V  V2  1  0.88050095  -0.00520886  0.37309715  1
  V  V3  1  0.37143060  0.24496553  0.62227053  1
  V  V4  1  0.75702906  0.12507322  0.37184230  1
  V  V5  1  0.37056272  0.36817878  0.50035269  1
  V  V6  1  0.49835336  0.24716944  0.24645579  1
  V  V7  1  0.37474870  0.62427704  0.25193673  1
  V  V8  1  0.36375701  0.38109943  0.00387456  1
  V  V9  1  0.50645110  0.88062785  0.87531523  1
  V  V10  1  0.62179346  0.37455821  0.74987130  1
  V  V11  1  0.44189471  0.56731126  0.68283173  1
  V  V12  1  0.37343339  -0.00142209  0.36681488  1
  V  V13  1  0.87501258  0.11906900  0.75402671  1
  V  V14  1  0.25129373  0.87843639  0.12847837  1
  V  V15  1  0.37663117  0.10971487  0.74641961  1
  V  V16  1  0.49592129  0.12561536  0.11207797  1
  V  V17  1  0.00220080  0.24419793  0.25467712  1
  V  V18  1  -0.00083630  0.50077082  0.49908799  1
  V  V19  1  -0.00121581  0.12169603  0.62302347  1
  V  V20  1  0.50494785  0.74937876  0.25858944  1
  V  V21  1  0.12939520  -0.00089100  0.63028543  1
  V  V22  1  0.24874312  0.11878946  0.36686348  1
  V  V23  1  0.75322385  0.75067822  -0.00870092  1
  V  V24  1  0.00121758  0.76032224  0.74916810  1
  V  V25  1  0.62394784  -0.01026467  0.61757085  1
  V  V26  1  0.61728987  0.24780121  0.87812247  1
  V  V27  1  0.37708644  0.75112305  0.12634860  1
  V  V28  1  0.12118606  0.62298211  0.50389795  1
  V  V29  1  0.36003910  0.25483441  0.12188731  1
  V  V30  1  0.12524692  0.75198681  0.88192444  1
  V  V31  1  0.11994974  0.75488288  0.37834430  1
  V  V32  1  0.62492504  0.62839339  0.49812091  1
  V  V33  1  0.74977154  0.12085938  0.87612750  1
  V  V34  1  0.01262967  0.62811382  0.11715287  1
  V  V35  1  -0.01055395  0.87882921  0.88145958  1
  V  V36  1  0.62795467  0.50280928  0.62334288  1
  V  V37  1  0.62025267  0.12032305  0.49835565  1
  V  V38  1  0.24963655  0.74030906  0.00301291  1
  V  V39  1  0.37502402  0.49968312  0.37406369  1
  V  V40  1  0.88256279  0.37496235  -0.00126876  1
  V  V41  1  -0.00866091  0.11979198  0.13161767  1
  V  V42  1  0.50253519  0.62510173  0.12356515  1
  V  V43  1  0.61898027  0.00163388  0.12031668  1
  V  V44  1  0.86981088  0.49641074  0.36176530  1
  V  V45  1  0.13378649  0.25384498  0.37742769  1
  V  V46  1  0.74821043  0.24911987  0.50123219  1
  V  V47  1  0.74986605  0.75175508  0.49807496  1
  V  V48  1  0.75108981  0.37674577  0.62963968  1
  V  V49  1  0.62599785  0.24910607  0.37277472  1
  V  V50  1  0.75323520  0.50496209  0.75790817  1
  V  V51  1  0.87524087  0.75056600  0.62559034  1
  V  V52  1  0.74952314  0.62454707  0.36757692  1
  V  V53  1  0.25377640  0.87913846  0.63463792  1
  V  V54  1  0.75469635  0.00341422  0.24845435  1
  V  V55  1  0.87112469  0.24737217  0.13422847  1
  V  V56  1  0.24892353  0.62680579  0.37552988  1
  V  V57  1  0.74905381  0.25233784  -0.00024596  1
  V  V58  1  0.23838808  0.48961932  0.25020378  1
  V  V59  1  0.01194865  0.60508993  0.64984903  1
  V  V60  1  0.87884721  0.50411770  0.87731729  1
  V  V61  1  -0.00321355  0.75333268  0.25515768  1
  V  V62  1  -0.01200585  -0.00313476  -0.00114638  1
  V  V63  1  0.38051966  0.88284466  0.00089203  1
  V  V64  1  0.63190842  0.62526916  -0.00600311  1
  V  V65  1  0.63612101  0.49992114  0.13111322  1
  V  V66  1  0.75332383  0.87573288  0.11897358  1
  V  V67  1  0.37942416  0.88076907  0.50017267  1
  V  V68  1  0.25646465  0.62813939  0.85323655  1
  V  V69  1  0.12888957  0.12714388  -0.00198201  1
  V  V70  1  0.00300056  0.37282879  0.37523470  1
  V  V71  1  0.49690906  0.37697696  0.88036026  1
  V  V72  1  0.12770368  0.00014114  0.12867032  1
  V  V73  1  0.12646699  0.87786370  0.25798017  1
  V  V74  1  0.87786920  0.24974034  0.62731658  1
  V  V75  1  0.62826779  0.87068955  0.25242444  1
  V  V76  1  0.88226570  0.87168427  0.49820153  1
  V  V77  1  0.12976194  0.12472429  0.49753093  1
  V  V78  1  0.50683286  0.88208786  0.37857226  1
  V  V79  1  0.74728769  -0.00327333  0.74570204  1
  V  V80  1  0.87313665  0.37740493  0.50198413  1
  V  V81  1  0.38291823  0.74975371  0.63209468  1
  V  V82  1  0.50033511  0.37388555  0.37336372  1
  V  V83  1  0.87570137  0.75259798  0.12112730  1
  V  V84  1  0.25132151  0.75257300  0.50110417  1
  Zn  Zn85  1  0.14470923  0.46643509  0.10636559  1
  Zn  Zn86  1  0.23581210  0.12161113  0.85494254  1
  Zn  Zn87  1  0.50541668  0.74595134  0.74853371  1
  Zn  Zn88  1  0.00236355  -0.00597975  0.49534819  1
  Zn  Zn89  1  0.62676331  0.74694147  0.86882844  1
  Zn  Zn90  1  0.50360110  0.24484907  0.74241487  1
  Zn  Zn91  1  0.20602488  0.28608469  -0.04141007  1
  Zn  Zn92  1  0.37761561  0.51187244  0.87280507  1
  Zn  Zn93  1  0.62888232  0.86902588  0.74457520  1
  Zn  Zn94  1  0.13223021  0.88550317  0.76074974  1
  Zn  Zn95  1  0.62015101  0.12106002  -0.00332122  1
  Zn  Zn96  1  0.50138145  0.12157731  0.61664280  1
  Zn  Zn97  1  0.36972365  0.12172535  0.24416068  1
  Zn  Zn98  1  0.86814752  0.63311856  0.75937282  1
  Zn  Zn99  1  0.36953147  0.00045286  0.87745994  1
  Zn  Zn100  1  0.00923357  0.50882040  -0.00223776  1
  Zn  Zn101  1  0.03210395  0.24606371  0.76106764  1
  Zn  Zn102  1  0.50196390  0.50231166  0.00103274  1
  Zn  Zn103  1  0.76512889  0.38690274  0.13430559  1
  Zn  Zn104  1  0.03290958  0.36965939  0.87402527  1
  Zn  Zn105  1  0.63138181  0.37816597  0.25075621  1
  Zn  Zn106  1  0.87457850  0.61924769  0.24501708  1
  Zn  Zn107  1  0.18183892  0.18816422  0.18840449  1
  Zn  Zn108  1  0.19899488  0.18299797  0.67212891  1
  Zn  Zn109  1  0.18899740  0.68980657  0.19189368  1
  Zn  Zn110  1  0.18407020  0.69894936  0.68624957  1
  Zn  Zn111  1  0.68588888  0.18774760  0.18791852  1
  Zn  Zn112  1  0.68669277  0.18545129  0.68790267  1
  Zn  Zn113  1  0.68927108  0.68852685  0.18474833  1
  Zn  Zn114  1  0.68793596  0.68724564  0.68269743  1
  Zn  Zn115  1  0.31322352  0.31069630  0.31093059  1
  Zn  Zn116  1  0.21142538  0.30425129  0.80097465  1
  Zn  Zn117  1  0.31264838  0.81302820  0.31251962  1
  Zn  Zn118  1  0.31765618  0.81271581  0.81566945  1
  Zn  Zn119  1  0.81304106  0.31416925  0.31072873  1
  Zn  Zn120  1  0.89021981  0.31016009  0.81385560  1
  Zn  Zn121  1  0.81236059  0.81147966  0.31348923  1
  Zn  Zn122  1  0.81316281  0.81763790  0.81256488  1
  Zn  Zn123  1  0.18780360  0.43895966  0.44086291  1
  Zn  Zn124  1  0.18686360  0.45827017  0.92807245  1
  Zn  Zn125  1  0.19119574  0.94049786  0.44253035  1
  Zn  Zn126  1  0.19029261  0.94169720  0.94030552  1
  Zn  Zn127  1  0.68826669  0.43916910  0.43576750  1
  Zn  Zn128  1  0.69113716  0.43463543  0.94093548  1
  Zn  Zn129  1  0.69441915  0.93380917  0.43787374  1
  Zn  Zn130  1  0.68800287  0.93863789  0.93789315  1
  Zn  Zn131  1  0.31077316  0.06203021  0.06336315  1
  Zn  Zn132  1  0.31205657  0.06107980  0.55570128  1
  Zn  Zn133  1  0.31178177  0.56054179  0.06650497  1
  Zn  Zn134  1  0.30730531  0.55883505  0.55886692  1
  Zn  Zn135  1  0.80954403  0.06443815  0.06218934  1
  Zn  Zn136  1  0.80946551  0.05877133  0.56062245  1
  Zn  Zn137  1  0.81827007  0.56728628  0.06002488  1
  Zn  Zn138  1  0.81958785  0.56645251  0.56284844  1
  Zn  Zn139  1  0.43843388  0.43880659  0.18749616  1
  Zn  Zn140  1  0.38605090  0.38553121  0.73373272  1
  Zn  Zn141  1  0.43973500  0.93807899  0.18918138  1
  Zn  Zn142  1  0.44916446  0.93376077  0.68473510  1
  Zn  Zn143  1  0.97243087  0.42617736  0.17716549  1
  Zn  Zn144  1  0.96401740  0.44712861  0.70253613  1
  Zn  Zn145  1  0.93792041  0.93369513  0.18920799  1
  Zn  Zn146  1  0.93554167  0.93712989  0.68560203  1
  Zn  Zn147  1  0.06185570  0.06227734  0.31089159  1
  Zn  Zn148  1  0.05967154  0.06341946  0.81366237  1
  Zn  Zn149  1  0.05839375  0.56810780  0.31344918  1
  Zn  Zn150  1  0.06056334  0.57107801  0.82167625  1
  Zn  Zn151  1  0.56395129  0.06241363  0.30777674  1
  Zn  Zn152  1  0.55756546  0.06107309  0.80705947  1
  Zn  Zn153  1  0.56559169  0.56348281  0.31397086  1
  Zn  Zn154  1  0.56874972  0.55739346  0.81763125  1
  Zn  Zn155  1  0.43682189  0.18555713  0.43460736  1
  Zn  Zn156  1  0.38612764  0.22282704  0.90393050  1
  Zn  Zn157  1  0.43887602  0.69172450  0.43967978  1
  Zn  Zn158  1  0.43905348  0.69517797  0.93689095  1
  Zn  Zn159  1  0.93800623  0.18451279  0.44068569  1
  Zn  Zn160  1  0.93732256  0.18312406  0.94180020  1
  Zn  Zn161  1  0.93600198  0.68377723  0.43570902  1
  Zn  Zn162  1  0.93509746  0.69171155  0.93753406  1
  Zn  Zn163  1  0.05596069  0.31007049  0.06783084  1
  Zn  Zn164  1  0.06347101  0.30872659  0.56174121  1
  Zn  Zn165  1  0.06429628  0.81354989  0.06352043  1
  Zn  Zn166  1  0.06260214  0.81326454  0.56601295  1
  Zn  Zn167  1  0.55911158  0.31358433  0.06302831  1
  Zn  Zn168  1  0.55897905  0.31315158  0.55976458  1
  Zn  Zn169  1  0.56465134  0.81193844  0.06133243  1
  Zn  Zn170  1  0.56400374  0.80938134  0.55985233  1
  O  O171  1  0.11222803  0.11671404  0.12422150  1
  O  O172  1  0.12031000  0.11814929  0.61443380  1
  O  O173  1  0.11198554  0.63277560  0.12955483  1
  O  O174  1  0.11651299  0.63671828  0.61329482  1
  O  O175  1  0.61569038  0.11754074  0.12595213  1
  O  O176  1  0.62574324  0.11846952  0.61303776  1
  O  O177  1  0.62076841  0.61778193  0.11985441  1
  O  O178  1  0.63310134  0.61571314  0.60779923  1
  O  O179  1  0.38047159  0.37720440  0.38199388  1
  O  O180  1  0.38333503  0.38034212  0.88876306  1
  O  O181  1  0.38136600  0.88029806  0.37996064  1
  O  O182  1  0.38472898  0.87630165  0.88437791  1
  O  O183  1  0.87934018  0.37832734  0.38438242  1
  O  O184  1  0.86168758  0.38895915  0.88917923  1
  O  O185  1  0.87087938  0.88366958  0.38281996  1
  O  O186  1  0.88996779  0.87282094  0.87803917  1
  O  O187  1  0.25940166  0.00667983  0.37684142  1
  O  O188  1  0.25508053  0.01007981  0.88095379  1
  O  O189  1  0.25613304  0.50740275  0.37064677  1
  O  O190  1  0.25744234  0.52351692  0.86716029  1
  O  O191  1  0.75755423  0.00553594  0.36729173  1
  O  O192  1  0.73948322  0.01447023  0.86796531  1
  O  O193  1  0.75910033  0.50820570  0.37626904  1
  O  O194  1  0.75376360  0.49634409  0.86443639  1
  O  O195  1  0.24770447  0.50451512  0.14399912  1
  O  O196  1  0.24897481  0.48382180  0.61994869  1
  O  O197  1  0.24031355  0.99105088  0.12516501  1
  O  O198  1  0.24224056  0.99023774  0.61637430  1
  O  O199  1  0.73956832  0.50421109  0.12358438  1
  O  O200  1  0.74983550  0.49213471  0.62606689  1
  O  O201  1  0.74589364  0.99433415  0.13153937  1
  O  O202  1  0.73813175  1.00610160  0.63390656  1
  O  O203  1  -0.01037993  0.36125603  0.27160651  1
  O  O204  1  -0.01204062  0.35719253  0.76091150  1
  O  O205  1  0.01188017  0.86249327  0.24471774  1
  O  O206  1  0.00067467  0.87308095  0.75997718  1
  O  O207  1  0.50223855  0.36451946  0.25510246  1
  O  O208  1  0.49979652  0.36982867  0.76537296  1
  O  O209  1  0.50892308  0.86853955  0.25589368  1
  O  O210  1  0.50575474  0.87143679  0.76223113  1
  O  O211  1  0.49610329  0.13673202  0.24619864  1
  O  O212  1  0.49176217  0.12627579  0.73722306  1
  O  O213  1  0.49780495  0.63361843  0.24738815  1
  O  O214  1  0.50205064  0.62236504  0.74506525  1
  O  O215  1  0.99724241  0.13020325  0.24369569  1
  O  O216  1  0.99031961  0.12545658  0.74268311  1
  O  O217  1  0.99816059  0.63887929  0.24246425  1
  O  O218  1  0.99140125  0.64966898  0.75738608  1
  O  O219  1  0.37767866  0.26960100  0.00883684  1
  O  O220  1  0.38228302  0.25835488  0.50468039  1
  O  O221  1  0.36963282  0.76072981  0.00936434  1
  O  O222  1  0.37062157  0.75920049  0.50645774  1
  O  O223  1  0.86682860  0.25455449  0.00938747  1
  O  O224  1  0.86973706  0.25358740  0.51059501  1
  O  O225  1  0.86596813  0.75047643  0.00869429  1
  O  O226  1  0.87319567  0.75302508  0.50523935  1
  O  O227  1  0.11812620  0.23646532  0.48867104  1
  O  O228  1  0.11866397  0.23309979  1.01151283  1
  O  O229  1  0.12972609  0.74760017  0.49501310  1
  O  O230  1  0.13599848  0.75629758  0.99275735  1
  O  O231  1  0.63010617  0.24289789  0.49224043  1
  O  O232  1  0.63038078  0.24952267  0.99502724  1
  O  O233  1  0.63710030  0.74104674  0.50271307  1
  O  O234  1  0.63553102  0.74152635  1.00290033  1
  O  O235  1  0.49451147  0.24370103  0.13165939  1
  O  O236  1  0.49007043  0.24598736  0.61994279  1
  O  O237  1  0.49913542  0.74149233  0.13523048  1
  O  O238  1  0.49036092  0.75179731  0.62556582  1
  O  O239  1  0.99047884  0.23758356  0.13596969  1
  O  O240  1  0.99250632  0.23785523  0.62504705  1
  O  O241  1  0.99384341  0.74628220  0.13026056  1
  O  O242  1  0.99835793  0.74561623  0.63681697  1
  O  O243  1  0.00461417  0.25230893  0.37224923  1
  O  O244  1  -0.01880108  0.25513938  0.86872695  1
  O  O245  1  0.00701284  0.74606739  0.36743175  1
  O  O246  1  0.00776082  0.75930223  0.87361033  1
  O  O247  1  0.50397603  0.25457141  0.36659759  1
  O  O248  1  0.50518671  0.25682437  0.87570798  1
  O  O249  1  0.49655442  0.76113788  0.36333548  1
  O  O250  1  0.50338906  0.76195143  0.87006103  1
  O  O251  1  0.23711247  0.12065012  0.48761040  1
  O  O252  1  0.22930312  0.12289985  1.01068846  1
  O  O253  1  0.24190125  0.63138112  0.49611113  1
  O  O254  1  0.25703829  0.63901582  1.00091859  1
  O  O255  1  0.74233655  0.13025047  0.49212746  1
  O  O256  1  0.74539922  0.13004929  0.99269797  1
  O  O257  1  0.74797419  0.63105039  0.49094877  1
  O  O258  1  0.74282151  0.63763398  1.00706850  1
  O  O259  1  0.26145101  0.38272169  0.00127201  1
  O  O260  1  0.26411435  0.37925636  0.50604164  1
  O  O261  1  0.25672251  0.86727930  0.01339843  1
  O  O262  1  0.26018076  0.86940392  0.50661361  1
  O  O263  1  0.75839572  0.36609568  0.01023377  1
  O  O264  1  0.75270015  0.37007558  0.50932456  1
  O  O265  1  0.74425030  0.86950604  0.01322662  1
  O  O266  1  0.76143088  0.85913822  0.49528682  1
  O  O267  1  0.13869603  0.50621776  0.25997456  1
  O  O268  1  0.05622143  0.52933881  0.71426650  1
  O  O269  1  0.11699705  0.99098626  0.23901888  1
  O  O270  1  0.12073511  1.00233194  0.73543315  1
  O  O271  1  0.62196131  0.50159005  0.23451875  1
  O  O272  1  0.63337091  0.49398082  0.74383901  1
  O  O273  1  0.63589021  0.99213687  0.24244753  1
  O  O274  1  0.63031959  0.99947780  0.73494095  1
  O  O275  1  0.37597854  0.00053672  0.26226525  1
  O  O276  1  0.38168815  0.00805132  0.74202020  1
  O  O277  1  0.36880634  0.50614456  0.25616645  1
  O  O278  1  0.38870643  0.50544023  0.74304144  1
  O  O279  1  0.86256615  -0.00810760  0.25624086  1
  O  O280  1  0.86615895  0.01257418  0.74062379  1
  O  O281  1  0.88724324  0.49634266  0.26128483  1
  O  O282  1  0.86975421  0.50078608  0.76066008  1
  O  O283  1  0.11659945  0.36465415  0.38597387  1
  O  O284  1  0.14798246  0.36193022  0.88199546  1
  O  O285  1  0.13238619  0.87500622  0.36414815  1
  O  O286  1  0.12000442  0.86798251  0.87739623  1
  O  O287  1  0.61734662  0.36818901  0.37528919  1
  O  O288  1  0.62026299  0.36674680  0.87147723  1
  O  O289  1  0.61959870  0.88148037  0.36513649  1
  O  O290  1  0.61493804  0.87315725  0.87696428  1
  O  O291  1  0.37907286  0.13405701  0.12471244  1
  O  O292  1  0.37870107  0.13031326  0.62033255  1
  O  O293  1  0.38452443  0.63013960  0.13199808  1
  O  O294  1  0.37874144  0.62771307  0.62393087  1
  O  O295  1  0.88371647  0.13110924  0.12179726  1
  O  O296  1  0.88242543  0.12868146  0.62551495  1
  O  O297  1  0.87756550  0.64075604  0.12895564  1
  O  O298  1  0.89253151  0.63452757  0.63018077  1
  O  O299  1  0.26024859  0.24996032  0.13160363  1
  O  O300  1  0.26694263  0.25599010  0.61317187  1
  O  O301  1  0.25620741  0.75520626  0.12072619  1
  O  O302  1  0.25821412  0.75920119  0.61783103  1
  O  O303  1  0.75735660  0.24281624  0.11520825  1
  O  O304  1  0.75343890  0.25643359  0.61899340  1
  O  O305  1  0.75667211  0.75865422  0.11945464  1
  O  O306  1  0.76476282  0.73966847  0.61214768  1
  O  O307  1  0.23809403  0.24378165  0.37026876  1
  O  O308  1  0.26900553  0.23284428  0.87945953  1
  O  O309  1  0.24358398  0.74613593  0.38149513  1
  O  O310  1  0.24567485  0.74728145  0.88263444  1
  O  O311  1  0.74739590  0.24184473  0.38027863  1
  O  O312  1  0.73654216  0.23939642  0.88935948  1
  O  O313  1  0.75854002  0.73802760  0.38571611  1
  O  O314  1  0.74931143  0.75771478  0.88785411  1
  O  O315  1  0.00485819  0.11362725  0.00932250  1
  O  O316  1  0.00804808  0.11959205  0.50710104  1
  O  O317  1  0.00031244  0.63457390  0.01374991  1
  O  O318  1  0.00642785  0.61721563  0.50369738  1
  O  O319  1  0.50083618  0.12824901  0.01311323  1
  O  O320  1  0.51679979  0.12408291  0.49207034  1
  O  O321  1  0.50815139  0.62883862  0.00993049  1
  O  O322  1  0.51195445  0.61874934  0.48932555  1
  O  O323  1  0.49172948  0.38355106  0.49236576  1
  O  O324  1  0.49756345  0.37936761  0.99114377  1
  O  O325  1  0.49381340  0.86823815  0.48762165  1
  O  O326  1  0.49335987  0.86866467  0.98973071  1
  O  O327  1  0.99421260  0.37910998  0.49397101  1
  O  O328  1  0.98855550  0.37158815  0.99266208  1
  O  O329  1  0.98808620  0.87421442  0.50087863  1
  O  O330  1  1.00467701  0.88931579  0.99782987  1
  O  O331  1  0.49424186  0.49255800  0.37555546  1
  O  O332  1  0.49711087  0.49328196  0.87965310  1
  O  O333  1  0.49424846  0.98875452  0.36847721  1
  O  O334  1  0.49629792  0.98493986  0.87277427  1
  O  O335  1  0.99492641  0.49219367  0.38202020  1
  O  O336  1  0.99434814  0.49336691  0.87894889  1
  O  O337  1  0.98417574  1.00555903  0.37453758  1
  O  O338  1  1.00420519  0.99445992  0.89105930  1
  O  O339  1  0.00282866  0.00272003  0.11966814  1
  O  O340  1  0.00498514  0.00951442  0.62203032  1
  O  O341  1  -0.01135524  0.52648981  0.12242494  1
  O  O342  1  -0.02542537  0.50334036  0.60223834  1
  O  O343  1  0.50834052  0.01168058  0.13534656  1
  O  O344  1  0.51898199  0.00042025  0.61953033  1
  O  O345  1  0.50682304  0.51489342  0.12629019  1
  O  O346  1  0.50330273  0.50913323  0.62168751  1
  O  O347  1  0.25023663  0.39105657  0.25876897  1
  O  O348  1  0.26728928  0.37460155  0.72994413  1
  O  O349  1  0.24232999  0.86694917  0.23730746  1
  O  O350  1  0.25224348  0.87190353  0.73792644  1
  O  O351  1  0.74403367  0.36599248  0.24219343  1
  O  O352  1  0.74300864  0.38495658  0.73585762  1
  O  O353  1  0.74316319  0.87883315  0.24211274  1
  O  O354  1  0.74824728  0.89279118  0.75718313  1
  O  O355  1  0.24875444  0.12679850  0.26231073  1
  O  O356  1  0.27313857  0.12168206  0.73862861  1
  O  O357  1  0.25681599  0.62314023  0.25915006  1
  O  O358  1  0.25197058  0.63625834  0.75486498  1
  O  O359  1  0.74614044  0.11475726  0.25843018  1
  O  O360  1  0.75358547  0.11750579  0.75698454  1
  O  O361  1  0.75154791  0.63186636  0.26317791  1
  O  O362  1  0.75285070  0.60910221  0.74096003  1
  O  O363  1  0.36642759  0.11606093  0.37481012  1
  O  O364  1  0.38672202  0.11968698  0.85202388  1
  O  O365  1  0.37035682  0.62159311  0.37137449  1
  O  O366  1  0.36130087  0.63368975  0.87508500  1
  O  O367  1  0.86236020  0.11694789  0.38283363  1
  O  O368  1  0.86292334  0.12799836  0.86501703  1
  O  O369  1  0.86868119  0.61360213  0.37040659  1
  O  O370  1  0.87720753  0.61072250  0.87865342  1
  O  O371  1  0.07942117  0.38620097  0.14474797  1
  O  O372  1  0.14149672  0.36618279  0.62112459  1
  O  O373  1  0.13272144  0.88092809  0.13301265  1
  O  O374  1  0.13543136  0.88270696  0.62622489  1
  O  O375  1  0.62126021  0.39424187  0.12299126  1
  O  O376  1  0.62997630  0.38106262  0.62847414  1
  O  O377  1  0.62958998  0.88167421  0.13357765  1
  O  O378  1  0.62733620  0.88609365  0.62111830  1
  O  O379  1  0.11014125  0.24471529  0.26109570  1
  O  O380  1  0.14072123  0.22955498  0.75390911  1
  O  O381  1  0.11961947  0.75815473  0.25885528  1
  O  O382  1  0.11622185  0.76081310  0.75859283  1
  O  O383  1  0.61552619  0.24940893  0.25661294  1
  O  O384  1  0.62460835  0.25690835  0.75825694  1
  O  O385  1  0.61876691  0.76100261  0.24518183  1
  O  O386  1  0.62670055  0.75175400  0.75017988  1
  O  O387  1  0.38180551  0.24950154  0.24085458  1
  O  O388  1  0.38165885  0.24394007  0.72855567  1
  O  O389  1  0.38398986  0.74547416  0.24537783  1
  O  O390  1  0.37733843  0.75369865  0.73483596  1
  O  O391  1  0.88231226  0.24900231  0.24020144  1
  O  O392  1  0.86117807  0.23422858  0.73321361  1
  O  O393  1  0.88352848  0.75136515  0.24385656  1
  O  O394  1  0.87861038  0.75404986  0.74233273  1
  O  O395  1  0.38121831  0.49439220  0.49253724  1
  O  O396  1  0.37959082  0.49220659  1.00233464  1
  O  O397  1  0.37473203  0.98635489  0.48962097  1
  O  O398  1  0.37453962  0.98586946  1.00551761  1
  O  O399  1  0.87846594  0.49477247  0.48636998  1
  O  O400  1  0.87855476  0.49233850  0.99651995  1
  O  O401  1  0.87320409  0.98849881  0.49278444  1
  O  O402  1  0.88897483  1.00196629  1.00570533  1
  O  O403  1  0.11573273  0.00732607  0.01462052  1
  O  O404  1  0.12083516  0.00494648  0.50884924  1
  O  O405  1  0.12347554  0.50547092  0.00467943  1
  O  O406  1  0.11418880  0.51126467  0.49629188  1
  O  O407  1  0.62893125  0.00078910  0.01670167  1
  O  O408  1  0.63800856  0.00561897  0.50971061  1
  O  O409  1  0.62592925  0.50890073  0.01023398  1
  O  O410  1  0.61813996  0.50337979  0.50534885  1
  O  O411  1  0.38196379  0.37083492  0.11247847  1
  O  O412  1  0.37367547  0.36200246  0.61515248  1
  O  O413  1  0.37090834  0.87065083  0.12353412  1
  O  O414  1  0.37301692  0.87055528  0.61738249  1
  O  O415  1  0.88192480  0.36479928  0.11821610  1
  O  O416  1  0.86721380  0.36530427  0.62129602  1
  O  O417  1  0.86544814  0.86459287  0.13045314  1
  O  O418  1  0.88046659  0.86038546  0.61642367  1
  O  O419  1  0.13016117  0.12740248  0.37940728  1
  O  O420  1  0.12066007  0.12042932  0.89410578  1
  O  O421  1  0.12769360  0.63331414  0.38660958  1
  O  O422  1  0.13974994  0.64122508  0.86947077  1
  O  O423  1  0.63590317  0.12695818  0.37851283  1
  O  O424  1  0.62516802  0.13351962  0.87420725  1
  O  O425  1  0.63663231  0.61750527  0.38634902  1
  O  O426  1  0.62371810  0.62656711  0.89026289  1
