# generated using pymatgen
data_V85Zn86O256
_symmetry_space_group_name_H-M   'P 1'
_cell_length_a   16.96175807
_cell_length_b   16.95005757
_cell_length_c   16.94897124
_cell_angle_alpha   89.91184932
_cell_angle_beta   89.95220681
_cell_angle_gamma   89.92141463
_symmetry_Int_Tables_number   1
_chemical_formula_structural   V85Zn86O256
_chemical_formula_sum   'V85 Zn86 O256'
_cell_volume   4872.86424121
_cell_formula_units_Z   1
loop_
 _symmetry_equiv_pos_site_id
 _symmetry_equiv_pos_as_xyz
  1  'x, y, z'
loop_
 _atom_site_type_symbol
 _atom_site_label
 _atom_site_symmetry_multiplicity
 _atom_site_fract_x
 _atom_site_fract_y
 _atom_site_fract_z
 _atom_site_occupancy
  V  V0  1  0.62673463  0.62982757  0.48556076  1
  V  V1  1  0.40021060  0.76597799  0.09030913  1
  V  V2  1  0.74618889  0.87512253  0.62700404  1
  V  V3  1  0.24724039  0.87379130  0.62345754  1
  V  V4  1  0.75137248  0.73894490  0.00421315  1
  V  V5  1  0.37710188  0.25245154  0.12061038  1
  V  V6  1  0.50897679  0.76685242  0.74835419  1
  V  V7  1  0.37396245  0.37467760  0.50806416  1
  V  V8  1  0.37194492  0.74976496  0.62589758  1
  V  V9  1  0.38683304  -0.01398678  0.88469535  1
  V  V10  1  0.00012587  0.00163809  0.49892174  1
  V  V11  1  0.24486883  0.73468388  -0.00399650  1
  V  V12  1  0.00578930  0.25123785  0.74694554  1
  V  V13  1  0.62462572  -0.00216613  0.12434749  1
  V  V14  1  0.62258575  0.11654846  -0.00980095  1
  V  V15  1  0.74801899  0.25357135  0.49850836  1
  V  V16  1  0.12016078  0.01142434  0.11616244  1
  V  V17  1  0.49635137  0.13053617  0.62448055  1
  V  V18  1  0.75686614  0.37709540  0.62414653  1
  V  V19  1  0.12463257  0.87283360  0.24718998  1
  V  V20  1  0.74547151  0.74877163  0.48835269  1
  V  V21  1  0.25106042  0.25365499  -0.00558516  1
  V  V22  1  0.74617730  0.24593945  -0.00229100  1
  V  V23  1  0.50021174  0.49999913  0.49565655  1
  V  V24  1  0.87510120  0.00213071  0.37370394  1
  V  V25  1  0.13020601  0.50271436  0.62426472  1
  V  V26  1  0.36944984  0.50719956  0.37513890  1
  V  V27  1  0.74526029  0.37624039  0.12902975  1
  V  V28  1  0.10380683  0.61842580  0.00393576  1
  V  V29  1  -0.00196670  0.12610013  0.62233153  1
  V  V30  1  0.87094895  0.00394793  0.87513058  1
  V  V31  1  0.49904557  0.62650994  0.62557075  1
  V  V32  1  0.07943006  0.19301313  0.93436739  1
  V  V33  1  0.25264344  0.24841147  0.50625345  1
  V  V34  1  0.24970391  0.86963875  0.11485446  1
  V  V35  1  0.12146987  0.74197622  0.87444049  1
  V  V36  1  0.87671474  0.87850964  0.00549249  1
  V  V37  1  0.00301241  0.62255465  0.61489616  1
  V  V38  1  0.37169598  0.87473813  0.49928731  1
  V  V39  1  0.87790291  0.38187534  0.00020179  1
  V  V40  1  0.12384887  -0.00063488  0.62377913  1
  V  V41  1  0.88299524  0.73794559  0.13016624  1
  V  V42  1  0.81181478  0.56823859  0.31986203  1
  V  V43  1  0.25391292  0.50524855  0.76492995  1
  V  V44  1  0.12922269  0.37435605  0.75967640  1
  V  V45  1  0.13142619  0.73888985  0.37637185  1
  V  V46  1  0.25091215  0.38053512  0.12642196  1
  V  V47  1  0.75045346  0.50271333  0.75324657  1
  V  V48  1  0.10283005  0.50306188  0.12700512  1
  V  V49  1  -0.00551179  0.74828266  0.74716869  1
  V  V50  1  0.37628199  0.62457785  0.76605904  1
  V  V51  1  0.87455528  0.87363791  0.50007667  1
  V  V52  1  0.50877350  0.62339394  0.12614448  1
  V  V53  1  0.24930610  -0.00117872  0.75344746  1
  V  V54  1  0.37366266  0.12343672  0.24518458  1
  V  V55  1  0.37251485  0.12930476  0.74786805  1
  V  V56  1  0.49765198  0.11767482  0.11495139  1
  V  V57  1  0.51310692  0.50895105  -0.00664763  1
  V  V58  1  0.51347204  0.74557399  0.26029710  1
  V  V59  1  0.62317751  -0.00112533  0.62860421  1
  V  V60  1  0.24943440  -0.00322326  0.24543545  1
  V  V61  1  0.62337652  0.12993568  0.49358530  1
  V  V62  1  0.12729771  0.37594418  0.25882859  1
  V  V63  1  0.74635513  0.12870032  0.36900532  1
  V  V64  1  0.49476343  0.25378578  0.74643186  1
  V  V65  1  0.88074549  0.24597117  0.12251264  1
  V  V66  1  0.00057543  0.73672418  0.24875520  1
  V  V67  1  0.37314648  -0.00188309  0.37242257  1
  V  V68  1  0.37244854  0.63574666  0.24907977  1
  V  V69  1  0.49783152  0.00179631  0.49969054  1
  V  V70  1  -0.00036224  0.25430752  0.25775316  1
  V  V71  1  0.50730866  0.87180254  0.37725676  1
  V  V72  1  0.37466231  0.39358762  -0.00459288  1
  V  V73  1  0.62776049  0.24780965  0.87160022  1
  V  V74  1  0.74690358  0.00835582  0.75343488  1
  V  V75  1  0.62399432  0.37693502  0.75027244  1
  V  V76  1  0.25260865  0.12388703  0.88058109  1
  V  V77  1  0.62625946  0.50268088  0.62351263  1
  V  V78  1  0.88294739  0.12209496  0.24376214  1
  V  V79  1  0.00218091  0.48601256  0.49328364  1
  V  V80  1  0.25135611  0.50602478  0.24957668  1
  V  V81  1  0.24662507  0.73551159  0.49707274  1
  V  V82  1  0.00223803  0.87398541  0.37327386  1
  V  V83  1  0.12308929  0.87119839  0.75100434  1
  V  V84  1  0.87530227  0.62330431  0.74921353  1
  Zn  Zn85  1  0.50433172  0.36587811  0.37434541  1
  Zn  Zn86  1  0.74953532  -0.00093403  0.24840346  1
  Zn  Zn87  1  0.88360558  0.50206081  0.87794718  1
  Zn  Zn88  1  -0.00421172  0.87626769  0.87421021  1
  Zn  Zn89  1  0.62174319  0.75477893  0.87930899  1
  Zn  Zn90  1  0.87663323  0.25305141  0.62535503  1
  Zn  Zn91  1  0.12913126  0.25019112  0.37555801  1
  Zn  Zn92  1  0.63337121  0.50636579  0.13007293  1
  Zn  Zn93  1  0.75438837  0.87512139  0.13050071  1
  Zn  Zn94  1  0.24893217  0.12681919  0.37378850  1
  Zn  Zn95  1  0.86961152  0.13076871  0.75145729  1
  Zn  Zn96  1  0.62976947  0.87603593  0.25570630  1
  Zn  Zn97  1  0.87012968  0.38179508  0.48265445  1
  Zn  Zn98  1  0.49624389  0.38227385  0.87285065  1
  Zn  Zn99  1  0.12440565  0.12719107  0.49416568  1
  Zn  Zn100  1  0.25457367  0.37310231  0.63208526  1
  Zn  Zn101  1  0.00203833  0.00743306  -0.00189168  1
  Zn  Zn102  1  0.87195754  0.74737734  0.62228670  1
  Zn  Zn103  1  0.74501782  0.62010867  0.88599223  1
  Zn  Zn104  1  0.00777012  0.37968170  0.88447307  1
  Zn  Zn105  1  0.50943338  0.24759918  0.25437707  1
  Zn  Zn106  1  0.62368609  0.37026903  0.26123965  1
  Zn  Zn107  1  0.18997434  0.19092024  0.18546092  1
  Zn  Zn108  1  0.18576074  0.18739580  0.68638468  1
  Zn  Zn109  1  0.18532153  0.68571474  0.18099370  1
  Zn  Zn110  1  0.18859563  0.68313147  0.68861235  1
  Zn  Zn111  1  0.68578430  0.18889592  0.18494182  1
  Zn  Zn112  1  0.68368941  0.18841254  0.68256288  1
  Zn  Zn113  1  0.69377870  0.68727472  0.19169555  1
  Zn  Zn114  1  0.68793966  0.68754662  0.68272446  1
  Zn  Zn115  1  0.34216398  0.30089989  0.32768050  1
  Zn  Zn116  1  0.31266680  0.31447162  0.81644983  1
  Zn  Zn117  1  0.31280269  0.81296260  0.31196266  1
  Zn  Zn118  1  0.31115519  0.80758982  0.81438044  1
  Zn  Zn119  1  0.80732132  0.30759277  0.31055968  1
  Zn  Zn120  1  0.81288726  0.31281440  0.81261748  1
  Zn  Zn121  1  0.81335706  0.81058315  0.30989730  1
  Zn  Zn122  1  0.77579094  0.83590504  0.83318611  1
  Zn  Zn123  1  0.19099199  0.44004949  0.43909630  1
  Zn  Zn124  1  0.18491307  0.44410823  0.94041186  1
  Zn  Zn125  1  0.18716686  0.93552348  0.43537266  1
  Zn  Zn126  1  0.18803241  0.93245427  0.93617916  1
  Zn  Zn127  1  0.68734722  0.44183376  0.42977107  1
  Zn  Zn128  1  0.68793449  0.43436357  0.93702883  1
  Zn  Zn129  1  0.68874381  0.94263763  0.44068162  1
  Zn  Zn130  1  0.68555795  0.93273051  0.94064580  1
  Zn  Zn131  1  0.30887569  0.06006657  0.05799815  1
  Zn  Zn132  1  0.31113880  0.06388981  0.56471607  1
  Zn  Zn133  1  0.31437223  0.57176760  0.06687757  1
  Zn  Zn134  1  0.31335639  0.56085410  0.56928368  1
  Zn  Zn135  1  0.80763007  0.06372764  0.06075045  1
  Zn  Zn136  1  0.81206166  0.06473919  0.56242297  1
  Zn  Zn137  1  0.82253314  0.55812631  0.07651316  1
  Zn  Zn138  1  0.81521075  0.56316248  0.55438950  1
  Zn  Zn139  1  0.44427570  0.44046022  0.18794720  1
  Zn  Zn140  1  0.43661340  0.44336985  0.68884662  1
  Zn  Zn141  1  0.44099657  0.93349756  0.18652268  1
  Zn  Zn142  1  0.43103146  0.94380085  0.68751712  1
  Zn  Zn143  1  0.93838096  0.43311496  0.31038994  1
  Zn  Zn144  1  0.94144290  0.43825543  0.69056861  1
  Zn  Zn145  1  0.94197365  0.93737828  0.18565747  1
  Zn  Zn146  1  0.93301763  0.93774706  0.68873787  1
  Zn  Zn147  1  0.06479359  0.06436150  0.31035873  1
  Zn  Zn148  1  0.05684653  0.05729104  0.80781841  1
  Zn  Zn149  1  0.06851391  0.56270497  0.31651223  1
  Zn  Zn150  1  0.06169521  0.56113765  0.81274791  1
  Zn  Zn151  1  0.55916633  0.06342033  0.30887241  1
  Zn  Zn152  1  0.55897586  0.06015661  0.81164131  1
  Zn  Zn153  1  0.56749162  0.55240260  0.30871131  1
  Zn  Zn154  1  0.56690023  0.57390396  0.81573413  1
  Zn  Zn155  1  0.43008684  0.18642109  0.43914629  1
  Zn  Zn156  1  0.43832013  0.18813405  0.93307203  1
  Zn  Zn157  1  0.43421349  0.68650650  0.43780630  1
  Zn  Zn158  1  0.45198002  0.70081636  0.93779300  1
  Zn  Zn159  1  0.93244281  0.19364601  0.43581364  1
  Zn  Zn160  1  0.91939671  0.18915526  0.93105151  1
  Zn  Zn161  1  0.93974400  0.68786861  0.43700418  1
  Zn  Zn162  1  0.92852194  0.69161389  0.93274135  1
  Zn  Zn163  1  0.05678478  0.32185608  0.07727486  1
  Zn  Zn164  1  0.07254565  0.31483823  0.56726715  1
  Zn  Zn165  1  0.05924746  0.81422859  0.06126636  1
  Zn  Zn166  1  0.06303664  0.81012290  0.56088327  1
  Zn  Zn167  1  0.55873080  0.31201622  0.06067703  1
  Zn  Zn168  1  0.56512593  0.31564174  0.56158665  1
  Zn  Zn169  1  0.56938170  0.80706222  0.06720049  1
  Zn  Zn170  1  0.56279025  0.81220145  0.56310132  1
  O  O171  1  0.13336692  0.10910944  0.12593537  1
  O  O172  1  0.11385158  0.11761668  0.62242103  1
  O  O173  1  0.11803571  0.61803957  0.11363503  1
  O  O174  1  0.11754622  0.61200085  0.63159712  1
  O  O175  1  0.61600577  0.11569963  0.11472167  1
  O  O176  1  0.61656918  0.11976878  0.61301166  1
  O  O177  1  0.61255957  0.62762734  0.12989988  1
  O  O178  1  0.61216859  0.62022218  0.62097002  1
  O  O179  1  0.37248160  0.39488350  0.39096137  1
  O  O180  1  0.37931896  0.37113850  0.89102856  1
  O  O181  1  0.38258229  0.88143708  0.37949615  1
  O  O182  1  0.36733320  0.88817276  0.87045677  1
  O  O183  1  0.88177489  0.35950924  0.37341604  1
  O  O184  1  0.87459509  0.36958352  0.89181824  1
  O  O185  1  0.87998404  0.88077028  0.38429155  1
  O  O186  1  0.87163083  0.88748763  0.88382907  1
  O  O187  1  0.25689765  -0.00310019  0.36392972  1
  O  O188  1  0.25012627  0.00814287  0.87055554  1
  O  O189  1  0.25494178  0.50072217  0.36053374  1
  O  O190  1  0.24841267  0.50270959  0.86448012  1
  O  O191  1  0.75637414  0.01284379  0.37606100  1
  O  O192  1  0.75484960  -0.00193804  0.86283772  1
  O  O193  1  0.76685276  0.51046360  0.39331036  1
  O  O194  1  0.75293380  0.50035605  0.86370784  1
  O  O195  1  0.25026101  0.49844322  0.13494172  1
  O  O196  1  0.24333964  0.49973849  0.63543679  1
  O  O197  1  0.24377903  0.98855951  0.12595201  1
  O  O198  1  0.24376419  0.99506073  0.63244921  1
  O  O199  1  0.74960679  0.48045086  0.11667501  1
  O  O200  1  0.74622728  0.49479402  0.62987268  1
  O  O201  1  0.73820711  0.99971817  0.12673071  1
  O  O202  1  0.74048660  0.99641717  0.62528147  1
  O  O203  1  0.01320020  0.36612659  0.24945137  1
  O  O204  1  0.00864084  0.36331972  0.75140745  1
  O  O205  1  0.01034674  0.86990450  0.25497669  1
  O  O206  1  0.00468019  0.86481575  0.74718587  1
  O  O207  1  0.49238342  0.36601747  0.25292902  1
  O  O208  1  0.50363882  0.37086571  0.74990952  1
  O  O209  1  0.50103832  0.86479392  0.26104043  1
  O  O210  1  0.49579168  0.86451693  0.73671677  1
  O  O211  1  0.48562601  0.12589099  0.23971294  1
  O  O212  1  0.49107175  0.13337617  0.74587648  1
  O  O213  1  0.49341054  0.62969055  0.24666201  1
  O  O214  1  0.49041760  0.62937737  0.74137572  1
  O  O215  1  0.98783781  0.12957696  0.25069860  1
  O  O216  1  1.00152295  0.13557848  0.74170549  1
  O  O217  1  1.00954847  0.63815183  0.25342936  1
  O  O218  1  0.99459096  0.63000519  0.73975639  1
  O  O219  1  0.36843307  0.25451191  0.00587848  1
  O  O220  1  0.36349724  0.26003123  0.50442388  1
  O  O221  1  0.34941243  0.72640491  -0.00510487  1
  O  O222  1  0.36664361  0.75568049  0.50599767  1
  O  O223  1  0.86369421  0.25062794  0.00538251  1
  O  O224  1  0.85939356  0.25004277  0.50539423  1
  O  O225  1  0.87674832  0.75735805  0.01547968  1
  O  O226  1  0.86932170  0.75925320  0.50184068  1
  O  O227  1  0.13809762  0.25133985  0.49707497  1
  O  O228  1  0.12919718  0.25582734  1.00054857  1
  O  O229  1  0.13523852  0.75781587  0.48856851  1
  O  O230  1  0.12529767  0.74016877  0.99551658  1
  O  O231  1  0.63589499  0.24174938  0.50560734  1
  O  O232  1  0.62721198  0.24309985  0.98997497  1
  O  O233  1  0.63220788  0.74153559  0.50454556  1
  O  O234  1  0.64899597  0.75247848  1.00423527  1
  O  O235  1  0.48961530  0.23820815  0.12093892  1
  O  O236  1  0.50586209  0.24647376  0.63818411  1
  O  O237  1  0.49963853  0.74392063  0.14403755  1
  O  O238  1  0.49141596  0.74396954  0.62831969  1
  O  O239  1  0.98696260  0.25127560  0.13542367  1
  O  O240  1  1.00091696  0.24374467  0.63037211  1
  O  O241  1  0.99180031  0.75541883  0.13504820  1
  O  O242  1  1.00129683  0.74042039  0.62962313  1
  O  O243  1  0.00526959  0.24280838  0.36104064  1
  O  O244  1  0.01033592  0.24730549  0.87311399  1
  O  O245  1  0.01043282  0.75750183  0.37013112  1
  O  O246  1  0.00319966  0.75244700  0.86417223  1
  O  O247  1  0.45500581  0.25912828  0.35923212  1
  O  O248  1  0.50915375  0.25206500  0.86248375  1
  O  O249  1  0.49532099  0.76026310  0.37291048  1
  O  O250  1  0.50490572  0.75545089  0.85266664  1
  O  O251  1  0.25057833  0.13683071  0.50078167  1
  O  O252  1  0.25105321  0.13434990  0.98797787  1
  O  O253  1  0.25368589  0.63663742  0.50484066  1
  O  O254  1  0.23117013  0.63216699  1.00597937  1
  O  O255  1  0.74073207  0.13110411  0.49508056  1
  O  O256  1  0.73761492  0.13760979  1.00116837  1
  O  O257  1  0.73861388  0.63702392  0.50952891  1
  O  O258  1  0.76249280  0.63499978  1.00792067  1
  O  O259  1  0.25658748  0.37300522  0.00360532  1
  O  O260  1  0.25624358  0.36777613  0.50472526  1
  O  O261  1  0.24195363  0.85957922  0.00973485  1
  O  O262  1  0.25525155  0.87189667  0.50719759  1
  O  O263  1  0.75585095  0.36259910  0.00168072  1
  O  O264  1  0.75059111  0.36886140  0.50768347  1
  O  O265  1  0.76476063  0.86584930  0.00836687  1
  O  O266  1  0.75661357  0.87287014  0.50681243  1
  O  O267  1  0.13243562  0.49668923  0.24437894  1
  O  O268  1  0.13618648  0.49666192  0.74561016  1
  O  O269  1  0.12999659  0.99168640  0.23920983  1
  O  O270  1  0.12988352  0.99267393  0.74456404  1
  O  O271  1  0.61651039  0.48444116  0.23939256  1
  O  O272  1  0.63198159  0.49782043  0.74417567  1
  O  O273  1  0.62452663  1.00045805  0.23896807  1
  O  O274  1  0.62946217  1.00717027  0.73615482  1
  O  O275  1  0.36996546  0.00358511  0.25044259  1
  O  O276  1  0.36588542  0.00914849  0.75800899  1
  O  O277  1  0.37001855  0.51125423  0.25555560  1
  O  O278  1  0.37039024  0.51583243  0.74944880  1
  O  O279  1  0.87629103  0.00631621  0.25528461  1
  O  O280  1  0.86659147  0.00321460  0.75685021  1
  O  O281  1  0.87247920  0.50981335  0.26161389  1
  O  O282  1  0.86537730  0.50613450  0.74748137  1
  O  O283  1  0.13369493  0.37405121  0.36147197  1
  O  O284  1  0.12706650  0.37779496  0.86469007  1
  O  O285  1  0.12290662  0.87161327  0.36079481  1
  O  O286  1  0.12107413  0.86231139  0.86848419  1
  O  O287  1  0.61738154  0.37560193  0.37931413  1
  O  O288  1  0.62041682  0.36740364  0.86724659  1
  O  O289  1  0.61005155  0.88577359  0.37867300  1
  O  O290  1  0.66466159  0.85732016  0.86284919  1
  O  O291  1  0.37927993  0.12794750  0.12436348  1
  O  O292  1  0.37955735  0.12002895  0.63998691  1
  O  O293  1  0.38729307  0.64360566  0.12938945  1
  O  O294  1  0.38620943  0.63150648  0.62779920  1
  O  O295  1  0.86919009  0.13273353  0.13191649  1
  O  O296  1  0.88789969  0.12601049  0.62691669  1
  O  O297  1  0.88312958  0.63914875  0.12740852  1
  O  O298  1  0.88437914  0.62498181  0.63261542  1
  O  O299  1  0.25362175  0.25700869  0.11059319  1
  O  O300  1  0.24603211  0.25295709  0.61253374  1
  O  O301  1  0.25149500  0.75362567  0.11069823  1
  O  O302  1  0.25209407  0.75438936  0.61893538  1
  O  O303  1  0.75674492  0.25266427  0.11400070  1
  O  O304  1  0.75016251  0.26001243  0.61908752  1
  O  O305  1  0.76496553  0.75063838  0.12183613  1
  O  O306  1  0.75174339  0.76171067  0.61819206  1
  O  O307  1  0.25468221  0.24862260  0.38935412  1
  O  O308  1  0.25092427  0.24363967  0.88686238  1
  O  O309  1  0.24328531  0.75772579  0.38533972  1
  O  O310  1  0.23715718  0.75225450  0.88789572  1
  O  O311  1  0.75036036  0.23544422  0.38368910  1
  O  O312  1  0.73569020  0.25262286  0.87834115  1
  O  O313  1  0.74816665  0.76031604  0.38955590  1
  O  O314  1  0.77529860  0.74076021  0.90076074  1
  O  O315  1  0.01381711  0.13632730  -0.01300498  1
  O  O316  1  0.00003260  0.12173270  0.50607905  1
  O  O317  1  0.00580730  0.62965521  -0.00314421  1
  O  O318  1  -0.00142231  0.61952310  0.51159399  1
  O  O319  1  0.50863949  0.12860932  0.00461431  1
  O  O320  1  0.50348568  0.12405262  0.50281658  1
  O  O321  1  0.49727466  0.61522586  0.00765072  1
  O  O322  1  0.50393577  0.62080910  0.50730418  1
  O  O323  1  0.49261379  0.38434295  0.50197756  1
  O  O324  1  0.49279401  0.39139855  1.00038300  1
  O  O325  1  0.49161053  0.88031862  0.49590501  1
  O  O326  1  0.47030207  0.79842505  1.01301193  1
  O  O327  1  1.00030890  0.38436145  0.50694488  1
  O  O328  1  0.98187180  0.36503949  1.00152303  1
  O  O329  1  0.99251504  0.87948483  0.49498691  1
  O  O330  1  0.98819877  0.87755294  0.99630786  1
  O  O331  1  0.49068244  0.50325724  0.38818746  1
  O  O332  1  0.50572658  0.50346575  0.88909785  1
  O  O333  1  0.49121327  0.99577391  0.38024145  1
  O  O334  1  0.48649443  0.99626565  0.87024246  1
  O  O335  1  1.00843676  0.49741047  0.38936701  1
  O  O336  1  0.99524047  0.49051529  0.86500444  1
  O  O337  1  0.99594199  0.99408798  0.37945351  1
  O  O338  1  0.98990649  0.99697962  0.87759855  1
  O  O339  1  0.01584973  0.00062248  0.12069120  1
  O  O340  1  0.00308820  0.00680151  0.62024857  1
  O  O341  1  0.00800708  0.49408716  0.13178727  1
  O  O342  1  0.01021329  0.50514731  0.62127841  1
  O  O343  1  0.50348325  0.01048294  0.12544772  1
  O  O344  1  0.50428441  0.00796632  0.61949375  1
  O  O345  1  0.49804492  0.51067029  0.11368370  1
  O  O346  1  0.50283895  0.50872902  0.61512152  1
  O  O347  1  0.24649918  0.38427208  0.24089815  1
  O  O348  1  0.24721465  0.38364430  0.75151888  1
  O  O349  1  0.24371611  0.87553650  0.23797513  1
  O  O350  1  0.24227222  0.87580319  0.74342147  1
  O  O351  1  0.75049737  0.36557741  0.23062442  1
  O  O352  1  0.74536313  0.38323548  0.74398915  1
  O  O353  1  0.74639731  0.87971408  0.24859295  1
  O  O354  1  0.75943454  0.89017728  0.73036183  1
  O  O355  1  0.26088983  0.11650262  0.24428440  1
  O  O356  1  0.25474715  0.12358594  0.75947060  1
  O  O357  1  0.26043571  0.61995910  0.24008078  1
  O  O358  1  0.26735283  0.62175318  0.74808998  1
  O  O359  1  0.75902106  0.12393053  0.25652466  1
  O  O360  1  0.75099102  0.11269140  0.73765140  1
  O  O361  1  0.74501523  0.61457390  0.25792133  1
  O  O362  1  0.75920106  0.61659961  0.74248047  1
  O  O363  1  0.37050635  0.11385131  0.36239990  1
  O  O364  1  0.36813427  0.11886216  0.86633657  1
  O  O365  1  0.37651117  0.61533871  0.36688218  1
  O  O366  1  0.38341960  0.63236417  0.86310463  1
  O  O367  1  0.86703773  0.12089991  0.36713789  1
  O  O368  1  0.87162241  0.11084094  0.86962530  1
  O  O369  1  0.87042848  0.63763362  0.36679723  1
  O  O370  1  0.87278320  0.62123432  0.85918872  1
  O  O371  1  0.13247683  0.38715632  0.13223760  1
  O  O372  1  0.12879759  0.38714690  0.64000486  1
  O  O373  1  0.13160332  0.87745950  0.13248624  1
  O  O374  1  0.12805411  0.87949605  0.63059946  1
  O  O375  1  0.64136943  0.36890196  0.11546176  1
  O  O376  1  0.63483209  0.38289880  0.63045196  1
  O  O377  1  0.62171639  0.88872264  0.12454127  1
  O  O378  1  0.63312538  0.88820570  0.61550592  1
  O  O379  1  0.11911160  0.25888157  0.24639075  1
  O  O380  1  0.11852165  0.25973865  0.74655137  1
  O  O381  1  0.12265500  0.75661986  0.25349485  1
  O  O382  1  0.11612712  0.74830151  0.75685938  1
  O  O383  1  0.62195959  0.25319425  0.24729358  1
  O  O384  1  0.61921194  0.25510685  0.75458567  1
  O  O385  1  0.61594535  0.75312587  0.25179689  1
  O  O386  1  0.60870153  0.75263333  0.73359389  1
  O  O387  1  0.36218205  0.23866124  0.22846675  1
  O  O388  1  0.38254338  0.24281061  0.75580321  1
  O  O389  1  0.38342037  0.74022206  0.25669328  1
  O  O390  1  0.38018513  0.74161522  0.74397008  1
  O  O391  1  0.88138529  0.24213241  0.24080305  1
  O  O392  1  0.88744124  0.24961857  0.74945601  1
  O  O393  1  0.88651255  0.75746154  0.23822419  1
  O  O394  1  0.88712918  0.74263744  0.74485644  1
  O  O395  1  0.38039770  0.50045718  0.49492305  1
  O  O396  1  0.37942199  0.49666205  1.00475518  1
  O  O397  1  0.37875034  0.99643174  0.49446857  1
  O  O398  1  0.37136000  1.00130807  0.98366675  1
  O  O399  1  0.89711536  0.49649243  0.50813733  1
  O  O400  1  0.87082870  0.48461014  0.99932663  1
  O  O401  1  0.88038679  0.99481405  0.49403317  1
  O  O402  1  0.87670409  0.99714498  0.99493860  1
  O  O403  1  0.12494397  -0.00454761  0.01200871  1
  O  O404  1  0.11762126  -0.00047230  0.50559957  1
  O  O405  1  0.12170983  0.51145606  0.00935434  1
  O  O406  1  0.11583932  0.49430110  0.51088033  1
  O  O407  1  0.62983336  0.00922759  0.00412818  1
  O  O408  1  0.61732894  0.00990071  0.50837249  1
  O  O409  1  0.61476406  0.49844964  0.00511406  1
  O  O410  1  0.61656644  0.50881312  0.50628140  1
  O  O411  1  0.37060392  0.36809651  0.11443967  1
  O  O412  1  0.37284648  0.38598450  0.61250645  1
  O  O413  1  0.36679624  0.86142450  0.12948388  1
  O  O414  1  0.36660510  0.87029494  0.61992052  1
  O  O415  1  0.86100711  0.36128243  0.10942424  1
  O  O416  1  0.86305699  0.37583048  0.62661403  1
  O  O417  1  0.87658817  0.87158421  0.11893585  1
  O  O418  1  0.86935194  0.87664473  0.61143922  1
  O  O419  1  0.13197533  0.12788826  0.37536263  1
  O  O420  1  0.13176970  0.12763266  0.87285645  1
  O  O421  1  0.13013010  0.63964726  0.37410016  1
  O  O422  1  0.11892823  0.63473395  0.88613116  1
  O  O423  1  0.62941885  0.11856115  0.38556793  1
  O  O424  1  0.61853800  0.13176140  0.88145356  1
  O  O425  1  0.61569631  0.62284648  0.38725174  1
  O  O426  1  0.63634469  0.64264211  0.86630559  1
