# generated using pymatgen
data_V85Zn86O256
_symmetry_space_group_name_H-M   'P 1'
_cell_length_a   16.95169198
_cell_length_b   16.95727851
_cell_length_c   16.95822647
_cell_angle_alpha   89.95606513
_cell_angle_beta   89.96427967
_cell_angle_gamma   89.97470637
_symmetry_Int_Tables_number   1
_chemical_formula_structural   V85Zn86O256
_chemical_formula_sum   'V85 Zn86 O256'
_cell_volume   4874.71670984
_cell_formula_units_Z   1
loop_
 _symmetry_equiv_pos_site_id
 _symmetry_equiv_pos_as_xyz
  1  'x, y, z'
loop_
 _atom_site_type_symbol
 _atom_site_label
 _atom_site_symmetry_multiplicity
 _atom_site_fract_x
 _atom_site_fract_y
 _atom_site_fract_z
 _atom_site_occupancy
  V  V0  1  0.87368542  0.61500166  0.25201214  1
  V  V1  1  0.12365959  0.62441440  -0.00367841  1
  V  V2  1  0.24680928  0.62581783  0.87445542  1
  V  V3  1  0.75221491  0.61943630  0.37536605  1
  V  V4  1  0.50780051  -0.00083116  0.49884346  1
  V  V5  1  0.50816644  0.12786002  0.62986538  1
  V  V6  1  0.61993974  0.76416767  0.86852114  1
  V  V7  1  0.86995583  0.61810555  0.74666046  1
  V  V8  1  0.50310453  0.26426748  0.75454653  1
  V  V9  1  0.00722962  0.62546986  0.61732495  1
  V  V10  1  0.75105056  0.00583383  0.24935177  1
  V  V11  1  0.23929561  0.74782691  0.50551416  1
  V  V12  1  0.49667753  0.63216286  0.12426918  1
  V  V13  1  0.24174750  0.24570970  0.49997652  1
  V  V14  1  0.23824931  0.12976089  0.87761760  1
  V  V15  1  0.00289521  0.36848073  0.87441538  1
  V  V16  1  0.24019854  0.12309087  0.37700254  1
  V  V17  1  0.50400176  0.62560489  0.63108336  1
  V  V18  1  0.12260809  0.26869176  0.36465479  1
  V  V19  1  0.75022236  0.74899176  -0.00486034  1
  V  V20  1  0.62580761  0.12441361  -0.00188302  1
  V  V21  1  0.11735287  0.00417007  0.12918596  1
  V  V22  1  0.62360952  0.74958376  0.37202444  1
  V  V23  1  0.74868731  0.24653797  0.00078739  1
  V  V24  1  0.63230745  0.49281253  0.64106010  1
  V  V25  1  0.62393167  0.62535069  -0.00350046  1
  V  V26  1  0.87552259  0.00457737  0.37880458  1
  V  V27  1  0.75321684  0.88912476  0.63537638  1
  V  V28  1  0.23758329  0.00480407  0.74735605  1
  V  V29  1  0.87251925  0.37587405  0.00132607  1
  V  V30  1  0.25372864  0.86092234  0.13089256  1
  V  V31  1  0.75494041  0.36995789  0.63845313  1
  V  V32  1  -0.00033394  0.61772139  0.12265344  1
  V  V33  1  0.49978412  -0.00499264  -0.00507900  1
  V  V34  1  0.75159967  0.75430273  0.50193428  1
  V  V35  1  0.00471527  0.49717145  -0.00300155  1
  V  V36  1  0.12604814  0.86716959  0.24952521  1
  V  V37  1  0.74709136  0.37268839  0.12576908  1
  V  V38  1  -0.00229885  0.74875289  0.25023057  1
  V  V39  1  0.12635453  0.37190453  0.75440660  1
  V  V40  1  0.24731225  0.37708414  0.62429063  1
  V  V41  1  0.62662782  0.00025378  0.12323492  1
  V  V42  1  0.37805717  0.50005674  0.87222358  1
  V  V43  1  0.75008977  0.11920556  0.86705522  1
  V  V44  1  0.74416228  0.49248575  0.25358998  1
  V  V45  1  0.24559599  0.62603218  0.38227467  1
  V  V46  1  0.88824522  0.12647945  0.24670198  1
  V  V47  1  0.25254770  -0.00183650  0.24855257  1
  V  V48  1  0.37778736  0.36996273  -0.00858702  1
  V  V49  1  0.62557580  0.13199236  0.49553231  1
  V  V50  1  0.87887204  0.87874540  0.49861204  1
  V  V51  1  0.37636463  0.86821566  0.00316658  1
  V  V52  1  0.37625719  0.87371175  0.49974687  1
  V  V53  1  0.24845081  0.74597321  0.00576079  1
  V  V54  1  0.00114183  0.13157816  0.60701578  1
  V  V55  1  0.37536253  0.74822668  0.63046875  1
  V  V56  1  0.50177104  0.12601870  0.12742186  1
  V  V57  1  0.37617844  0.24848424  0.12395415  1
  V  V58  1  0.61945265  0.49519896  0.12738050  1
  V  V59  1  0.55081987  0.31751410  0.30499604  1
  V  V60  1  0.50031862  0.49449263  -0.00301959  1
  V  V61  1  0.87567836  0.74664994  0.12474622  1
  V  V62  1  0.37303488  -0.00356630  0.87636873  1
  V  V63  1  0.62869147  0.62043028  0.50152668  1
  V  V64  1  0.24176532  0.25129427  -0.00125431  1
  V  V65  1  0.62646797  0.87636746  0.25015873  1
  V  V66  1  -0.00035566  0.87825261  0.37770746  1
  V  V67  1  0.87398577  0.12446674  0.74192862  1
  V  V68  1  0.37612789  0.63395124  0.24996983  1
  V  V69  1  -0.00274316  0.24976765  0.74517399  1
  V  V70  1  0.88217635  -0.00367995  0.86791431  1
  V  V71  1  0.37567014  0.24927043  0.62503515  1
  V  V72  1  0.12191816  0.00866284  0.59832673  1
  V  V73  1  0.75177798  0.25590466  0.49404013  1
  V  V74  1  0.37958904  0.12615067  0.25403867  1
  V  V75  1  0.57740210  -0.05630534  0.68384521  1
  V  V76  1  0.37820824  0.50448342  0.37872874  1
  V  V77  1  0.75290951  0.87466376  0.12366491  1
  V  V78  1  0.37996631  0.37208356  0.49600146  1
  V  V79  1  0.62192603  0.26019864  0.87254657  1
  V  V80  1  0.37371528  0.12836456  0.75241056  1
  V  V81  1  0.87579064  0.38360345  0.49222967  1
  V  V82  1  0.50547938  0.49497546  0.50092731  1
  V  V83  1  0.88915734  0.87239995  -0.00721269  1
  V  V84  1  0.88442117  0.24516380  0.12288207  1
  Zn  Zn85  1  0.50023942  0.87613947  0.37257466  1
  Zn  Zn86  1  0.00544933  0.26788558  0.24820475  1
  Zn  Zn87  1  0.87375275  0.75241215  0.63146476  1
  Zn  Zn88  1  0.00817272  0.50090892  0.48929754  1
  Zn  Zn89  1  0.37469427  0.62908159  0.75267712  1
  Zn  Zn90  1  0.86637689  0.49475149  0.86799431  1
  Zn  Zn91  1  0.24712912  0.50156145  0.75072623  1
  Zn  Zn92  1  0.49960822  0.75569539  0.24231697  1
  Zn  Zn93  1  0.74584929  0.13002430  0.37248329  1
  Zn  Zn94  1  0.10027282  0.88470734  0.77531263  1
  Zn  Zn95  1  0.24333716  0.87324218  0.62670468  1
  Zn  Zn96  1  0.50282852  0.76282648  0.75150376  1
  Zn  Zn97  1  0.24092623  0.37942842  0.13174055  1
  Zn  Zn98  1  0.00171141  0.74870824  0.76674198  1
  Zn  Zn99  1  -0.00081513  0.00504210  -0.00061351  1
  Zn  Zn100  1  0.37615401  0.00128105  0.37846375  1
  Zn  Zn101  1  0.11757323  0.74790004  0.38801614  1
  Zn  Zn102  1  0.74573344  0.61920308  0.86404071  1
  Zn  Zn103  1  0.93825500  0.43611395  0.31954194  1
  Zn  Zn104  1  0.24027006  0.49191710  0.25228216  1
  Zn  Zn105  1  0.12462380  0.50324150  0.62103130  1
  Zn  Zn106  1  0.11256509  0.13101858  0.00649809  1
  Zn  Zn107  1  0.19183516  0.18814408  0.18890971  1
  Zn  Zn108  1  0.18108544  0.18944321  0.68703562  1
  Zn  Zn109  1  0.17084636  0.65549730  0.20176807  1
  Zn  Zn110  1  0.18472998  0.69006210  0.69380600  1
  Zn  Zn111  1  0.68378083  0.19205347  0.19146486  1
  Zn  Zn112  1  0.68707371  0.19136060  0.68619387  1
  Zn  Zn113  1  0.68650537  0.68415963  0.18584957  1
  Zn  Zn114  1  0.68963330  0.69179272  0.68660160  1
  Zn  Zn115  1  0.32066634  0.30653578  0.31762266  1
  Zn  Zn116  1  0.31212998  0.31211964  0.81345772  1
  Zn  Zn117  1  0.31347834  0.80930184  0.31941321  1
  Zn  Zn118  1  0.26075416  0.83311101  0.83568185  1
  Zn  Zn119  1  0.80676638  0.30770110  0.31094097  1
  Zn  Zn120  1  0.81612257  0.30461187  0.81602206  1
  Zn  Zn121  1  0.81121177  0.81197174  0.31270585  1
  Zn  Zn122  1  0.81687889  0.80672626  0.81127459  1
  Zn  Zn123  1  0.19122806  0.43918465  0.43965903  1
  Zn  Zn124  1  0.18804527  0.43642010  0.94023190  1
  Zn  Zn125  1  0.18925954  0.93286154  0.43638933  1
  Zn  Zn126  1  0.19348742  0.94808421  0.94811305  1
  Zn  Zn127  1  0.67999835  0.43011880  0.43322499  1
  Zn  Zn128  1  0.68753294  0.43798873  0.93477098  1
  Zn  Zn129  1  0.68795843  0.93975791  0.43896184  1
  Zn  Zn130  1  0.69511128  0.93818838  0.93510220  1
  Zn  Zn131  1  0.31015715  0.06234503  0.06365127  1
  Zn  Zn132  1  0.31530207  0.06430372  0.56238032  1
  Zn  Zn133  1  0.31550121  0.56166642  0.06523410  1
  Zn  Zn134  1  0.31314902  0.56265233  0.56465501  1
  Zn  Zn135  1  0.81806719  0.06247252  0.05874267  1
  Zn  Zn136  1  0.81248988  0.06639014  0.56232877  1
  Zn  Zn137  1  0.81007317  0.55818685  0.05922413  1
  Zn  Zn138  1  0.81311600  0.55935284  0.56738834  1
  Zn  Zn139  1  0.39293279  0.42725353  0.19977399  1
  Zn  Zn140  1  0.43575211  0.43936419  0.68522159  1
  Zn  Zn141  1  0.43816911  0.93833783  0.18604486  1
  Zn  Zn142  1  0.41307187  0.93703651  0.68979042  1
  Zn  Zn143  1  1.07054456  0.44488174  0.18903585  1
  Zn  Zn144  1  0.93617931  0.43915648  0.68162322  1
  Zn  Zn145  1  0.93622425  0.93396165  0.18952897  1
  Zn  Zn146  1  0.93789905  0.94778452  0.68057312  1
  Zn  Zn147  1  0.06353088  0.06121114  0.31482650  1
  Zn  Zn148  1  0.05806407  0.06789635  0.81255902  1
  Zn  Zn149  1  0.06595786  0.56390257  0.32078811  1
  Zn  Zn150  1  0.05675366  0.55838276  0.80756280  1
  Zn  Zn151  1  0.56248355  0.06387072  0.31458819  1
  Zn  Zn152  1  0.55820113  0.06971622  0.81808532  1
  Zn  Zn153  1  0.56006335  0.55907812  0.31140225  1
  Zn  Zn154  1  0.56197317  0.56509842  0.81504540  1
  Zn  Zn155  1  0.43955108  0.18828810  0.43580829  1
  Zn  Zn156  1  0.43676319  0.18380724  0.93606584  1
  Zn  Zn157  1  0.43945209  0.68710455  0.44294843  1
  Zn  Zn158  1  0.43837789  0.68946430  0.93443424  1
  Zn  Zn159  1  0.93362707  0.19942749  0.43114894  1
  Zn  Zn160  1  0.93911300  0.18477001  0.93473570  1
  Zn  Zn161  1  0.93625497  0.68587153  0.44002745  1
  Zn  Zn162  1  0.93390807  0.68278808  0.93112481  1
  Zn  Zn163  1  0.06271453  0.31314314  0.06446569  1
  Zn  Zn164  1  0.06246897  0.31623885  0.55867590  1
  Zn  Zn165  1  0.07227284  0.81260166  -0.06125956  1
  Zn  Zn166  1  0.06267068  0.81490650  0.62861822  1
  Zn  Zn167  1  0.56045276  0.31259703  0.06465518  1
  Zn  Zn168  1  0.56763931  0.31271440  0.56527957  1
  Zn  Zn169  1  0.56483200  0.81445104  0.05893816  1
  Zn  Zn170  1  0.56361072  0.80765485  0.55789715  1
  O  O171  1  0.13368044  0.10778866  0.12909098  1
  O  O172  1  0.11231966  0.12056805  0.62374904  1
  O  O173  1  0.11101988  0.63273319  0.10666759  1
  O  O174  1  0.11078815  0.62367241  0.63010563  1
  O  O175  1  0.61939436  0.11924796  0.11917333  1
  O  O176  1  0.61375010  0.12887015  0.61689806  1
  O  O177  1  0.62130551  0.61774563  0.11342417  1
  O  O178  1  0.62336423  0.61501879  0.62223267  1
  O  O179  1  0.37340166  0.38548015  0.39134979  1
  O  O180  1  0.37315262  0.38101280  0.88461303  1
  O  O181  1  0.37933848  0.87635708  0.38838020  1
  O  O182  1  0.35871530  0.88997442  0.88679553  1
  O  O183  1  0.86774709  0.37152194  0.38683793  1
  O  O184  1  0.87976819  0.37222505  0.88696934  1
  O  O185  1  0.87806399  0.88377710  0.37748314  1
  O  O186  1  0.86321468  0.88470179  0.88258596  1
  O  O187  1  0.25279269  0.00432798  0.36532579  1
  O  O188  1  0.25417694  0.01168020  0.86889632  1
  O  O189  1  0.26138874  0.50895749  0.37614282  1
  O  O190  1  0.25863531  0.50981660  0.87752215  1
  O  O191  1  0.75714251  0.00263444  0.36532714  1
  O  O192  1  0.75877001  0.01388215  0.87720594  1
  O  O193  1  0.73906155  0.50853133  0.36616445  1
  O  O194  1  0.75468806  0.50842328  0.88634712  1
  O  O195  1  0.28974037  0.48724129  0.14215667  1
  O  O196  1  0.25182688  0.48962831  0.62950846  1
  O  O197  1  0.24777561  0.99372671  0.13766102  1
  O  O198  1  0.23518226  1.01388119  0.63082289  1
  O  O199  1  0.74083666  0.49406398  0.13045180  1
  O  O200  1  0.73837507  0.48791411  0.62432963  1
  O  O201  1  0.74645721  0.99585668  0.12984529  1
  O  O202  1  0.74925597  0.98821149  0.62083411  1
  O  O203  1  -0.00494738  0.38081477  0.24298311  1
  O  O204  1  0.00284183  0.36920778  0.75344757  1
  O  O205  1  0.00248634  0.86640140  0.25719945  1
  O  O206  1  0.00045134  0.86642933  0.72336682  1
  O  O207  1  0.48836419  0.37333155  0.24608326  1
  O  O208  1  0.49554217  0.36293978  0.74602409  1
  O  O209  1  0.50907902  0.87429963  0.25087897  1
  O  O210  1  0.50938532  0.88579716  0.73499101  1
  O  O211  1  0.49207197  0.11494933  0.23922509  1
  O  O212  1  0.49292778  0.13049269  0.74328429  1
  O  O213  1  0.49761188  0.62967147  0.24080018  1
  O  O214  1  0.49841356  0.62683545  0.73945716  1
  O  O215  1  0.98949242  0.12828575  0.25410806  1
  O  O216  1  0.99412719  0.13403765  0.74274705  1
  O  O217  1  0.98896116  0.63013304  0.24083813  1
  O  O218  1  0.99159757  0.62723505  0.73982082  1
  O  O219  1  0.37008127  0.25311255  0.00233327  1
  O  O220  1  0.37084043  0.25685527  0.50550822  1
  O  O221  1  0.36843487  0.76133188  -0.00311411  1
  O  O222  1  0.37513143  0.75784731  0.51091825  1
  O  O223  1  0.86790358  0.25243343  0.00464989  1
  O  O224  1  0.85819682  0.25923790  0.49866348  1
  O  O225  1  0.86688679  0.75348776  0.00477811  1
  O  O226  1  0.86115829  0.75971656  0.49554029  1
  O  O227  1  0.13729521  0.25875662  0.48716303  1
  O  O228  1  0.13847933  0.24770967  1.00407003  1
  O  O229  1  0.13958086  0.75817610  0.50832998  1
  O  O230  1  0.14171121  0.74142541  0.99943431  1
  O  O231  1  0.63504674  0.24400646  0.50307487  1
  O  O232  1  0.62857561  0.24214999  0.99497149  1
  O  O233  1  0.63573280  0.74297177  0.49367642  1
  O  O234  1  0.63115452  0.74528396  0.99180256  1
  O  O235  1  0.49390735  0.23194601  0.11402036  1
  O  O236  1  0.49694568  0.24372963  0.63254718  1
  O  O237  1  0.50985422  0.73682650  0.12286399  1
  O  O238  1  0.49835279  0.74168564  0.62665407  1
  O  O239  1  0.98706324  0.25008199  0.12549522  1
  O  O240  1  1.00591252  0.23968790  0.63022298  1
  O  O241  1  0.98211141  0.73710983  0.12726150  1
  O  O242  1  0.98815583  0.73254481  0.61345737  1
  O  O243  1  0.01896206  0.25311026  0.37304215  1
  O  O244  1  -0.00424202  0.26222024  0.86582869  1
  O  O245  1  -0.00225980  0.76031006  0.37205588  1
  O  O246  1  -0.00308461  0.75740381  0.88010007  1
  O  O247  1  0.49460097  0.25649856  0.36638112  1
  O  O248  1  0.50893250  0.24148587  0.86644779  1
  O  O249  1  0.51562496  0.75019085  0.37880542  1
  O  O250  1  0.51381747  0.75228310  0.87274081  1
  O  O251  1  0.26028036  0.13608660  0.48980278  1
  O  O252  1  0.24921757  0.13213803  0.99310687  1
  O  O253  1  0.25906511  0.63597493  0.49481954  1
  O  O254  1  0.24418177  0.62774018  1.00045027  1
  O  O255  1  0.74293832  0.13818624  0.50303937  1
  O  O256  1  0.74564684  0.12879776  0.99211910  1
  O  O257  1  0.74791527  0.63082065  0.49404862  1
  O  O258  1  0.74180171  0.63750912  1.00473438  1
  O  O259  1  0.26073271  0.36646115  0.00015435  1
  O  O260  1  0.26046506  0.36587075  0.50781493  1
  O  O261  1  0.25684972  0.86625458  0.01165849  1
  O  O262  1  0.26070956  0.86746990  0.50102472  1
  O  O263  1  0.75599490  0.36668936  0.00337622  1
  O  O264  1  0.75148656  0.36752710  0.50258798  1
  O  O265  1  0.75552580  0.86310145  0.00570171  1
  O  O266  1  0.75518236  0.86971000  0.50416666  1
  O  O267  1  0.13270931  0.53136618  0.23636987  1
  O  O268  1  0.12515268  0.48500022  0.74453991  1
  O  O269  1  0.13340629  0.99317533  0.24649682  1
  O  O270  1  0.12894795  1.00033243  0.74917888  1
  O  O271  1  0.63176875  0.50809766  0.23711591  1
  O  O272  1  0.62165425  0.50197364  0.73884659  1
  O  O273  1  0.63337612  0.99742665  0.24504250  1
  O  O274  1  0.62427828  1.00152897  0.74865154  1
  O  O275  1  0.36899852  0.00813475  0.25112970  1
  O  O276  1  0.36474642  0.01085419  0.75868438  1
  O  O277  1  0.39168075  0.51790908  0.27358219  1
  O  O278  1  0.37478041  0.49955348  0.76328144  1
  O  O279  1  0.86910035  0.00658565  0.25533606  1
  O  O280  1  0.87767596  0.01364048  0.75428796  1
  O  O281  1  0.86158437  0.51204568  0.25140346  1
  O  O282  1  0.87888132  0.51273641  0.74947985  1
  O  O283  1  0.13708137  0.36664925  0.36501920  1
  O  O284  1  0.11624260  0.37829250  0.86765607  1
  O  O285  1  0.11539428  0.87227702  0.36997893  1
  O  O286  1  0.15090057  0.87104721  0.87694590  1
  O  O287  1  0.60837093  0.37995625  0.36322500  1
  O  O288  1  0.62668294  0.35927459  0.88015803  1
  O  O289  1  0.62653420  0.86773209  0.36837090  1
  O  O290  1  0.62974505  0.86246641  0.87891586  1
  O  O291  1  0.38243934  0.12887763  0.12888359  1
  O  O292  1  0.38696102  0.13039697  0.63006285  1
  O  O293  1  0.38588833  0.62621518  0.13654063  1
  O  O294  1  0.38591996  0.63075804  0.62701468  1
  O  O295  1  0.86723516  0.13369135  0.13431406  1
  O  O296  1  0.88938382  0.11946657  0.62980884  1
  O  O297  1  0.87510439  0.62815153  0.13178303  1
  O  O298  1  0.87878236  0.62505317  0.63344414  1
  O  O299  1  0.26108066  0.24840337  0.11581397  1
  O  O300  1  0.25414866  0.25252198  0.61717089  1
  O  O301  1  0.24756681  0.75812651  0.12379674  1
  O  O302  1  0.25974236  0.74936626  0.62043520  1
  O  O303  1  0.75251659  0.25438136  0.11878804  1
  O  O304  1  0.74276451  0.26533019  0.61452921  1
  O  O305  1  0.75826597  0.75276969  0.11958092  1
  O  O306  1  0.75103971  0.76143262  0.61522132  1
  O  O307  1  0.24397474  0.24294275  0.38038783  1
  O  O308  1  0.25740981  0.24029166  0.88529238  1
  O  O309  1  0.24889476  0.74380752  0.38899569  1
  O  O310  1  0.25697079  0.73263891  0.88824096  1
  O  O311  1  0.74565724  0.24800058  0.38863637  1
  O  O312  1  0.74371729  0.23887893  0.88125186  1
  O  O313  1  0.73963405  0.74510812  0.37998630  1
  O  O314  1  0.74064776  0.74500833  0.88161810  1
  O  O315  1  0.00032398  0.11922348  -0.00124230  1
  O  O316  1  -0.00649435  0.13690405  0.50894255  1
  O  O317  1  0.00352938  0.61689168  0.00173140  1
  O  O318  1  -0.00803448  0.61972222  0.51280368  1
  O  O319  1  0.50413557  0.11213891  0.00493479  1
  O  O320  1  0.50430544  0.11943153  0.50867389  1
  O  O321  1  0.50597112  0.62115338  0.00475498  1
  O  O322  1  0.50880839  0.61912183  0.51349049  1
  O  O323  1  0.49179018  0.38393355  0.51353190  1
  O  O324  1  0.49405531  0.38534303  1.00085154  1
  O  O325  1  0.49611661  0.88256891  0.50104020  1
  O  O326  1  0.49144989  0.88624255  1.00603773  1
  O  O327  1  0.97802147  0.37397262  0.50653573  1
  O  O328  1  0.99367508  0.37860295  0.99286621  1
  O  O329  1  0.98194181  0.87323820  0.49171199  1
  O  O330  1  0.99053551  0.87928647  1.00115791  1
  O  O331  1  0.49612405  0.51123395  0.39499553  1
  O  O332  1  0.49279668  0.50751967  0.88683242  1
  O  O333  1  0.49700912  0.99809815  0.38570090  1
  O  O334  1  0.48796864  1.00393296  0.88371903  1
  O  O335  1  0.98665283  0.51688354  0.37848656  1
  O  O336  1  0.99350866  0.48722961  0.88100256  1
  O  O337  1  0.99068266  0.98745624  0.36808771  1
  O  O338  1  0.98657987  0.99936680  0.87374288  1
  O  O339  1  0.01549842  -0.00606785  0.13144662  1
  O  O340  1  0.01362700  0.01683279  0.61777103  1
  O  O341  1  -0.00376646  0.51346925  0.11467601  1
  O  O342  1  -0.00078255  0.51255368  0.62069853  1
  O  O343  1  0.50621334  0.00766799  0.11680458  1
  O  O344  1  0.50636851  0.00302244  0.62662178  1
  O  O345  1  0.50732885  0.51221308  0.11272787  1
  O  O346  1  0.51000760  0.50496475  0.62026956  1
  O  O347  1  0.28413891  0.38212031  0.24461028  1
  O  O348  1  0.24288778  0.37338266  0.74382042  1
  O  O349  1  0.25050973  0.87867577  0.24872823  1
  O  O350  1  0.25716205  0.89754551  0.74131985  1
  O  O351  1  0.75506242  0.38666283  0.24366519  1
  O  O352  1  0.75757827  0.36538816  0.73737481  1
  O  O353  1  0.74815293  0.88655582  0.24380533  1
  O  O354  1  0.75703246  0.87349382  0.73348897  1
  O  O355  1  0.25848595  0.11582433  0.25680265  1
  O  O356  1  0.25168507  0.12297570  0.75712483  1
  O  O357  1  0.26310387  0.62690237  0.26436279  1
  O  O358  1  0.25197648  0.62307711  0.76034373  1
  O  O359  1  0.75249522  0.11551460  0.25030440  1
  O  O360  1  0.76044957  0.13413855  0.75507548  1
  O  O361  1  0.75308815  0.61711675  0.25615018  1
  O  O362  1  0.76412062  0.62782825  0.74547768  1
  O  O363  1  0.36807691  0.12359862  0.36711150  1
  O  O364  1  0.36635498  0.11469087  0.87182637  1
  O  O365  1  0.36997720  0.62149569  0.37650488  1
  O  O366  1  0.36880133  0.61677035  0.87500113  1
  O  O367  1  0.87171993  0.12011340  0.36706207  1
  O  O368  1  0.86798444  0.11845376  0.86444903  1
  O  O369  1  0.85860655  0.63640860  0.36521365  1
  O  O370  1  0.87187458  0.61972946  0.85986685  1
  O  O371  1  0.13004586  0.38102496  0.11854202  1
  O  O372  1  0.13838803  0.36837406  0.63184534  1
  O  O373  1  0.14093033  0.88813886  0.13788722  1
  O  O374  1  0.13057250  0.90284328  0.60968440  1
  O  O375  1  0.63045280  0.38807861  0.11642072  1
  O  O376  1  0.63566060  0.38626739  0.62611834  1
  O  O377  1  0.63289558  0.88090359  0.12922028  1
  O  O378  1  0.63385827  0.87810514  0.62460982  1
  O  O379  1  0.12683483  0.24798414  0.26120685  1
  O  O380  1  0.11333188  0.26143324  0.74908672  1
  O  O381  1  0.11428820  0.75015533  0.25137450  1
  O  O382  1  0.11780159  0.77166527  0.72970655  1
  O  O383  1  0.61278828  0.25824730  0.24692784  1
  O  O384  1  0.61451162  0.24388410  0.75980002  1
  O  O385  1  0.62680895  0.75571072  0.25692437  1
  O  O386  1  0.62392224  0.74801394  0.76428577  1
  O  O387  1  0.37130158  0.23280914  0.23849099  1
  O  O388  1  0.38081706  0.24537781  0.74489973  1
  O  O389  1  0.38326752  0.73851304  0.26096419  1
  O  O390  1  0.38226836  0.75367092  0.73470811  1
  O  O391  1  0.87364393  0.24140608  0.24142515  1
  O  O392  1  0.88804809  0.23972340  0.75092375  1
  O  O393  1  0.87501426  0.74245875  0.24198981  1
  O  O394  1  0.87937310  0.73611719  0.74819955  1
  O  O395  1  0.38385282  0.49431704  0.49708327  1
  O  O396  1  0.38201622  0.49152357  0.99029871  1
  O  O397  1  0.38766499  0.99241260  0.50442072  1
  O  O398  1  0.38034889  0.99409547  0.99516997  1
  O  O399  1  0.86702500  0.48457979  0.49828008  1
  O  O400  1  0.88571132  0.48956738  1.00228432  1
  O  O401  1  0.86697501  0.99576421  0.48527548  1
  O  O402  1  0.87468652  0.98797328  0.99155610  1
  O  O403  1  0.12416838  0.00084224  0.01920327  1
  O  O404  1  0.13216017  0.01245340  0.50041324  1
  O  O405  1  0.11196250  0.50592921  -0.00356078  1
  O  O406  1  0.11967885  0.48290087  0.50938282  1
  O  O407  1  0.61869237  0.00231412  0.00217301  1
  O  O408  1  0.61394106  0.00641685  0.50102684  1
  O  O409  1  0.61773388  0.50792060  0.00398627  1
  O  O410  1  0.62044778  0.50262774  0.50869595  1
  O  O411  1  0.38592632  0.35409833  0.10821445  1
  O  O412  1  0.36489726  0.36932009  0.61998165  1
  O  O413  1  0.36591488  0.88103289  0.11555934  1
  O  O414  1  0.36952365  0.86755208  0.61378969  1
  O  O415  1  0.86452039  0.36216167  0.10957143  1
  O  O416  1  0.85843502  0.37920484  0.61471063  1
  O  O417  1  0.87137181  0.86615802  0.11709749  1
  O  O418  1  0.86523054  0.87840602  0.61395154  1
  O  O419  1  0.13813984  0.12910892  0.37072876  1
  O  O420  1  0.13555636  0.12187799  0.87955085  1
  O  O421  1  0.14140868  0.63149901  0.37848648  1
  O  O422  1  0.13129120  0.61733793  0.88569828  1
  O  O423  1  0.62613862  0.12038886  0.39099378  1
  O  O424  1  0.63335889  0.12950683  0.88099402  1
  O  O425  1  0.63386980  0.63090325  0.37908700  1
  O  O426  1  0.62479321  0.63275863  0.88681349  1
