# generated using pymatgen
data_V85Zn86O256
_symmetry_space_group_name_H-M   'P 1'
_cell_length_a   16.96608059
_cell_length_b   16.97161443
_cell_length_c   16.97449301
_cell_angle_alpha   90.01641090
_cell_angle_beta   90.12231191
_cell_angle_gamma   90.00957428
_symmetry_Int_Tables_number   1
_chemical_formula_structural   V85Zn86O256
_chemical_formula_sum   'V85 Zn86 O256'
_cell_volume   4887.65429671
_cell_formula_units_Z   1
loop_
 _symmetry_equiv_pos_site_id
 _symmetry_equiv_pos_as_xyz
  1  'x, y, z'
loop_
 _atom_site_type_symbol
 _atom_site_label
 _atom_site_symmetry_multiplicity
 _atom_site_fract_x
 _atom_site_fract_y
 _atom_site_fract_z
 _atom_site_occupancy
  V  V0  1  0.24533162  -0.00355248  0.74994351  1
  V  V1  1  0.12275111  0.74804899  0.87651221  1
  V  V2  1  0.75282861  0.36907854  0.62104577  1
  V  V3  1  0.62795612  0.50151183  0.62487640  1
  V  V4  1  0.12463356  0.62158161  0.50223995  1
  V  V5  1  0.11953129  0.01630717  0.12199561  1
  V  V6  1  0.37161085  0.74891078  0.12750723  1
  V  V7  1  0.12504592  0.86914955  0.74745746  1
  V  V8  1  0.74982761  0.38031584  0.11541058  1
  V  V9  1  0.87749349  0.61617107  0.25207269  1
  V  V10  1  0.61614765  0.36834200  0.75060948  1
  V  V11  1  0.62790995  0.62678044  0.49730205  1
  V  V12  1  0.62648839  0.87541315  0.25092452  1
  V  V13  1  0.37625520  0.25080491  0.62506049  1
  V  V14  1  0.75239065  0.00226233  0.75035177  1
  V  V15  1  0.25282281  0.61835117  0.37502943  1
  V  V16  1  -0.00151483  0.38395292  0.36915368  1
  V  V17  1  0.88012113  0.75207617  0.62828200  1
  V  V18  1  0.75106067  0.13591764  0.87132613  1
  V  V19  1  0.24939560  0.63400095  0.87143076  1
  V  V20  1  0.36907576  0.86496294  -0.00029067  1
  V  V21  1  0.75589953  0.61938997  0.37511482  1
  V  V22  1  0.26382891  0.25682040  0.00723513  1
  V  V23  1  0.80165438  0.20220411  0.05688772  1
  V  V24  1  0.49812052  0.63006169  0.61872691  1
  V  V25  1  0.87180593  0.86708104  -0.00191663  1
  V  V26  1  0.74684781  0.86852446  0.12224769  1
  V  V27  1  0.11770733  0.24373639  0.37235823  1
  V  V28  1  0.50152866  0.87178438  0.87664331  1
  V  V29  1  0.61501692  0.50029562  0.12660615  1
  V  V30  1  0.37944396  0.12367284  0.75144438  1
  V  V31  1  0.49983034  0.00280686  0.00896489  1
  V  V32  1  0.39274190  0.61414164  0.77034859  1
  V  V33  1  0.37706149  0.00393104  0.37212993  1
  V  V34  1  0.37011467  0.75237976  0.62881817  1
  V  V35  1  0.87392396  0.37613378  0.49357731  1
  V  V36  1  0.49931551  0.24527272  0.24016888  1
  V  V37  1  0.24989509  0.00427624  0.24481441  1
  V  V38  1  0.87997828  0.25036259  0.62354900  1
  V  V39  1  0.37377195  0.87679776  0.50495977  1
  V  V40  1  0.00680163  0.51178742  0.00676721  1
  V  V41  1  0.88508774  0.13207154  0.74817703  1
  V  V42  1  0.25682886  0.38846386  0.12958333  1
  V  V43  1  0.62083543  0.12949641  0.00767846  1
  V  V44  1  0.75145971  0.49962633  0.75082537  1
  V  V45  1  0.87780829  0.88063803  0.49624729  1
  V  V46  1  0.30441726  0.45525603  0.80085386  1
  V  V47  1  0.12277997  0.24794070  0.88143242  1
  V  V48  1  0.87570022  0.62697428  0.74908384  1
  V  V49  1  -0.00221383  0.87077737  0.86801742  1
  V  V50  1  0.12308520  0.74799205  0.37495674  1
  V  V51  1  0.50404592  0.00297655  0.50105882  1
  V  V52  1  0.75272943  0.62802485  0.88414064  1
  V  V53  1  0.87473193  0.74084350  0.12209426  1
  V  V54  1  0.62344013  0.37421491  0.25522575  1
  V  V55  1  0.62684334  0.87710915  0.75088295  1
  V  V56  1  0.49924308  0.49130301  0.49540660  1
  V  V57  1  0.63137514  0.75354003  0.88226602  1
  V  V58  1  -0.00234147  0.37242072  0.87563347  1
  V  V59  1  0.37543678  -0.00135289  0.87701117  1
  V  V60  1  0.50305839  0.12904607  0.62805369  1
  V  V61  1  0.24859551  0.37879867  0.62099563  1
  V  V62  1  0.87353181  0.49922502  0.87824890  1
  V  V63  1  -0.00117869  0.74547391  0.24577224  1
  V  V64  1  0.24267715  0.24483168  0.49793850  1
  V  V65  1  0.38018134  0.12687848  0.23617756  1
  V  V66  1  0.11859798  0.37381896  0.75244341  1
  V  V67  1  0.12480390  0.49789179  0.62776567  1
  V  V68  1  0.00234704  0.62635446  0.63151206  1
  V  V69  1  0.00298476  0.00782134  0.00154828  1
  V  V70  1  0.37483231  0.49112102  0.36860729  1
  V  V71  1  0.12256355  0.87608961  0.24373301  1
  V  V72  1  0.24894341  0.75115148  0.50345611  1
  V  V73  1  0.76011987  0.00232090  0.25455320  1
  V  V74  1  0.19036559  0.93538376  0.58152549  1
  V  V75  1  0.87625439  0.00026664  0.87282459  1
  V  V76  1  -0.01181725  0.24161388  0.23268715  1
  V  V77  1  0.75870147  0.13408171  0.37995455  1
  V  V78  1  0.75075232  0.87631482  0.62295929  1
  V  V79  1  0.01343523  0.12454254  0.61794636  1
  V  V80  1  0.61691097  0.25127616  0.38502103  1
  V  V81  1  0.61842638  0.62435349  0.00220990  1
  V  V82  1  0.50070694  0.87373565  0.37512679  1
  V  V83  1  0.60895221  0.24796740  0.87194607  1
  V  V84  1  0.24434297  0.12318523  0.88294279  1
  Zn  Zn85  1  0.63176905  0.12924922  0.50501705  1
  Zn  Zn86  1  0.01474392  0.00386076  0.49843246  1
  Zn  Zn87  1  0.12713466  0.52081460  0.12983201  1
  Zn  Zn88  1  0.62358243  0.00400699  0.12984730  1
  Zn  Zn89  1  0.41297055  0.39529648  1.01098669  1
  Zn  Zn90  1  0.75300096  0.49494636  0.25480963  1
  Zn  Zn91  1  0.25045755  0.12849845  0.37398985  1
  Zn  Zn92  1  0.19115554  0.69306060  0.03885765  1
  Zn  Zn93  1  0.49939633  0.74886378  0.24853063  1
  Zn  Zn94  1  0.62680978  0.00270518  0.62632873  1
  Zn  Zn95  1  0.37719360  0.37093478  0.49630584  1
  Zn  Zn96  1  0.50250074  0.75690216  0.74575065  1
  Zn  Zn97  1  -0.00241506  0.87894566  0.37297630  1
  Zn  Zn98  1  0.12878019  0.37959929  0.24469342  1
  Zn  Zn99  1  0.37791488  0.62271226  0.25066360  1
  Zn  Zn100  1  0.49497018  0.62309504  0.12635216  1
  Zn  Zn101  1  0.88352336  0.00837279  0.37357806  1
  Zn  Zn102  1  0.62717334  0.74889631  0.37395085  1
  Zn  Zn103  1  -0.00522294  0.50247237  0.49751857  1
  Zn  Zn104  1  0.87556210  0.37365066  0.00362940  1
  Zn  Zn105  1  0.24540896  0.87445542  0.11794429  1
  Zn  Zn106  1  0.75252835  0.75064320  0.49765533  1
  Zn  Zn107  1  0.18491274  0.19360767  0.18993325  1
  Zn  Zn108  1  0.19099599  0.19172998  0.69446019  1
  Zn  Zn109  1  0.19216199  0.68656010  0.19843933  1
  Zn  Zn110  1  0.19357410  0.68433218  0.69596436  1
  Zn  Zn111  1  0.68555381  0.18482540  0.19789785  1
  Zn  Zn112  1  0.69174593  0.19046716  0.68708179  1
  Zn  Zn113  1  0.68842789  0.68791599  0.19001110  1
  Zn  Zn114  1  0.68929361  0.69091845  0.68958086  1
  Zn  Zn115  1  0.31387022  0.31015684  0.31093368  1
  Zn  Zn116  1  0.31529053  0.29408198  0.81455601  1
  Zn  Zn117  1  0.31001005  0.81413577  0.31260436  1
  Zn  Zn118  1  0.31262428  0.80926552  0.81069049  1
  Zn  Zn119  1  0.81322718  0.30994162  0.30783801  1
  Zn  Zn120  1  0.81069552  0.31376637  0.80981185  1
  Zn  Zn121  1  0.81174918  0.80745746  0.31342618  1
  Zn  Zn122  1  0.81235931  0.81049588  0.80938398  1
  Zn  Zn123  1  0.18489244  0.43444923  0.43689490  1
  Zn  Zn124  1  0.18554856  0.43586915  0.94565453  1
  Zn  Zn125  1  0.18737025  0.93769986  0.41764322  1
  Zn  Zn126  1  0.18334315  0.93679388  0.93588369  1
  Zn  Zn127  1  0.68933039  0.43747978  0.43735619  1
  Zn  Zn128  1  0.61807276  0.41818315  0.95488010  1
  Zn  Zn129  1  0.68960950  0.94136746  0.43661415  1
  Zn  Zn130  1  0.68906569  0.94327769  0.93897848  1
  Zn  Zn131  1  0.31072111  0.06104297  0.06160749  1
  Zn  Zn132  1  0.31846872  0.06914009  0.55820624  1
  Zn  Zn133  1  0.31332992  0.56210131  0.06058446  1
  Zn  Zn134  1  0.31495803  0.56201004  0.56251702  1
  Zn  Zn135  1  0.81039316  0.03991268  0.06115409  1
  Zn  Zn136  1  0.81588336  0.06356376  0.56068739  1
  Zn  Zn137  1  0.80883332  0.55761080  0.06218541  1
  Zn  Zn138  1  0.81413614  0.55962730  0.56111933  1
  Zn  Zn139  1  0.43717215  0.42896535  0.19092798  1
  Zn  Zn140  1  0.44266233  0.43740170  0.67854085  1
  Zn  Zn141  1  0.43684385  0.93617580  0.18637747  1
  Zn  Zn142  1  0.43643734  0.93945514  0.68721974  1
  Zn  Zn143  1  0.93993647  0.43249787  0.18472253  1
  Zn  Zn144  1  0.93921945  0.43853361  0.68805636  1
  Zn  Zn145  1  0.93778881  0.93501644  0.18394963  1
  Zn  Zn146  1  0.94209041  0.94358250  0.68380033  1
  Zn  Zn147  1  0.05772799  0.06656702  0.30921019  1
  Zn  Zn148  1  0.06362121  0.05917875  0.80926272  1
  Zn  Zn149  1  0.06479279  0.56112627  0.30786227  1
  Zn  Zn150  1  0.06361963  0.55884326  0.81270567  1
  Zn  Zn151  1  0.56794142  0.06488693  0.31437683  1
  Zn  Zn152  1  0.56321661  0.06057755  0.81626905  1
  Zn  Zn153  1  0.55967850  0.56261313  0.31192293  1
  Zn  Zn154  1  0.56865899  0.56768419  0.80583481  1
  Zn  Zn155  1  0.43702838  0.18676820  0.43692511  1
  Zn  Zn156  1  0.43737006  0.18646908  0.94010269  1
  Zn  Zn157  1  0.43604895  0.68773225  0.43719300  1
  Zn  Zn158  1  0.43398050  0.57579236  0.93754429  1
  Zn  Zn159  1  0.93882629  0.19363830  0.44099541  1
  Zn  Zn160  1  0.94202443  0.18832610  0.93368499  1
  Zn  Zn161  1  0.93790032  0.68960073  0.43818935  1
  Zn  Zn162  1  0.94017292  0.68955229  0.93559861  1
  Zn  Zn163  1  0.06865880  0.31705186  0.05930094  1
  Zn  Zn164  1  0.05891595  0.30951462  0.55876417  1
  Zn  Zn165  1  0.05422270  0.81676633  0.06178394  1
  Zn  Zn166  1  0.05460961  0.80630793  0.55835762  1
  Zn  Zn167  1  0.56618161  0.30457404  0.06734955  1
  Zn  Zn168  1  0.56371828  0.31079539  0.56670867  1
  Zn  Zn169  1  0.55894588  0.81054141  0.06177727  1
  Zn  Zn170  1  0.56411820  0.81364308  0.56039144  1
  O  O171  1  0.12874366  0.11463022  0.12657746  1
  O  O172  1  0.11098265  0.13541390  0.63455833  1
  O  O173  1  0.13948480  0.63296964  0.11814083  1
  O  O174  1  0.11970720  0.62102000  0.62533527  1
  O  O175  1  0.63550617  0.12269879  0.11208981  1
  O  O176  1  0.61797814  0.12500841  0.62520698  1
  O  O177  1  0.62688554  0.61892991  0.11881104  1
  O  O178  1  0.62156803  0.62240997  0.61776040  1
  O  O179  1  0.37080433  0.38693330  0.37840669  1
  O  O180  1  0.36320683  0.39238663  0.85167174  1
  O  O181  1  0.38104946  0.88294219  0.38214772  1
  O  O182  1  0.38271744  0.87679051  0.88245417  1
  O  O183  1  0.88518014  0.36827688  0.38118495  1
  O  O184  1  0.87919835  0.38278572  0.87526285  1
  O  O185  1  0.87499021  0.87412778  0.38494012  1
  O  O186  1  0.87910110  0.87657141  0.87821055  1
  O  O187  1  0.25660284  0.00542803  0.36021484  1
  O  O188  1  0.25297697  0.00609019  0.86895198  1
  O  O189  1  0.26379868  0.50589108  0.38624383  1
  O  O190  1  0.24478333  0.50514734  0.86823190  1
  O  O191  1  0.75386252  0.00996987  0.36925124  1
  O  O192  1  0.75776923  0.01285955  0.87204766  1
  O  O193  1  0.74754828  0.51330980  0.37350051  1
  O  O194  1  0.76435978  0.50941564  0.86874455  1
  O  O195  1  0.24931406  0.49045167  0.12381440  1
  O  O196  1  0.24309060  0.48528261  0.61544649  1
  O  O197  1  0.24182521  0.99770620  0.13214167  1
  O  O198  1  0.25538695  1.00262292  0.63171076  1
  O  O199  1  0.73933459  0.49124757  0.13107996  1
  O  O200  1  0.74423055  0.49474462  0.63087407  1
  O  O201  1  0.74569097  0.98579385  0.13566896  1
  O  O202  1  0.75158265  0.98999327  0.62924892  1
  O  O203  1  -0.00305940  0.36691486  0.26105444  1
  O  O204  1  0.00609700  0.37885071  0.76337815  1
  O  O205  1  0.00552251  0.86499412  0.24992921  1
  O  O206  1  0.01016217  0.88382840  0.75644058  1
  O  O207  1  0.51261090  0.35989314  0.24885598  1
  O  O208  1  0.51770048  0.37998744  0.74263136  1
  O  O209  1  0.50733473  0.87743277  0.25955323  1
  O  O210  1  0.50815518  0.87948035  0.75767817  1
  O  O211  1  0.49593378  0.13475930  0.25554506  1
  O  O212  1  0.48729574  0.11331664  0.74325367  1
  O  O213  1  0.49680513  0.63138630  0.24715441  1
  O  O214  1  0.50407674  0.63732269  0.72915276  1
  O  O215  1  1.00368803  0.14220274  0.24526817  1
  O  O216  1  0.98921801  0.11946890  0.74196228  1
  O  O217  1  0.99257291  0.63821443  0.25563973  1
  O  O218  1  0.99279921  0.61828920  0.73829147  1
  O  O219  1  0.36519418  0.25896167  -0.01007772  1
  O  O220  1  0.36945019  0.25101706  0.50973515  1
  O  O221  1  0.37704343  0.76655552  0.00520455  1
  O  O222  1  0.36732847  0.75736509  0.50537099  1
  O  O223  1  0.86752337  0.25373719  -0.00326638  1
  O  O224  1  0.87669548  0.26409627  0.51018760  1
  O  O225  1  0.87881119  0.75915844  0.00566495  1
  O  O226  1  0.87483086  0.76018025  0.51181324  1
  O  O227  1  0.13009008  0.25562921  0.48493977  1
  O  O228  1  0.13712492  0.25428968  0.98524550  1
  O  O229  1  0.13024086  0.74241380  0.49641496  1
  O  O230  1  0.11973994  0.76285199  0.98261353  1
  O  O231  1  0.62328513  0.25047393  0.48891712  1
  O  O232  1  0.62387992  0.23751729  0.98747199  1
  O  O233  1  0.62719454  0.73717254  0.49992838  1
  O  O234  1  0.62495720  0.74609236  0.98858591  1
  O  O235  1  0.50543840  0.24297424  0.14135359  1
  O  O236  1  0.49239824  0.23791522  0.62200541  1
  O  O237  1  0.48504099  0.75156490  0.12576591  1
  O  O238  1  0.48957929  0.74580443  0.61896743  1
  O  O239  1  1.00355236  0.26040284  0.13420761  1
  O  O240  1  0.98930849  0.24107929  0.62394572  1
  O  O241  1  0.98693209  0.75448043  0.13285207  1
  O  O242  1  0.99127446  0.73976476  0.62593540  1
  O  O243  1  0.00883390  0.25673095  0.37149573  1
  O  O244  1  0.00936869  0.25907717  0.87735240  1
  O  O245  1  0.00748613  0.75258353  0.36743962  1
  O  O246  1  0.00346726  0.76308369  0.87218375  1
  O  O247  1  0.51413543  0.24731929  0.37260673  1
  O  O248  1  0.51008642  0.23814255  0.86646679  1
  O  O249  1  0.50028815  0.76465203  0.37751043  1
  O  O250  1  0.51244202  0.76701746  0.87113670  1
  O  O251  1  0.25310548  0.14021211  0.49776661  1
  O  O252  1  0.25801190  0.13280434  0.98745456  1
  O  O253  1  0.24442359  0.63007272  0.49491545  1
  O  O254  1  0.25708292  0.62329762  0.97727206  1
  O  O255  1  0.74738532  0.11909043  0.48497196  1
  O  O256  1  0.74868182  0.13015645  0.99421136  1
  O  O257  1  0.74411093  0.62503314  0.49538136  1
  O  O258  1  0.74348313  0.62272360  0.98773970  1
  O  O259  1  0.25231531  0.36459938  0.00738055  1
  O  O260  1  0.25079960  0.36366653  0.50740355  1
  O  O261  1  0.26595227  0.88325034  -0.00317863  1
  O  O262  1  0.25048657  0.87593832  0.50740308  1
  O  O263  1  0.73987333  0.37776039  0.01578521  1
  O  O264  1  0.75578943  0.38065425  0.51341216  1
  O  O265  1  0.75915656  0.88200056  0.00905429  1
  O  O266  1  0.75657172  0.87474961  0.50770156  1
  O  O267  1  0.11663489  0.49254688  0.24033048  1
  O  O268  1  0.12330883  0.48510767  0.74294348  1
  O  O269  1  0.12985222  0.99480545  0.24353944  1
  O  O270  1  0.13754552  0.99005826  0.75030066  1
  O  O271  1  0.62590506  0.48911645  0.24796034  1
  O  O272  1  0.63284722  0.49175604  0.74577651  1
  O  O273  1  0.63299317  0.98965178  0.25108037  1
  O  O274  1  0.63400407  0.99455683  0.74981381  1
  O  O275  1  0.36879126  0.00498313  0.25215945  1
  O  O276  1  0.36467599  0.00219889  0.75689422  1
  O  O277  1  0.38058050  0.49930591  0.26610139  1
  O  O278  1  0.36178726  0.50588890  0.72921379  1
  O  O279  1  0.86375480  -0.00690381  0.25152687  1
  O  O280  1  0.87080905  0.00772035  0.75507824  1
  O  O281  1  0.87691952  0.51395135  0.24212641  1
  O  O282  1  0.87081572  0.50635445  0.75616869  1
  O  O283  1  0.11213216  0.36883047  0.37258580  1
  O  O284  1  0.11732233  0.37151460  0.87067617  1
  O  O285  1  0.12234038  0.86659246  0.35950768  1
  O  O286  1  0.11647697  0.87060558  0.86572790  1
  O  O287  1  0.63414956  0.35980658  0.37012289  1
  O  O288  1  0.63395045  0.36257143  0.85850949  1
  O  O289  1  0.61812545  0.87443200  0.36991049  1
  O  O290  1  0.62349506  0.87150474  0.87325743  1
  O  O291  1  0.37598826  0.11818513  0.13708639  1
  O  O292  1  0.38250478  0.13087675  0.63181920  1
  O  O293  1  0.37337325  0.63534289  0.12842917  1
  O  O294  1  0.38510767  0.63081967  0.62934514  1
  O  O295  1  0.85347094  0.13724592  0.10988977  1
  O  O296  1  0.87918417  0.13321807  0.63030341  1
  O  O297  1  0.86365172  0.63662718  0.13026566  1
  O  O298  1  0.88151674  0.63230445  0.62681778  1
  O  O299  1  0.25086024  0.24463148  0.10712732  1
  O  O300  1  0.25470273  0.25891069  0.61978380  1
  O  O301  1  0.26008094  0.75580511  0.12129047  1
  O  O302  1  0.26306070  0.74260873  0.62102512  1
  O  O303  1  0.74436610  0.25806228  0.12372248  1
  O  O304  1  0.76266798  0.25908805  0.62741482  1
  O  O305  1  0.75744175  0.76225929  0.13047290  1
  O  O306  1  0.75680073  0.76267049  0.62367425  1
  O  O307  1  0.23871199  0.25306338  0.38066621  1
  O  O308  1  0.24488391  0.24148985  0.88453798  1
  O  O309  1  0.24398571  0.74558165  0.38492288  1
  O  O310  1  0.23634224  0.74619099  0.86955936  1
  O  O311  1  0.74096451  0.23743631  0.36826848  1
  O  O312  1  0.74313169  0.23854996  0.86758872  1
  O  O313  1  0.74721521  0.73669443  0.37884149  1
  O  O314  1  0.74338915  0.74084198  0.87015201  1
  O  O315  1  -0.00608292  0.10683390  -0.00801110  1
  O  O316  1  0.00156076  0.12623659  0.51334777  1
  O  O317  1  -0.00376118  0.61022145  -0.00599609  1
  O  O318  1  0.00577665  0.62442426  0.51087681  1
  O  O319  1  0.50892254  0.11542262  -0.00459812  1
  O  O320  1  0.50121735  0.11790104  0.50916156  1
  O  O321  1  0.51519252  0.62836824  0.00234124  1
  O  O322  1  0.50715162  0.62030667  0.50534992  1
  O  O323  1  0.50092520  0.38842632  0.50834740  1
  O  O324  1  0.51964408  0.37025497  0.99077842  1
  O  O325  1  0.49647523  0.88377041  0.49434234  1
  O  O326  1  0.49213576  0.88226058  0.99331070  1
  O  O327  1  0.99287459  0.37545725  0.48710161  1
  O  O328  1  0.99732569  0.38234808  0.98761401  1
  O  O329  1  0.99147277  0.87917455  0.49796443  1
  O  O330  1  0.98868970  0.88197296  0.98900546  1
  O  O331  1  0.48695737  0.50414776  0.38474396  1
  O  O332  1  0.46220645  0.54411784  0.83167544  1
  O  O333  1  0.49814577  0.99263871  0.38184580  1
  O  O334  1  0.49614221  0.98964820  0.88313087  1
  O  O335  1  1.00114373  0.48659713  0.37653929  1
  O  O336  1  0.98990658  0.49529911  0.88058215  1
  O  O337  1  1.00062553  0.99894217  0.37988140  1
  O  O338  1  0.99528782  0.98989598  0.87795057  1
  O  O339  1  0.00691701  -0.00492341  0.11462737  1
  O  O340  1  -0.00007270  0.01880138  0.61958845  1
  O  O341  1  -0.00216611  0.49589734  0.10849320  1
  O  O342  1  0.00726564  0.50713180  0.62234632  1
  O  O343  1  0.50444497  -0.00600899  0.11232492  1
  O  O344  1  0.49991199  0.01091972  0.61797290  1
  O  O345  1  0.51160248  0.49969471  0.13252318  1
  O  O346  1  0.50830805  0.51098646  0.61653196  1
  O  O347  1  0.25351185  0.36624372  0.23148089  1
  O  O348  1  0.24751249  0.38193289  0.74651087  1
  O  O349  1  0.24095795  0.88580335  0.24792069  1
  O  O350  1  0.24230460  0.88407224  0.75153776  1
  O  O351  1  0.73887285  0.37332914  0.24254214  1
  O  O352  1  0.74561918  0.38185755  0.73852809  1
  O  O353  1  0.74331031  0.87951836  0.24670410  1
  O  O354  1  0.74703985  0.88196876  0.74285554  1
  O  O355  1  0.25849074  0.12002369  0.24955494  1
  O  O356  1  0.25972619  0.11763051  0.75739800  1
  O  O357  1  0.25800194  0.63031542  0.27195613  1
  O  O358  1  0.26646614  0.62217760  0.76213601  1
  O  O359  1  0.74450096  0.11373935  0.26539037  1
  O  O360  1  0.75856282  0.12007474  0.75483615  1
  O  O361  1  0.75898529  0.62358107  0.25831806  1
  O  O362  1  0.75458535  0.61884787  0.75706328  1
  O  O363  1  0.37367177  0.11750347  0.36789128  1
  O  O364  1  0.36904949  0.11860572  0.86737231  1
  O  O365  1  0.36841145  0.61396239  0.38002621  1
  O  O366  1  0.36685540  0.64911179  0.86723821  1
  O  O367  1  0.86288792  0.12852168  0.38036419  1
  O  O368  1  0.87002324  0.12375566  0.86582581  1
  O  O369  1  0.86865227  0.63011142  0.36566531  1
  O  O370  1  0.86956152  0.62236782  0.86977574  1
  O  O371  1  0.14684570  0.37220660  0.12246299  1
  O  O372  1  0.12996371  0.37414221  0.63254189  1
  O  O373  1  0.12459088  0.87729075  0.13480004  1
  O  O374  1  0.12360418  0.86922356  0.63023917  1
  O  O375  1  0.63188487  0.38058959  0.13435056  1
  O  O376  1  0.63388998  0.37769316  0.63270400  1
  O  O377  1  0.63112203  0.87464496  0.13159249  1
  O  O378  1  0.63418372  0.87662320  0.63013171  1
  O  O379  1  0.11918686  0.25832413  0.26068018  1
  O  O380  1  0.13722364  0.26669607  0.76409946  1
  O  O381  1  0.11751576  0.75739735  0.25390258  1
  O  O382  1  0.12831368  0.76318194  0.75550107  1
  O  O383  1  0.61555474  0.25236957  0.26076615  1
  O  O384  1  0.62784780  0.26153001  0.75292363  1
  O  O385  1  0.62318601  0.76385202  0.25247189  1
  O  O386  1  0.62587825  0.75960926  0.76054217  1
  O  O387  1  0.39209210  0.24228706  0.25822579  1
  O  O388  1  0.37077315  0.23687981  0.73584598  1
  O  O389  1  0.37607870  0.75457314  0.24058981  1
  O  O390  1  0.38168575  0.74404513  0.74161908  1
  O  O391  1  0.88893431  0.25095062  0.24734264  1
  O  O392  1  0.87228837  0.24081675  0.74213248  1
  O  O393  1  0.88177869  0.74380687  0.24168193  1
  O  O394  1  0.87031976  0.74347858  0.73586257  1
  O  O395  1  0.38513714  0.49683111  0.49548085  1
  O  O396  1  0.37958052  0.50036353  0.99599499  1
  O  O397  1  0.38557135  0.99660323  0.49496478  1
  O  O398  1  0.38310011  0.99562195  0.99392344  1
  O  O399  1  0.87810477  0.48245839  0.50714987  1
  O  O400  1  0.88012289  0.49695216  0.99191426  1
  O  O401  1  0.87661923  0.98813010  0.49873699  1
  O  O402  1  0.88084754  0.98693187  0.99086192  1
  O  O403  1  0.11506286  -0.00769214  0.00984535  1
  O  O404  1  0.13550318  -0.01240116  0.50853634  1
  O  O405  1  0.11026987  0.49984437  0.00189856  1
  O  O406  1  0.12221860  0.50665316  0.50761658  1
  O  O407  1  0.61724558  0.01057983  -0.00061918  1
  O  O408  1  0.61323206  0.00143559  0.50299482  1
  O  O409  1  0.63017101  0.51265018  0.01298421  1
  O  O410  1  0.61912282  0.50962405  0.50351669  1
  O  O411  1  0.36453757  0.37578088  0.11925895  1
  O  O412  1  0.36743751  0.36624122  0.62419002  1
  O  O413  1  0.37255896  0.87335587  0.11261392  1
  O  O414  1  0.38013608  0.86552771  0.61818542  1
  O  O415  1  0.85520375  0.38052129  0.12211464  1
  O  O416  1  0.87121615  0.36802449  0.62283927  1
  O  O417  1  0.86746584  0.86676877  0.11573703  1
  O  O418  1  0.87111568  0.87010829  0.62131456  1
  O  O419  1  0.12811708  0.14076418  0.37005686  1
  O  O420  1  0.13447068  0.13342562  0.86448321  1
  O  O421  1  0.13198182  0.62772741  0.38209684  1
  O  O422  1  0.13108799  0.63826156  0.86202664  1
  O  O423  1  0.63217252  0.13744522  0.38019924  1
  O  O424  1  0.63367315  0.12980822  0.87962045  1
  O  O425  1  0.63058025  0.62609216  0.38329116  1
  O  O426  1  0.63248441  0.63270035  0.88074043  1
