# generated using pymatgen
data_V85Zn86O256
_symmetry_space_group_name_H-M   'P 1'
_cell_length_a   16.92912384
_cell_length_b   16.92986500
_cell_length_c   16.92916080
_cell_angle_alpha   89.93361886
_cell_angle_beta   90.02599748
_cell_angle_gamma   89.95715820
_symmetry_Int_Tables_number   1
_chemical_formula_structural   V85Zn86O256
_chemical_formula_sum   'V85 Zn86 O256'
_cell_volume   4852.02410013
_cell_formula_units_Z   1
loop_
 _symmetry_equiv_pos_site_id
 _symmetry_equiv_pos_as_xyz
  1  'x, y, z'
loop_
 _atom_site_type_symbol
 _atom_site_label
 _atom_site_symmetry_multiplicity
 _atom_site_fract_x
 _atom_site_fract_y
 _atom_site_fract_z
 _atom_site_occupancy
  V  V0  1  0.00593406  0.37051927  0.87587296  1
  V  V1  1  0.25501284  0.38810368  0.13046398  1
  V  V2  1  0.24639495  0.25423679  0.49772867  1
  V  V3  1  0.50039455  0.13336542  0.62355112  1
  V  V4  1  0.88141973  0.12522362  0.25315457  1
  V  V5  1  0.37552445  0.74815100  0.12587054  1
  V  V6  1  0.37380169  0.25547729  0.61801281  1
  V  V7  1  0.62732174  0.50012652  0.12427694  1
  V  V8  1  0.37442973  0.75278356  0.63943138  1
  V  V9  1  0.62409330  0.75520907  0.87493228  1
  V  V10  1  0.62323670  0.37339148  0.24794334  1
  V  V11  1  0.00311258  -0.00507077  0.50934622  1
  V  V12  1  0.87776512  0.62462759  0.75164167  1
  V  V13  1  0.75325242  0.37858676  0.62213604  1
  V  V14  1  0.87189994  0.62619610  0.26934194  1
  V  V15  1  0.74981179  0.24999906  -0.00057794  1
  V  V16  1  0.74555727  0.73473603  0.49832570  1
  V  V17  1  0.12169444  0.39050123  0.24266698  1
  V  V18  1  0.37942215  0.61027785  0.75525083  1
  V  V19  1  0.11682307  0.12452641  -0.00248454  1
  V  V20  1  0.12642904  0.74964659  0.87642982  1
  V  V21  1  -0.00388294  0.24661157  0.74876404  1
  V  V22  1  0.50103417  0.74758222  0.25246933  1
  V  V23  1  0.50016084  0.00011820  -0.00153319  1
  V  V24  1  0.24314335  0.00435673  0.74385010  1
  V  V25  1  0.25063605  0.24684948  0.01352037  1
  V  V26  1  0.87655148  0.74914117  0.62549379  1
  V  V27  1  0.12629596  0.86418878  0.25530400  1
  V  V28  1  0.25164400  0.61063287  0.87041431  1
  V  V29  1  0.87592213  -0.00580486  0.37737787  1
  V  V30  1  0.61671152  0.25008320  0.87389963  1
  V  V31  1  0.76287682  0.75529927  0.00397036  1
  V  V32  1  0.62615604  0.24913394  0.37311675  1
  V  V33  1  0.37291430  0.12831354  0.24868119  1
  V  V34  1  0.48349647  0.37670298  0.37836462  1
  V  V35  1  0.62488254  0.62726223  -0.00065785  1
  V  V36  1  0.00439931  0.49761950  0.00634837  1
  V  V37  1  0.88468431  0.24810935  0.12935425  1
  V  V38  1  0.36474000  0.61300267  0.25804808  1
  V  V39  1  0.12835655  0.62009143  0.01135375  1
  V  V40  1  0.37526026  0.12674330  0.75109207  1
  V  V41  1  0.50211455  0.87263057  0.37889431  1
  V  V42  1  0.25211388  0.38290356  0.62523069  1
  V  V43  1  0.24786431  -0.00119748  0.24807369  1
  V  V44  1  0.75054416  0.87639010  0.62153796  1
  V  V45  1  0.62546383  0.73332854  0.38110738  1
  V  V46  1  0.76583623  0.87269617  0.12427769  1
  V  V47  1  0.11664515  -0.00266331  0.12078092  1
  V  V48  1  0.75442456  0.12611448  0.86403623  1
  V  V49  1  0.62691592  0.87263314  0.25245994  1
  V  V50  1  0.75038534  0.37317546  0.12383661  1
  V  V51  1  -0.00507778  0.37642208  0.37086916  1
  V  V52  1  0.37583623  -0.00046615  0.37519251  1
  V  V53  1  0.00085019  0.75102571  0.75316563  1
  V  V54  1  0.37733424  0.37435273  -0.01190346  1
  V  V55  1  0.12161786  0.87990983  0.74550390  1
  V  V56  1  0.62431111  0.00183138  0.62445788  1
  V  V57  1  0.87268850  0.49853349  0.87602105  1
  V  V58  1  0.75147866  0.62924369  0.87477247  1
  V  V59  1  0.24584426  0.13400612  0.87454195  1
  V  V60  1  0.13295913  0.62322055  0.47945167  1
  V  V61  1  0.88161302  0.00324550  0.88190934  1
  V  V62  1  0.49940248  0.87628163  0.86830518  1
  V  V63  1  0.24993023  0.74795306  0.49016960  1
  V  V64  1  -0.00337179  0.50120636  0.49735271  1
  V  V65  1  0.12248838  0.12202361  0.51119891  1
  V  V66  1  0.62555405  0.87607454  0.74877595  1
  V  V67  1  0.62691549  -0.00384351  0.12549431  1
  V  V68  1  0.12918025  0.37482971  0.75340539  1
  V  V69  1  0.25175744  0.74914802  -0.00337586  1
  V  V70  1  -0.00309706  0.87631125  0.89244644  1
  V  V71  1  0.12633299  0.50494915  0.63061941  1
  V  V72  1  0.49584531  0.12376521  0.12346605  1
  V  V73  1  0.50865183  0.62556265  0.62291282  1
  V  V74  1  0.75412600  0.24943078  0.49860949  1
  V  V75  1  0.74508030  0.50087256  0.74514211  1
  V  V76  1  0.61876077  0.37561206  0.74847794  1
  V  V77  1  0.75603343  0.49989037  0.26250566  1
  V  V78  1  0.49653114  0.25009574  0.24319580  1
  V  V79  1  0.37656355  0.87372038  -0.00183726  1
  V  V80  1  0.50089315  0.62298482  0.12436342  1
  V  V81  1  0.11624823  0.24454833  0.36343530  1
  V  V82  1  0.49874909  0.00108193  0.50067929  1
  V  V83  1  0.87469054  0.37378557  0.00064646  1
  V  V84  1  -0.01504696  0.62759019  0.12555161  1
  Zn  Zn85  1  0.48596045  0.50098752  -0.01357280  1
  Zn  Zn86  1  0.00594728  0.62574682  0.62514986  1
  Zn  Zn87  1  0.24744634  0.12451487  0.37674089  1
  Zn  Zn88  1  0.37279756  0.87279845  0.50342677  1
  Zn  Zn89  1  0.87371190  0.24270013  0.62913951  1
  Zn  Zn90  1  0.75957893  0.00670220  0.74440756  1
  Zn  Zn91  1  0.87558378  0.37848113  0.49574037  1
  Zn  Zn92  1  0.75178524  -0.00109762  0.25228599  1
  Zn  Zn93  1  0.50095475  0.50952612  0.49939230  1
  Zn  Zn94  1  0.62611674  0.12456288  -0.00097635  1
  Zn  Zn95  1  0.33597807  0.50048693  0.39670652  1
  Zn  Zn96  1  0.49512769  0.25728716  0.75363086  1
  Zn  Zn97  1  0.37302098  0.00207147  0.87534000  1
  Zn  Zn98  1  0.62557799  0.12728792  0.49935024  1
  Zn  Zn99  1  0.00765915  0.86662390  0.38039341  1
  Zn  Zn100  1  -0.00602344  0.74896871  0.25203798  1
  Zn  Zn101  1  0.24644419  0.87812361  0.62334337  1
  Zn  Zn102  1  0.00041759  0.12341741  0.12635446  1
  Zn  Zn103  1  -0.00550181  0.11579982  0.63386555  1
  Zn  Zn104  1  0.87810181  0.87018010  0.49788658  1
  Zn  Zn105  1  0.75033609  0.12190926  0.37441489  1
  Zn  Zn106  1  0.24995513  0.87452479  0.12142129  1
  Zn  Zn107  1  0.18566662  0.18444081  0.18555879  1
  Zn  Zn108  1  0.18336883  0.19430418  0.68841728  1
  Zn  Zn109  1  0.18962885  0.68379399  0.18456075  1
  Zn  Zn110  1  0.19322307  0.68963510  0.69024396  1
  Zn  Zn111  1  0.69112026  0.18234303  0.18832669  1
  Zn  Zn112  1  0.68609537  0.19375243  0.68428441  1
  Zn  Zn113  1  0.69319286  0.68801458  0.19060229  1
  Zn  Zn114  1  0.68927344  0.69324472  0.69157669  1
  Zn  Zn115  1  0.30621956  0.31086219  0.30856474  1
  Zn  Zn116  1  0.30879801  0.31078714  0.81125332  1
  Zn  Zn117  1  0.31456915  0.81207608  0.31105001  1
  Zn  Zn118  1  0.30860191  0.81460482  0.81291589  1
  Zn  Zn119  1  0.81312475  0.31143382  0.31051021  1
  Zn  Zn120  1  0.81128092  0.31483027  0.81379417  1
  Zn  Zn121  1  0.81178222  0.80919310  0.31468344  1
  Zn  Zn122  1  0.81494942  0.82009748  0.81381685  1
  Zn  Zn123  1  0.18042695  0.43323885  0.43726124  1
  Zn  Zn124  1  0.18796362  0.43375779  0.94167108  1
  Zn  Zn125  1  0.18877733  0.93786106  0.43830071  1
  Zn  Zn126  1  0.18839197  0.94129794  0.93238243  1
  Zn  Zn127  1  0.67874484  0.43952324  0.43888765  1
  Zn  Zn128  1  0.65550606  0.45403718  0.91923205  1
  Zn  Zn129  1  0.68803384  0.93483310  0.43943600  1
  Zn  Zn130  1  0.69394186  0.94119845  0.93992800  1
  Zn  Zn131  1  0.31157499  0.06051483  0.06323561  1
  Zn  Zn132  1  0.31159971  0.06601025  0.56231245  1
  Zn  Zn133  1  0.31382526  0.56009468  0.06173328  1
  Zn  Zn134  1  0.31817212  0.56395676  0.56230785  1
  Zn  Zn135  1  0.81316499  0.06289370  0.06095348  1
  Zn  Zn136  1  0.81686337  0.06635288  0.56156763  1
  Zn  Zn137  1  0.80800291  0.56001287  0.06174823  1
  Zn  Zn138  1  0.81526513  0.56256640  0.56365914  1
  Zn  Zn139  1  0.43599040  0.43652343  0.18138059  1
  Zn  Zn140  1  0.43754922  0.44052945  0.68184146  1
  Zn  Zn141  1  0.43817035  0.93587980  0.18899963  1
  Zn  Zn142  1  0.43493374  0.94092369  0.68744262  1
  Zn  Zn143  1  0.93732169  0.43888708  0.18884965  1
  Zn  Zn144  1  0.93749400  0.43570911  0.68616569  1
  Zn  Zn145  1  0.94172440  0.93924112  0.19151805  1
  Zn  Zn146  1  0.93497679  0.93791420  0.69397563  1
  Zn  Zn147  1  0.06002103  0.05722236  0.31624537  1
  Zn  Zn148  1  0.06146299  0.06146055  0.81770720  1
  Zn  Zn149  1  0.06548789  0.56044764  0.31229915  1
  Zn  Zn150  1  0.06462627  0.55949891  0.81646997  1
  Zn  Zn151  1  0.56300513  0.06203778  0.31159650  1
  Zn  Zn152  1  0.56466356  0.06402157  0.81087018  1
  Zn  Zn153  1  0.55823057  0.55776751  0.30898269  1
  Zn  Zn154  1  0.56063587  0.56526129  0.80767051  1
  Zn  Zn155  1  0.43680093  0.19087958  0.43569581  1
  Zn  Zn156  1  0.43291979  0.19072916  0.94046290  1
  Zn  Zn157  1  0.43296393  0.68461631  0.44147545  1
  Zn  Zn158  1  0.43966505  0.68806966  0.93331328  1
  Zn  Zn159  1  0.93856061  0.18365236  0.43988069  1
  Zn  Zn160  1  0.93647330  0.18862449  0.93384784  1
  Zn  Zn161  1  0.94341337  0.68918300  0.43813301  1
  Zn  Zn162  1  0.94023244  0.68703031  0.93916406  1
  Zn  Zn163  1  0.06744004  0.30951665  0.06246685  1
  Zn  Zn164  1  0.06356394  0.31367966  0.56252193  1
  Zn  Zn165  1  0.06431930  0.80642066  0.07067137  1
  Zn  Zn166  1  0.06575317  0.80811129  0.56191155  1
  Zn  Zn167  1  0.56076224  0.31122292  0.06051892  1
  Zn  Zn168  1  0.57800294  0.34577616  0.54509815  1
  Zn  Zn169  1  0.56524659  0.81281022  0.06055503  1
  Zn  Zn170  1  0.55923046  0.80736296  0.56420867  1
  O  O171  1  0.12311556  0.11624231  0.11793387  1
  O  O172  1  0.11904265  0.13092567  0.61435401  1
  O  O173  1  0.11887205  0.62444138  0.11432547  1
  O  O174  1  0.12825882  0.61200768  0.63338412  1
  O  O175  1  0.61616780  0.11202714  0.12647825  1
  O  O176  1  0.61535538  0.12197752  0.62422631  1
  O  O177  1  0.61877468  0.62050412  0.12399060  1
  O  O178  1  0.60620541  0.63803966  0.63847906  1
  O  O179  1  0.38151852  0.38042977  0.36034267  1
  O  O180  1  0.36921446  0.37056331  0.88862158  1
  O  O181  1  0.38451928  0.88137674  0.37553916  1
  O  O182  1  0.38476669  0.87638630  0.87705602  1
  O  O183  1  0.89087427  0.37103612  0.37125651  1
  O  O184  1  0.88208754  0.38020478  0.88254065  1
  O  O185  1  0.87397789  0.88475139  0.37582290  1
  O  O186  1  0.88713955  0.88301059  0.87750183  1
  O  O187  1  0.25615675  0.00156971  0.36372249  1
  O  O188  1  0.25366706  0.01296375  0.86379510  1
  O  O189  1  0.22905091  0.50742490  0.37462828  1
  O  O190  1  0.24668572  0.51217538  0.87898963  1
  O  O191  1  0.75906489  0.00035006  0.37639149  1
  O  O192  1  0.75595185  0.01059231  0.87229393  1
  O  O193  1  0.74201905  0.49271518  0.36111157  1
  O  O194  1  0.75289914  0.50837637  0.86733007  1
  O  O195  1  0.24598370  0.48626074  0.12039137  1
  O  O196  1  0.24497324  0.48891751  0.61993798  1
  O  O197  1  0.24582807  0.99784519  0.13658867  1
  O  O198  1  0.25379449  1.00071247  0.63914175  1
  O  O199  1  0.74633053  0.49143958  0.13539329  1
  O  O200  1  0.75621535  0.49340535  0.63417091  1
  O  O201  1  0.74161893  0.99201502  0.12509828  1
  O  O202  1  0.74376965  0.99266264  0.62314735  1
  O  O203  1  0.01211529  0.37817586  0.25329925  1
  O  O204  1  0.00570823  0.37092246  0.75889901  1
  O  O205  1  0.01733423  0.87346925  0.24831524  1
  O  O206  1  0.00609671  0.86825136  0.75946254  1
  O  O207  1  0.50280402  0.36576861  0.24947779  1
  O  O208  1  0.51431653  0.37668812  0.74201671  1
  O  O209  1  0.50605365  0.86686070  0.25713784  1
  O  O210  1  0.50712426  0.88333452  0.76121877  1
  O  O211  1  0.49290691  0.12900264  0.24339742  1
  O  O212  1  0.49120089  0.12713287  0.74207478  1
  O  O213  1  0.49499277  0.62849107  0.23778371  1
  O  O214  1  0.48529423  0.62853628  0.74853079  1
  O  O215  1  0.98706028  0.11881980  0.24812820  1
  O  O216  1  1.01097970  0.14339064  0.75335046  1
  O  O217  1  0.98407036  0.61636336  0.24398115  1
  O  O218  1  0.99484885  0.63218003  0.75304112  1
  O  O219  1  0.36089341  0.25914821  0.00005295  1
  O  O220  1  0.36098585  0.24147488  0.50812699  1
  O  O221  1  0.37315634  0.75343538  0.00602688  1
  O  O222  1  0.36201202  0.74784951  0.51112193  1
  O  O223  1  0.86854475  0.25416651  0.00596211  1
  O  O224  1  0.86312402  0.25344389  0.49492272  1
  O  O225  1  0.86214484  0.74743756  -0.00381861  1
  O  O226  1  0.86439635  0.74811980  0.50857514  1
  O  O227  1  0.12835983  0.24235541  0.49162650  1
  O  O228  1  0.13997419  0.24018624  1.00338782  1
  O  O229  1  0.13857762  0.73474039  0.50786339  1
  O  O230  1  0.13220596  0.74012736  0.99620465  1
  O  O231  1  0.63548791  0.25418708  0.48952219  1
  O  O232  1  0.63238223  0.24950261  0.99263709  1
  O  O233  1  0.63694002  0.75288409  0.49575222  1
  O  O234  1  0.63159812  0.74476620  0.99314610  1
  O  O235  1  0.50612710  0.23908894  0.13528656  1
  O  O236  1  0.49160419  0.24112807  0.62320564  1
  O  O237  1  0.49566854  0.74276697  0.12868685  1
  O  O238  1  0.48174432  0.74398865  0.62338234  1
  O  O239  1  0.98753854  0.24839753  0.12036895  1
  O  O240  1  0.99838635  0.25582052  0.64009811  1
  O  O241  1  1.00322035  0.73386882  0.13383849  1
  O  O242  1  0.99168746  0.74823692  0.63221021  1
  O  O243  1  0.01224416  0.25616389  0.38107702  1
  O  O244  1  -0.00209290  0.26334218  0.86784136  1
  O  O245  1  -0.00574715  0.75525452  0.36555944  1
  O  O246  1  0.00623552  0.75626021  0.87249450  1
  O  O247  1  0.50329701  0.25362097  0.35941409  1
  O  O248  1  0.51250793  0.24483255  0.87528273  1
  O  O249  1  0.50539229  0.75422245  0.37435145  1
  O  O250  1  0.51498382  0.76095663  0.88032053  1
  O  O251  1  0.24006633  0.13349233  0.49891489  1
  O  O252  1  0.24916087  0.13371127  0.99625377  1
  O  O253  1  0.24022155  0.63347488  0.50438365  1
  O  O254  1  0.24523569  0.62795768  0.99329447  1
  O  O255  1  0.74523655  0.13495509  0.49574720  1
  O  O256  1  0.74828630  0.13730187  0.99412689  1
  O  O257  1  0.74723628  0.63578656  0.50699348  1
  O  O258  1  0.74469388  0.63405470  0.99423944  1
  O  O259  1  0.25196085  0.36503148  0.01081001  1
  O  O260  1  0.23818610  0.36146902  0.50914719  1
  O  O261  1  0.25873850  0.86900071  -0.00257655  1
  O  O262  1  0.24862830  0.86278299  0.50384998  1
  O  O263  1  0.75462897  0.36282976  0.00439990  1
  O  O264  1  0.75403200  0.37067971  0.50553961  1
  O  O265  1  0.74378809  0.86668745  0.01201956  1
  O  O266  1  0.75108114  0.86681019  0.51275111  1
  O  O267  1  0.12271273  0.48858948  0.24269845  1
  O  O268  1  0.11868446  0.48715084  0.74342898  1
  O  O269  1  0.13248676  0.99464779  0.24270700  1
  O  O270  1  0.13052813  0.99302992  0.75462974  1
  O  O271  1  0.63355748  0.49680368  0.24021739  1
  O  O272  1  0.63838360  0.49271620  0.75105172  1
  O  O273  1  0.62648807  0.99229037  0.24353914  1
  O  O274  1  0.62948510  0.99149483  0.74319732  1
  O  O275  1  0.36922916  0.00674867  0.25346231  1
  O  O276  1  0.36814478  0.01455564  0.75039237  1
  O  O277  1  0.37835508  0.51351198  0.24391085  1
  O  O278  1  0.37607149  0.51143614  0.75228317  1
  O  O279  1  0.87463405  0.00460876  0.25993281  1
  O  O280  1  0.87145686  -0.00634831  0.76969417  1
  O  O281  1  0.86196775  0.50508625  0.24972052  1
  O  O282  1  0.86823207  0.50432309  0.75631945  1
  O  O283  1  0.11737967  0.36255300  0.35999719  1
  O  O284  1  0.11705188  0.38044671  0.86806579  1
  O  O285  1  0.12830063  0.87960985  0.35813531  1
  O  O286  1  0.11847725  0.87059107  0.86843229  1
  O  O287  1  0.61453577  0.36164614  0.36439694  1
  O  O288  1  0.64065446  0.35820221  0.85982477  1
  O  O289  1  0.61845457  0.86784901  0.37054211  1
  O  O290  1  0.62160474  0.87491866  0.86886992  1
  O  O291  1  0.38790002  0.11738148  0.13273021  1
  O  O292  1  0.37944154  0.13476685  0.63115957  1
  O  O293  1  0.38243580  0.63234962  0.12664392  1
  O  O294  1  0.37593216  0.63431414  0.64133965  1
  O  O295  1  0.87670544  0.13080566  0.13104973  1
  O  O296  1  0.88179430  0.12878727  0.62620607  1
  O  O297  1  0.88260142  0.61923310  0.12663277  1
  O  O298  1  0.87780305  0.63621585  0.63251898  1
  O  O299  1  0.25008380  0.25293700  0.11606878  1
  O  O300  1  0.25509740  0.25772000  0.61795871  1
  O  O301  1  0.26038757  0.74975788  0.11544875  1
  O  O302  1  0.26186531  0.75291438  0.62170980  1
  O  O303  1  0.75497041  0.25355234  0.11775260  1
  O  O304  1  0.75364454  0.25604907  0.61484592  1
  O  O305  1  0.74377489  0.76075866  0.11628648  1
  O  O306  1  0.75551550  0.75518035  0.61775541  1
  O  O307  1  0.23734368  0.24879147  0.38129715  1
  O  O308  1  0.25124046  0.23883362  0.88454858  1
  O  O309  1  0.25740677  0.75148682  0.39105381  1
  O  O310  1  0.24489485  0.74325107  0.88118769  1
  O  O311  1  0.74131184  0.25000850  0.37864931  1
  O  O312  1  0.74792730  0.24250688  0.88172579  1
  O  O313  1  0.74205527  0.75176089  0.39105747  1
  O  O314  1  0.74236532  0.75290825  0.88205338  1
  O  O315  1  0.01389270  0.13187040  -0.00048731  1
  O  O316  1  0.00779646  0.11465451  0.50183645  1
  O  O317  1  0.00667238  0.61799602  0.00653058  1
  O  O318  1  0.01536566  0.62065661  0.50298751  1
  O  O319  1  0.50039391  0.12108938  0.00829611  1
  O  O320  1  0.50091947  0.12094659  0.50689797  1
  O  O321  1  0.50498359  0.62464965  0.00963799  1
  O  O322  1  0.50134334  0.63061930  0.51741333  1
  O  O323  1  0.48356532  0.35059359  0.47541429  1
  O  O324  1  0.47988284  0.37125657  1.00691011  1
  O  O325  1  0.49711592  0.88115618  0.49550204  1
  O  O326  1  0.49674657  0.87931121  0.98920361  1
  O  O327  1  1.00197647  0.38285893  0.49089964  1
  O  O328  1  0.99929241  0.37955958  0.99518154  1
  O  O329  1  1.00068022  0.87889850  0.49976711  1
  O  O330  1  1.00858963  0.86789761  0.99085022  1
  O  O331  1  0.50501901  0.47959229  0.37314067  1
  O  O332  1  0.54858801  0.49817138  0.89515781  1
  O  O333  1  0.49665724  0.99432370  0.38118545  1
  O  O334  1  0.49937809  0.99472124  0.88107473  1
  O  O335  1  1.01013937  0.48868577  0.38435351  1
  O  O336  1  0.99343299  0.49191992  0.88541395  1
  O  O337  1  0.99260493  0.99240625  0.38595660  1
  O  O338  1  0.99035363  0.99287036  0.87812543  1
  O  O339  1  0.01315720  0.00037521  0.12376015  1
  O  O340  1  -0.00366597  -0.00456821  0.61427791  1
  O  O341  1  -0.00494762  0.50521956  0.11179634  1
  O  O342  1  0.00960320  0.50063433  0.61904497  1
  O  O343  1  0.50644411  0.00385729  0.12047074  1
  O  O344  1  0.50189488  0.01172135  0.62005733  1
  O  O345  1  0.50988222  0.50665006  0.11933038  1
  O  O346  1  0.49640128  0.52213271  0.62862063  1
  O  O347  1  0.23830880  0.37008039  0.23694397  1
  O  O348  1  0.24108559  0.36944888  0.73958669  1
  O  O349  1  0.24382758  0.88118111  0.24693123  1
  O  O350  1  0.24079532  0.88749410  0.75321521  1
  O  O351  1  0.74442620  0.38287009  0.24506016  1
  O  O352  1  0.74819835  0.38390747  0.74383837  1
  O  O353  1  0.74199760  0.87318760  0.24221190  1
  O  O354  1  0.74349271  0.87625205  0.73726480  1
  O  O355  1  0.25758064  0.11777584  0.25038007  1
  O  O356  1  0.25225786  0.12517432  0.75544692  1
  O  O357  1  0.26697010  0.62836218  0.24487416  1
  O  O358  1  0.26071718  0.62697690  0.76333484  1
  O  O359  1  0.76300671  0.11960841  0.25282012  1
  O  O360  1  0.74669879  0.12835906  0.76073327  1
  O  O361  1  0.76017489  0.61049932  0.24745632  1
  O  O362  1  0.75613682  0.62013596  0.75452697  1
  O  O363  1  0.37419655  0.11750362  0.36586525  1
  O  O364  1  0.36866426  0.12634576  0.86627655  1
  O  O365  1  0.38282589  0.61980909  0.36067528  1
  O  O366  1  0.36770693  0.62871750  0.86477557  1
  O  O367  1  0.87572897  0.11419288  0.36987075  1
  O  O368  1  0.86921068  0.11520673  0.87691947  1
  O  O369  1  0.87559892  0.62038035  0.36745383  1
  O  O370  1  0.87023137  0.61983755  0.87131477  1
  O  O371  1  0.13224865  0.36823743  0.13753501  1
  O  O372  1  0.13185164  0.38475661  0.63093093  1
  O  O373  1  0.13031538  0.88150464  0.13237259  1
  O  O374  1  0.12626162  0.86784794  0.64201813  1
  O  O375  1  0.62849250  0.38161442  0.12834923  1
  O  O376  1  0.64437781  0.36314150  0.63887651  1
  O  O377  1  0.62407656  0.88485490  0.13187478  1
  O  O378  1  0.62875968  0.87806473  0.63156945  1
  O  O379  1  0.12635498  0.24777366  0.26195227  1
  O  O380  1  0.11367320  0.26626805  0.74731690  1
  O  O381  1  0.13101566  0.76294747  0.24435939  1
  O  O382  1  0.12145437  0.75544768  0.75904744  1
  O  O383  1  0.61856687  0.25203078  0.25266753  1
  O  O384  1  0.62056815  0.25618594  0.75710230  1
  O  O385  1  0.62076718  0.75247873  0.25892793  1
  O  O386  1  0.62978609  0.76730506  0.75958635  1
  O  O387  1  0.38026993  0.23634987  0.25250999  1
  O  O388  1  0.37545497  0.24144270  0.74189659  1
  O  O389  1  0.38231377  0.74269441  0.24245374  1
  O  O390  1  0.37058380  0.74690289  0.74192289  1
  O  O391  1  0.87023282  0.24056380  0.23990219  1
  O  O392  1  0.89224591  0.25737626  0.75292776  1
  O  O393  1  0.86711857  0.72925040  0.25159852  1
  O  O394  1  0.87915560  0.74655746  0.74531921  1
  O  O395  1  0.38581541  0.50427747  0.49710285  1
  O  O396  1  0.37217307  0.48238022  1.00061172  1
  O  O397  1  0.38032218  0.99907849  0.49451930  1
  O  O398  1  0.38124171  0.99208883  0.99893146  1
  O  O399  1  0.89207296  0.50127621  0.50462458  1
  O  O400  1  0.87945580  0.49276595  0.99497152  1
  O  O401  1  0.88321358  0.99553686  0.49297156  1
  O  O402  1  0.86611552  0.99866642  0.98258830  1
  O  O403  1  0.13777676  0.01079894  0.01060768  1
  O  O404  1  0.11794341  0.00990641  0.49520910  1
  O  O405  1  0.11555551  0.50787459  -0.00510007  1
  O  O406  1  0.11806078  0.51188745  0.50997466  1
  O  O407  1  0.61865571  0.00190153  0.00836236  1
  O  O408  1  0.61567774  0.00144631  0.50640561  1
  O  O409  1  0.64440956  0.51138771  0.01929612  1
  O  O410  1  0.60036848  0.45620402  0.51333590  1
  O  O411  1  0.35854475  0.37452851  0.12127720  1
  O  O412  1  0.36762186  0.36408508  0.63034018  1
  O  O413  1  0.37684676  0.86181908  0.12115862  1
  O  O414  1  0.37263402  0.86495109  0.62666070  1
  O  O415  1  0.87041122  0.36714433  0.12123700  1
  O  O416  1  0.86482555  0.36993089  0.62250895  1
  O  O417  1  0.86481124  0.87920114  0.13138873  1
  O  O418  1  0.86725409  0.86361984  0.62657937  1
  O  O419  1  0.12359460  0.13418716  0.38036628  1
  O  O420  1  0.13433771  0.11987363  0.88550320  1
  O  O421  1  0.12241223  0.63148548  0.38211974  1
  O  O422  1  0.13491889  0.62918549  0.88164208  1
  O  O423  1  0.62311608  0.13809073  0.37449788  1
  O  O424  1  0.63420961  0.13291906  0.87620997  1
  O  O425  1  0.61706781  0.63412986  0.37183650  1
  O  O426  1  0.63358183  0.64042637  0.87470469  1
