# generated using pymatgen
data_V85Zn86O256
_symmetry_space_group_name_H-M   'P 1'
_cell_length_a   16.93140290
_cell_length_b   16.93413539
_cell_length_c   16.93265647
_cell_angle_alpha   90.01118454
_cell_angle_beta   90.05399705
_cell_angle_gamma   89.99188834
_symmetry_Int_Tables_number   1
_chemical_formula_structural   V85Zn86O256
_chemical_formula_sum   'V85 Zn86 O256'
_cell_volume   4854.90642958
_cell_formula_units_Z   1
loop_
 _symmetry_equiv_pos_site_id
 _symmetry_equiv_pos_as_xyz
  1  'x, y, z'
loop_
 _atom_site_type_symbol
 _atom_site_label
 _atom_site_symmetry_multiplicity
 _atom_site_fract_x
 _atom_site_fract_y
 _atom_site_fract_z
 _atom_site_occupancy
  V  V0  1  0.37627587  0.38418278  0.49550036  1
  V  V1  1  0.26082090  0.61595169  0.37651402  1
  V  V2  1  0.25896947  0.12647141  0.37021177  1
  V  V3  1  0.49807484  0.62467452  0.63076135  1
  V  V4  1  0.50602728  0.49745840  0.01356626  1
  V  V5  1  0.13727381  0.24402178  0.87585963  1
  V  V6  1  0.00002730  0.75265814  0.75081787  1
  V  V7  1  -0.00248637  0.24713614  0.75141352  1
  V  V8  1  0.37690209  0.86587817  0.00589038  1
  V  V9  1  -0.00545589  0.74836468  0.25076019  1
  V  V10  1  0.12801724  0.11827533  -0.00437305  1
  V  V11  1  0.37279446  0.37046857  0.00729613  1
  V  V12  1  0.13118366  0.74895308  0.87909416  1
  V  V13  1  0.73222887  0.24548272  -0.00278334  1
  V  V14  1  0.62314763  0.50055386  0.62515672  1
  V  V15  1  0.12595986  0.87484393  0.25187844  1
  V  V16  1  0.87369528  0.75015945  0.10913287  1
  V  V17  1  0.49492256  0.87285214  0.39399456  1
  V  V18  1  0.87118774  0.24527879  0.12408351  1
  V  V19  1  -0.00417149  0.87866373  0.89135226  1
  V  V20  1  0.12506057  0.12431761  0.49972847  1
  V  V21  1  0.50205762  0.64355151  0.13004629  1
  V  V22  1  0.60992673  0.87153461  0.24268902  1
  V  V23  1  0.24866313  0.25309084  0.49974808  1
  V  V24  1  0.75057773  0.88470858  0.62981040  1
  V  V25  1  0.62467931  0.62740701  0.49708982  1
  V  V26  1  0.74261469  0.38161826  0.12073392  1
  V  V27  1  0.87469287  0.75559295  0.61827890  1
  V  V28  1  0.87094162  0.24929413  0.62013888  1
  V  V29  1  -0.00288359  -0.00816215  0.49778734  1
  V  V30  1  0.25651093  0.51228342  0.75928503  1
  V  V31  1  0.75787784  -0.00061061  0.25081928  1
  V  V32  1  0.50653543  0.74952501  0.75470990  1
  V  V33  1  0.00266677  0.49624534  0.00026784  1
  V  V34  1  0.87294398  0.37081739  -0.00204466  1
  V  V35  1  0.87094017  0.11320351  0.74972180  1
  V  V36  1  0.12015224  0.25090784  0.37556253  1
  V  V37  1  0.12580362  0.37494919  0.75220193  1
  V  V38  1  0.11882633  -0.00626763  0.11895456  1
  V  V39  1  0.75725739  0.62318213  0.37421608  1
  V  V40  1  0.50495350  0.88109595  0.87691356  1
  V  V41  1  0.25820216  0.75182900  0.50082513  1
  V  V42  1  0.49589833  0.23472512  0.24064554  1
  V  V43  1  -0.00646707  0.11656941  0.11876738  1
  V  V44  1  0.13494846  0.62532001  -0.00054481  1
  V  V45  1  0.25845530  0.87775821  0.62870387  1
  V  V46  1  0.12388942  0.50111086  0.62765631  1
  V  V47  1  0.75224869  0.76219119  0.49346119  1
  V  V48  1  0.49759029  0.38073176  0.37089182  1
  V  V49  1  0.87462060  0.00000714  0.89326779  1
  V  V50  1  0.87565941  0.49867255  0.87414755  1
  V  V51  1  -0.00048186  0.37185673  0.87477658  1
  V  V52  1  0.50597989  0.01818764  0.00070486  1
  V  V53  1  0.49849426  0.37759025  0.87690318  1
  V  V54  1  0.37773488  0.74932511  0.63191724  1
  V  V55  1  0.37733713  0.25232203  0.62484465  1
  V  V56  1  0.36831148  0.12804056  0.75651315  1
  V  V57  1  0.00109332  0.62197241  0.12620725  1
  V  V58  1  0.62649777  0.02042129  0.12324971  1
  V  V59  1  0.74640939  0.37130923  0.61586695  1
  V  V60  1  0.12372206  0.87670752  0.75425256  1
  V  V61  1  0.50558838  0.24933862  0.75129820  1
  V  V62  1  0.62620157  0.37295738  0.75571094  1
  V  V63  1  0.36838032  0.00340975  0.87838076  1
  V  V64  1  0.12726029  0.00077465  0.62732618  1
  V  V65  1  0.62655830  0.12508943  0.49536126  1
  V  V66  1  0.12849827  0.75293421  0.37569675  1
  V  V67  1  0.24974268  0.37788856  0.62709377  1
  V  V68  1  0.74990278  0.50044709  0.75001765  1
  V  V69  1  -0.00941448  0.49809238  0.49295500  1
  V  V70  1  0.75509924  0.49794203  0.25217997  1
  V  V71  1  0.75074831  0.86890207  0.11331978  1
  V  V72  1  0.73569935  0.12496231  0.87348058  1
  V  V73  1  0.12578535  0.62421498  0.49953237  1
  V  V74  1  -0.00454443  0.23955067  0.24923898  1
  V  V75  1  0.25523804  0.86227777  0.12297570  1
  V  V76  1  -0.00138509  0.62557873  0.62516304  1
  V  V77  1  0.75117242  0.63346823  0.87988312  1
  V  V78  1  0.63116536  0.62733495  0.00729022  1
  V  V79  1  0.38109142  0.63053196  0.24917098  1
  V  V80  1  0.25721262  0.00418147  0.24907543  1
  V  V81  1  0.61838615  0.38182542  0.24390596  1
  V  V82  1  0.12315503  0.37363407  0.24980578  1
  V  V83  1  0.13188613  0.49537852  0.12538122  1
  V  V84  1  0.87440464  0.62607294  0.75009872  1
  Zn  Zn85  1  0.49720591  0.12000150  0.61317586  1
  Zn  Zn86  1  0.39089814  0.00384245  0.39159077  1
  Zn  Zn87  1  -0.00253431  0.12353175  0.62481296  1
  Zn  Zn88  1  0.75870193  0.13213582  0.37639426  1
  Zn  Zn89  1  -0.00916364  0.86854562  0.38095414  1
  Zn  Zn90  1  0.87644356  0.61923067  0.25101995  1
  Zn  Zn91  1  0.87327249  -0.00428343  0.37323255  1
  Zn  Zn92  1  0.60863415  0.00013422  0.62028062  1
  Zn  Zn93  1  0.63022641  0.25319052  0.37791086  1
  Zn  Zn94  1  0.62109132  0.74777690  0.36306608  1
  Zn  Zn95  1  0.24575868  0.00737466  0.75832738  1
  Zn  Zn96  1  0.34669120  0.17893556  0.17549097  1
  Zn  Zn97  1  0.25549255  0.35790232  0.13195570  1
  Zn  Zn98  1  0.25905530  0.23720750  0.00590757  1
  Zn  Zn99  1  0.63536126  0.75804448  0.88083245  1
  Zn  Zn100  1  0.49493694  0.50669949  0.49308140  1
  Zn  Zn101  1  0.37479169  0.51577648  0.87934210  1
  Zn  Zn102  1  0.63322022  0.88680152  0.75473851  1
  Zn  Zn103  1  0.25622348  0.49519876  0.25663485  1
  Zn  Zn104  1  -0.01152531  0.37785317  0.36808105  1
  Zn  Zn105  1  0.86586285  0.37140920  0.49129217  1
  Zn  Zn106  1  0.29714894  0.69063325  -0.05791371  1
  Zn  Zn107  1  0.17744027  0.18410213  0.18456799  1
  Zn  Zn108  1  0.18796085  0.18891954  0.68696764  1
  Zn  Zn109  1  0.19063539  0.68386922  0.19108947  1
  Zn  Zn110  1  0.18624637  0.68949646  0.68967806  1
  Zn  Zn111  1  0.69681321  0.19911491  0.21145257  1
  Zn  Zn112  1  0.68674661  0.18241671  0.68396467  1
  Zn  Zn113  1  0.68787485  0.68911971  0.18647022  1
  Zn  Zn114  1  0.68730293  0.69244302  0.68700208  1
  Zn  Zn115  1  0.31386283  0.31301061  0.31445074  1
  Zn  Zn116  1  0.31632730  0.31957331  0.81478133  1
  Zn  Zn117  1  0.31871473  0.81351722  0.31059452  1
  Zn  Zn118  1  0.31845152  0.81786039  0.81007996  1
  Zn  Zn119  1  0.81175183  0.31245790  0.31274207  1
  Zn  Zn120  1  0.80897850  0.30598844  0.81027026  1
  Zn  Zn121  1  0.81011938  0.82084792  0.30903372  1
  Zn  Zn122  1  0.81746345  0.81643138  0.81212482  1
  Zn  Zn123  1  0.18051874  0.43616057  0.43891850  1
  Zn  Zn124  1  0.19084201  0.43276055  0.93835513  1
  Zn  Zn125  1  0.22153390  0.95225868  0.45270899  1
  Zn  Zn126  1  0.18889925  0.93247814  0.94104847  1
  Zn  Zn127  1  0.68205690  0.44125373  0.43258528  1
  Zn  Zn128  1  0.68651546  0.44106498  0.93748905  1
  Zn  Zn129  1  0.67681631  0.94077531  0.43281231  1
  Zn  Zn130  1  0.68879392  0.94633011  0.93879966  1
  Zn  Zn131  1  0.30675841  0.04915076  0.05702573  1
  Zn  Zn132  1  0.31930916  0.06385759  0.56343750  1
  Zn  Zn133  1  0.32149485  0.55521849  0.07069841  1
  Zn  Zn134  1  0.31298325  0.56569137  0.56896946  1
  Zn  Zn135  1  0.80380294  0.06498207  0.06375716  1
  Zn  Zn136  1  0.81016662  0.06898778  0.55361464  1
  Zn  Zn137  1  0.81516981  0.56171493  0.06350782  1
  Zn  Zn138  1  0.80961125  0.56539624  0.56263156  1
  Zn  Zn139  1  0.43352868  0.44460162  0.19045152  1
  Zn  Zn140  1  0.43672516  0.43986663  0.68845702  1
  Zn  Zn141  1  0.42573081  0.97691163  0.17687755  1
  Zn  Zn142  1  0.44090712  0.94078890  0.69142931  1
  Zn  Zn143  1  0.93623953  0.43257727  0.18552049  1
  Zn  Zn144  1  0.93565245  0.43561224  0.68389182  1
  Zn  Zn145  1  0.93594785  0.93023364  0.18429019  1
  Zn  Zn146  1  0.93893110  0.93546223  0.68529755  1
  Zn  Zn147  1  0.06559065  0.06097965  0.31292659  1
  Zn  Zn148  1  0.05568998  0.06148031  0.81494186  1
  Zn  Zn149  1  0.06769919  0.56460330  0.31333786  1
  Zn  Zn150  1  0.06546566  0.56391398  0.81418885  1
  Zn  Zn151  1  0.56790064  0.05621203  0.31602855  1
  Zn  Zn152  1  0.55856459  0.05924178  0.80022732  1
  Zn  Zn153  1  0.56592658  0.56097888  0.30878943  1
  Zn  Zn154  1  0.56429772  0.56228400  0.81697861  1
  Zn  Zn155  1  0.44418127  0.19625398  0.43350944  1
  Zn  Zn156  1  0.44095606  0.19193113  0.93299626  1
  Zn  Zn157  1  0.43947361  0.69514684  0.43707822  1
  Zn  Zn158  1  0.45650940  0.68581080  0.93689063  1
  Zn  Zn159  1  0.93465819  0.18044043  0.43550578  1
  Zn  Zn160  1  0.93674871  0.18352468  0.93922201  1
  Zn  Zn161  1  0.93671682  0.68687136  0.43678178  1
  Zn  Zn162  1  0.94656081  0.68378690  0.93577316  1
  Zn  Zn163  1  0.06377844  0.30643035  0.06174420  1
  Zn  Zn164  1  0.05839121  0.31397916  0.56439138  1
  Zn  Zn165  1  0.06461085  0.80736512  0.06447589  1
  Zn  Zn166  1  0.06972640  0.81301466  0.56439643  1
  Zn  Zn167  1  0.55659195  0.30573246  0.06978207  1
  Zn  Zn168  1  0.56390499  0.30652680  0.55745202  1
  Zn  Zn169  1  0.56733026  0.81624227  0.05825744  1
  Zn  Zn170  1  0.56814575  0.81057950  0.56435223  1
  O  O171  1  0.11505141  0.11250988  0.11723934  1
  O  O172  1  0.12530136  0.11755652  0.61938682  1
  O  O173  1  0.12041386  0.61537370  0.12141743  1
  O  O174  1  0.11807793  0.62251005  0.61964462  1
  O  O175  1  0.63617803  0.11729652  0.13095067  1
  O  O176  1  0.62093634  0.12731319  0.61225279  1
  O  O177  1  0.61511553  0.62673113  0.12078738  1
  O  O178  1  0.61761081  0.62282811  0.61909877  1
  O  O179  1  0.38127368  0.37496239  0.38516775  1
  O  O180  1  0.38292009  0.38290199  0.88600643  1
  O  O181  1  0.39196737  0.86924238  0.37739724  1
  O  O182  1  0.38408619  0.88368728  0.88163271  1
  O  O183  1  0.87598333  0.37155913  0.37926791  1
  O  O184  1  0.87902529  0.37759398  0.87772250  1
  O  O185  1  0.87910119  0.88113561  0.37300037  1
  O  O186  1  0.87939370  0.89100258  0.87298491  1
  O  O187  1  0.22569701  0.01777885  0.35832654  1
  O  O188  1  0.26363470  -0.00564106  0.87659501  1
  O  O189  1  0.24240912  0.51336163  0.37947315  1
  O  O190  1  0.24873148  0.49715714  0.86246577  1
  O  O191  1  0.74607083  -0.00417608  0.35735630  1
  O  O192  1  0.76256608  0.01313536  0.87801156  1
  O  O193  1  0.74626215  0.50934901  0.36463737  1
  O  O194  1  0.75788014  0.50811439  0.86852822  1
  O  O195  1  0.23770419  0.49540907  0.12782742  1
  O  O196  1  0.24357499  0.49642077  0.63432258  1
  O  O197  1  0.23451365  0.98821027  0.13433495  1
  O  O198  1  0.24107145  0.99328424  0.63079978  1
  O  O199  1  0.75354633  0.48669876  0.12700375  1
  O  O200  1  0.74434409  0.49431389  0.63198337  1
  O  O201  1  0.74130606  0.98949526  0.12582522  1
  O  O202  1  0.76154189  0.98273903  0.61620273  1
  O  O203  1  0.00889441  0.36383396  0.24691657  1
  O  O204  1  0.00524984  0.36827176  0.75457569  1
  O  O205  1  0.01218866  0.86540009  0.24996931  1
  O  O206  1  0.00589842  0.86971953  0.75657019  1
  O  O207  1  0.50383029  0.37909970  0.25327196  1
  O  O208  1  0.50601966  0.37244316  0.75631872  1
  O  O209  1  0.51222106  0.88398636  0.23546502  1
  O  O210  1  0.49934296  0.86954579  0.76475729  1
  O  O211  1  0.50563775  0.13667704  0.25707445  1
  O  O212  1  0.48729526  0.13828541  0.74963711  1
  O  O213  1  0.49845666  0.62357380  0.23802858  1
  O  O214  1  0.50929599  0.63526532  0.74299172  1
  O  O215  1  1.00752128  0.13390741  0.23851183  1
  O  O216  1  0.99119229  0.13255515  0.74715362  1
  O  O217  1  1.00061491  0.63074849  0.24494244  1
  O  O218  1  0.99534955  0.63105996  0.74509411  1
  O  O219  1  0.37571144  0.26534938  -0.00629117  1
  O  O220  1  0.36981113  0.26033964  0.50770263  1
  O  O221  1  0.37879547  0.76335682  -0.00586499  1
  O  O222  1  0.36707533  0.74682085  0.51599636  1
  O  O223  1  0.87050277  0.25448014  0.00763451  1
  O  O224  1  0.88808489  0.25132308  0.51734755  1
  O  O225  1  0.88264174  0.74269292  0.01012664  1
  O  O226  1  0.86615367  0.74391388  0.50804326  1
  O  O227  1  0.12618382  0.24487230  0.49730843  1
  O  O228  1  0.12900761  0.23919910  0.99189422  1
  O  O229  1  0.13072348  0.74164472  0.49385559  1
  O  O230  1  0.12202787  0.73791457  0.99240777  1
  O  O231  1  0.62857503  0.24052544  0.49392511  1
  O  O232  1  0.63346121  0.25397823  1.00125625  1
  O  O233  1  0.63552844  0.73820213  0.50074753  1
  O  O234  1  0.62299604  0.73341422  0.99719728  1
  O  O235  1  0.49028292  0.24521093  0.13892544  1
  O  O236  1  0.48955904  0.25319409  0.63298320  1
  O  O237  1  0.50145417  0.74128958  0.12153776  1
  O  O238  1  0.49612192  0.74644284  0.63246797  1
  O  O239  1  0.99283181  0.24007494  0.12837655  1
  O  O240  1  0.99521077  0.24974727  0.63862453  1
  O  O241  1  0.99484915  0.74342625  0.13282607  1
  O  O242  1  0.99409967  0.74598094  0.62734521  1
  O  O243  1  0.00317340  0.24788550  0.36465197  1
  O  O244  1  0.00385958  0.25237776  0.86554957  1
  O  O245  1  0.00917527  0.74767839  0.36876386  1
  O  O246  1  0.00773176  0.75806165  0.86998065  1
  O  O247  1  0.50346595  0.26592889  0.36256655  1
  O  O248  1  0.49715819  0.26681611  0.86455862  1
  O  O249  1  0.50670084  0.76426862  0.37660802  1
  O  O250  1  0.50957766  0.76055681  0.86872900  1
  O  O251  1  0.23845306  0.13488870  0.49518975  1
  O  O252  1  0.23415590  0.12004910  1.00148083  1
  O  O253  1  0.24737297  0.63329899  0.49675176  1
  O  O254  1  0.23913140  0.61915552  1.01173531  1
  O  O255  1  0.73824220  0.13082438  0.49486310  1
  O  O256  1  0.75107634  0.13334091  0.98572795  1
  O  O257  1  0.74412779  0.63063410  0.49237731  1
  O  O258  1  0.74433913  0.61692322  0.99153781  1
  O  O259  1  0.26326566  0.37121516  0.00387732  1
  O  O260  1  0.25450204  0.37168138  0.50491418  1
  O  O261  1  0.26194175  0.87829516  0.01090387  1
  O  O262  1  0.23537117  0.85651742  0.51628336  1
  O  O263  1  0.75276336  0.36873585  0.00267522  1
  O  O264  1  0.74604621  0.38295354  0.51254356  1
  O  O265  1  0.74386431  0.87546331  0.01402202  1
  O  O266  1  0.74339222  0.86454441  0.50266047  1
  O  O267  1  0.12406623  0.48972228  0.24316199  1
  O  O268  1  0.13079676  0.49452501  0.74652063  1
  O  O269  1  0.12588625  0.98935896  0.24054301  1
  O  O270  1  0.12485567  0.99754529  0.74498183  1
  O  O271  1  0.63628489  0.48904473  0.24865622  1
  O  O272  1  0.62983544  0.49306084  0.74438597  1
  O  O273  1  0.63131641  0.99189473  0.23547995  1
  O  O274  1  0.62312482  0.99780177  0.73525511  1
  O  O275  1  0.35564329  -0.01298896  0.27098757  1
  O  O276  1  0.37314443  0.01088577  0.76109449  1
  O  O277  1  0.36846493  0.51792547  0.24568633  1
  O  O278  1  0.36004333  0.49703629  0.75324105  1
  O  O279  1  0.86117319  -0.00783670  0.24454991  1
  O  O280  1  0.87950705  0.01159694  0.74941917  1
  O  O281  1  0.86121360  0.49870978  0.24314161  1
  O  O282  1  0.87097568  0.50566486  0.75358922  1
  O  O283  1  0.11709546  0.36894299  0.36705028  1
  O  O284  1  0.11849856  0.36499039  0.87218590  1
  O  O285  1  0.12655371  0.86066762  0.36811591  1
  O  O286  1  0.11642428  0.87065687  0.87299201  1
  O  O287  1  0.61808640  0.37405412  0.36395855  1
  O  O288  1  0.62005720  0.38048470  0.86167059  1
  O  O289  1  0.61386096  0.87430346  0.35884510  1
  O  O290  1  0.62096378  0.87741266  0.87522971  1
  O  O291  1  0.37490003  0.07912287  0.13980050  1
  O  O292  1  0.37281138  0.13975458  0.62953519  1
  O  O293  1  0.39433275  0.62305147  0.12901364  1
  O  O294  1  0.38977901  0.63244647  0.62526174  1
  O  O295  1  0.88172559  0.13197250  0.11741139  1
  O  O296  1  0.87367130  0.13182888  0.63254543  1
  O  O297  1  0.88286699  0.63078438  0.12796608  1
  O  O298  1  0.87854726  0.63453066  0.63052683  1
  O  O299  1  0.25782160  0.24046863  0.12570098  1
  O  O300  1  0.25540968  0.25879542  0.61995932  1
  O  O301  1  0.24307260  0.76299948  0.12734002  1
  O  O302  1  0.25898703  0.75345392  0.62465953  1
  O  O303  1  0.75604043  0.25710175  0.11908946  1
  O  O304  1  0.75930297  0.26066307  0.63353846  1
  O  O305  1  0.75973171  0.75934563  0.12694962  1
  O  O306  1  0.75805690  0.75564677  0.61531646  1
  O  O307  1  0.24156176  0.24456493  0.38006582  1
  O  O308  1  0.23899726  0.25386022  0.87526417  1
  O  O309  1  0.24694753  0.74591209  0.38543072  1
  O  O310  1  0.23623471  0.75934644  0.87190372  1
  O  O311  1  0.73430591  0.23433963  0.32513456  1
  O  O312  1  0.75348421  0.23666337  0.88434298  1
  O  O313  1  0.74591931  0.74416561  0.37945944  1
  O  O314  1  0.75507038  0.73737170  0.86957281  1
  O  O315  1  0.01024808  0.12805350  0.01168406  1
  O  O316  1  0.01332202  0.11584607  0.50401735  1
  O  O317  1  0.01189582  0.61472215  0.00632198  1
  O  O318  1  0.00380646  0.61585796  0.50459936  1
  O  O319  1  0.50031603  0.11731184  -0.00538254  1
  O  O320  1  0.51453002  0.13427092  0.49681014  1
  O  O321  1  0.50948851  0.61711673  0.01359157  1
  O  O322  1  0.50821388  0.62674476  0.50764585  1
  O  O323  1  0.49191074  0.37679704  0.49237900  1
  O  O324  1  0.49581535  0.37841630  0.99546660  1
  O  O325  1  0.50530374  0.87342905  0.49306081  1
  O  O326  1  0.49700679  0.88153394  0.99074474  1
  O  O327  1  0.99972095  0.39112829  0.50123350  1
  O  O328  1  0.99575880  0.37647600  0.99394799  1
  O  O329  1  1.01147684  0.88825658  0.50038978  1
  O  O330  1  1.00248649  0.87045998  0.99029638  1
  O  O331  1  0.50597751  0.48778178  0.37683226  1
  O  O332  1  0.49912016  0.49058632  0.88178863  1
  O  O333  1  0.50117330  0.98106036  0.37113703  1
  O  O334  1  0.49511041  0.99642655  0.88061059  1
  O  O335  1  1.00523355  0.50201301  0.38994747  1
  O  O336  1  0.99562770  0.49293913  0.87935056  1
  O  O337  1  1.00878480  0.99695809  0.39029389  1
  O  O338  1  0.98550278  0.99213914  0.87489903  1
  O  O339  1  0.00525730  0.00533989  0.12980967  1
  O  O340  1  0.01341340  -0.00111279  0.61772715  1
  O  O341  1  0.01063775  0.50017965  0.12040739  1
  O  O342  1  0.00496334  0.50649695  0.61982185  1
  O  O343  1  0.51988102  0.00081492  0.11449347  1
  O  O344  1  0.49131452  0.00626611  0.62060840  1
  O  O345  1  0.50438250  0.49952881  0.11472791  1
  O  O346  1  0.50551901  0.50920553  0.62541821  1
  O  O347  1  0.23757283  0.37487557  0.25104496  1
  O  O348  1  0.24284645  0.38120112  0.74518303  1
  O  O349  1  0.23983210  0.87811540  0.24656412  1
  O  O350  1  0.24201359  0.87805055  0.74418630  1
  O  O351  1  0.74141612  0.38146804  0.23860109  1
  O  O352  1  0.74208980  0.37933021  0.74524150  1
  O  O353  1  0.74031780  0.88308836  0.23708341  1
  O  O354  1  0.75227892  0.87018601  0.73363208  1
  O  O355  1  0.24796055  0.12013458  0.25510542  1
  O  O356  1  0.26325124  0.12736781  0.74766460  1
  O  O357  1  0.25387485  0.62039730  0.26199994  1
  O  O358  1  0.24474025  0.61051018  0.74771765  1
  O  O359  1  0.75029415  0.10012052  0.23952477  1
  O  O360  1  0.75964424  0.13512291  0.76437703  1
  O  O361  1  0.74902059  0.61668569  0.25596524  1
  O  O362  1  0.75494457  0.62058891  0.75540129  1
  O  O363  1  0.36138255  0.12632060  0.38318363  1
  O  O364  1  0.37741784  0.11810902  0.86847901  1
  O  O365  1  0.36890765  0.62935730  0.37133965  1
  O  O366  1  0.37390478  0.62872403  0.88784649  1
  O  O367  1  0.87083603  0.10999155  0.38042491  1
  O  O368  1  0.87528284  0.11336763  0.86903313  1
  O  O369  1  0.86177357  0.62763759  0.37161603  1
  O  O370  1  0.87207626  0.61854869  0.87063738  1
  O  O371  1  0.12765120  0.37771959  0.13150506  1
  O  O372  1  0.12924669  0.38075429  0.63196233  1
  O  O373  1  0.12840551  0.87780697  0.13144617  1
  O  O374  1  0.13325199  0.88136781  0.63514784  1
  O  O375  1  0.63262124  0.37317924  0.12859036  1
  O  O376  1  0.62901720  0.37916837  0.63358173  1
  O  O377  1  0.63524097  0.87602096  0.12909768  1
  O  O378  1  0.64233574  0.87534889  0.62398399  1
  O  O379  1  0.11554376  0.25573216  0.25350939  1
  O  O380  1  0.11785553  0.25269724  0.75676515  1
  O  O381  1  0.11745057  0.75299675  0.25647301  1
  O  O382  1  0.11862448  0.75457765  0.75840809  1
  O  O383  1  0.60641885  0.26663112  0.24301191  1
  O  O384  1  0.61314230  0.25806255  0.74352173  1
  O  O385  1  0.62645612  0.76673636  0.24594679  1
  O  O386  1  0.61591697  0.75872201  0.75108929  1
  O  O387  1  0.38827556  0.24983927  0.25532250  1
  O  O388  1  0.38060852  0.24918882  0.74439528  1
  O  O389  1  0.36441412  0.73118074  0.24748850  1
  O  O390  1  0.38809617  0.75353477  0.74047338  1
  O  O391  1  0.88461987  0.25570730  0.23217836  1
  O  O392  1  0.88291285  0.24329146  0.74340121  1
  O  O393  1  0.88786292  0.74890238  0.24515464  1
  O  O394  1  0.88191927  0.74440757  0.74265838  1
  O  O395  1  0.37519301  0.48772880  0.51034055  1
  O  O396  1  0.38593076  0.48848213  0.99943704  1
  O  O397  1  0.32812365  0.98950474  0.48387426  1
  O  O398  1  0.38670454  0.99188131  0.99114735  1
  O  O399  1  0.88866517  0.50050315  0.50757106  1
  O  O400  1  0.88266498  0.49171212  0.99415323  1
  O  O401  1  0.89694465  1.00170752  0.50864762  1
  O  O402  1  0.87488245  1.00393376  0.99135108  1
  O  O403  1  0.12474191  0.00153460  0.01038267  1
  O  O404  1  0.12595855  0.00782537  0.50942626  1
  O  O405  1  0.12203148  0.50166816  0.00594736  1
  O  O406  1  0.11648447  0.50595782  0.50873348  1
  O  O407  1  0.62056737  0.00372251  0.01267894  1
  O  O408  1  0.63010592  0.01592451  0.50438056  1
  O  O409  1  0.61646092  0.51221758  -0.00582752  1
  O  O410  1  0.62382319  0.51299409  0.50714758  1
  O  O411  1  0.37393811  0.37966973  0.11156406  1
  O  O412  1  0.36993106  0.36743769  0.62153693  1
  O  O413  1  0.36692368  0.88537777  0.11703159  1
  O  O414  1  0.36295244  0.86860948  0.63358474  1
  O  O415  1  0.86753496  0.36693565  0.11492227  1
  O  O416  1  0.86367746  0.36817908  0.62324187  1
  O  O417  1  0.86198439  0.86459823  0.12471478  1
  O  O418  1  0.86865368  0.86249981  0.62680872  1
  O  O419  1  0.12797061  0.13446939  0.38308248  1
  O  O420  1  0.11711574  0.13149095  0.88322609  1
  O  O421  1  0.13464940  0.63567727  0.37960961  1
  O  O422  1  0.12143564  0.63496726  0.88625478  1
  O  O423  1  0.62975534  0.12535090  0.38312545  1
  O  O424  1  0.63782879  0.11956910  0.86735161  1
  O  O425  1  0.63232170  0.62740097  0.38168697  1
  O  O426  1  0.63693974  0.62755524  0.88216585  1
