# generated using pymatgen
data_V85Zn86O256
_symmetry_space_group_name_H-M   'P 1'
_cell_length_a   16.94266662
_cell_length_b   16.93537281
_cell_length_c   16.92746966
_cell_angle_alpha   89.99797117
_cell_angle_beta   90.04319314
_cell_angle_gamma   89.98301958
_symmetry_Int_Tables_number   1
_chemical_formula_structural   V85Zn86O256
_chemical_formula_sum   'V85 Zn86 O256'
_cell_volume   4857.00363226
_cell_formula_units_Z   1
loop_
 _symmetry_equiv_pos_site_id
 _symmetry_equiv_pos_as_xyz
  1  'x, y, z'
loop_
 _atom_site_type_symbol
 _atom_site_label
 _atom_site_symmetry_multiplicity
 _atom_site_fract_x
 _atom_site_fract_y
 _atom_site_fract_z
 _atom_site_occupancy
  V  V0  1  0.60903279  0.89343174  0.23162887  1
  V  V1  1  0.12424137  0.87087633  0.25278560  1
  V  V2  1  0.37635073  0.37452335  0.50006667  1
  V  V3  1  0.24511359  0.87058411  0.11730105  1
  V  V4  1  -0.01201876  0.74242429  0.24948848  1
  V  V5  1  0.74996622  0.12286622  0.88671797  1
  V  V6  1  0.25380580  0.51961350  0.25224187  1
  V  V7  1  0.37269270  0.51283600  0.37121951  1
  V  V8  1  0.75042641  0.87800170  0.61794415  1
  V  V9  1  0.25178017  0.37505673  0.62599583  1
  V  V10  1  -0.00214704  0.49977623  0.49844101  1
  V  V11  1  0.87534086  0.62665411  0.74830783  1
  V  V12  1  0.48945674  0.75033486  0.75075778  1
  V  V13  1  0.75105912  0.75427127  0.49933291  1
  V  V14  1  0.62438426  0.50287629  0.62493105  1
  V  V15  1  0.49659725  0.12085507  0.62746221  1
  V  V16  1  0.37847164  0.87794869  0.00123226  1
  V  V17  1  0.48971353  0.87337368  0.37382266  1
  V  V18  1  0.62694782  0.24646990  0.88557880  1
  V  V19  1  0.12760413  0.75598839  0.87829290  1
  V  V20  1  0.89239048  0.13088930  0.24786122  1
  V  V21  1  0.24894524  0.24901371  0.00356666  1
  V  V22  1  0.37658398  0.24715545  0.62891187  1
  V  V23  1  0.37649831  0.38105092  0.00329190  1
  V  V24  1  0.62063386  0.87602183  0.75174194  1
  V  V25  1  0.12460007  0.50252060  0.62394715  1
  V  V26  1  0.25045636  0.24758372  0.49803273  1
  V  V27  1  0.87295766  0.00369112  0.38524305  1
  V  V28  1  0.37714295  -0.00185525  0.86883250  1
  V  V29  1  0.75762633  0.74681000  0.00475617  1
  V  V30  1  0.49569646  0.61768883  0.12156294  1
  V  V31  1  0.62683083  0.37586443  0.24962089  1
  V  V32  1  0.49361628  0.00161150  0.48612845  1
  V  V33  1  0.49984355  0.50180088  0.50157528  1
  V  V34  1  0.42922163  0.19327963  0.07864123  1
  V  V35  1  0.24925267  0.12350482  0.86657448  1
  V  V36  1  0.62491078  0.62800688  0.50111257  1
  V  V37  1  0.12211012  0.37348260  0.74875417  1
  V  V38  1  0.87923297  -0.00857040  0.87291072  1
  V  V39  1  -0.01052010  0.62691978  0.12727426  1
  V  V40  1  0.11910392  0.12519239  0.00475092  1
  V  V41  1  0.75579336  0.00758682  0.24827592  1
  V  V42  1  0.49344162  0.74088039  0.24929850  1
  V  V43  1  0.49929488  0.24783035  0.74924427  1
  V  V44  1  0.12124189  0.88349062  0.74385811  1
  V  V45  1  0.74740727  0.50642005  0.24626133  1
  V  V46  1  0.24870435  0.11352036  0.37839058  1
  V  V47  1  0.75433186  0.62890167  0.37124963  1
  V  V48  1  0.48648791  0.63013770  0.62992955  1
  V  V49  1  0.00058287  -0.00734819  -0.00174403  1
  V  V50  1  0.62666575  0.23965863  0.37254545  1
  V  V51  1  0.87637836  0.75651079  0.61989608  1
  V  V52  1  0.62291545  -0.00022664  0.62182226  1
  V  V53  1  0.25456092  0.50868400  0.75015290  1
  V  V54  1  0.37051665  0.12114076  0.25544676  1
  V  V55  1  0.62375197  0.75392061  0.37006861  1
  V  V56  1  0.25531110  0.87909520  0.62371997  1
  V  V57  1  0.49848786  0.37671677  0.37564327  1
  V  V58  1  0.50091636  0.38011837  0.87773639  1
  V  V59  1  -0.00463228  0.87136752  0.38208833  1
  V  V60  1  0.00698554  0.12914606  0.63078490  1
  V  V61  1  0.62231060  0.61769063  -0.00076615  1
  V  V62  1  0.75013307  0.24108750  0.49633928  1
  V  V63  1  0.87739148  0.37344769  0.49552182  1
  V  V64  1  0.12835506  0.49973033  0.12566995  1
  V  V65  1  0.00090417  0.75429915  0.75471708  1
  V  V66  1  0.37891954  0.50822615  0.87472569  1
  V  V67  1  0.62096056  0.75192509  0.87689070  1
  V  V68  1  0.12604150  0.73449882  0.37482488  1
  V  V69  1  0.25411969  0.74176337  0.50232596  1
  V  V70  1  0.49176139  0.24946035  0.25026522  1
  V  V71  1  0.12067107  0.24844036  0.87082073  1
  V  V72  1  0.25033069  0.37089530  0.13556102  1
  V  V73  1  0.75036282  0.50140386  0.74954034  1
  V  V74  1  0.76325930  0.86996904  0.13057671  1
  V  V75  1  0.74967068  0.37236798  0.62426480  1
  V  V76  1  0.87359275  0.49947513  0.36968996  1
  V  V77  1  0.87425966  0.13292898  0.75139890  1
  V  V78  1  -0.00147375  0.37434758  0.87106148  1
  V  V79  1  0.00585094  -0.00602521  0.51026590  1
  V  V80  1  0.36741341  0.74434689  0.12234593  1
  V  V81  1  0.00261629  0.50361981  -0.00488673  1
  V  V82  1  0.11950991  0.00331109  0.13028132  1
  V  V83  1  0.25223634  0.63137479  0.87962039  1
  V  V84  1  0.11387035  0.25886853  0.37696262  1
  Zn  Zn85  1  0.87561957  0.37335852  0.00271258  1
  Zn  Zn86  1  0.88164259  0.86782883  -0.00032543  1
  Zn  Zn87  1  0.12605171  0.62040341  0.49414183  1
  Zn  Zn88  1  0.62785279  0.12020560  0.49304734  1
  Zn  Zn89  1  0.87587867  0.50055870  0.87286965  1
  Zn  Zn90  1  0.75366728  0.37283732  0.12297914  1
  Zn  Zn91  1  0.25358343  -0.00570246  0.25418607  1
  Zn  Zn92  1  0.60281302  0.03722580  0.08490003  1
  Zn  Zn93  1  0.00241466  0.62861994  0.62461516  1
  Zn  Zn94  1  0.24872551  0.00649258  0.74164824  1
  Zn  Zn95  1  0.74998568  0.62649629  0.87488847  1
  Zn  Zn96  1  0.12658755  0.11973417  0.50484568  1
  Zn  Zn97  1  0.89016314  0.25388614  0.12609492  1
  Zn  Zn98  1  0.37225877  0.87422322  0.49880800  1
  Zn  Zn99  1  0.75842604  0.25043400  0.00668835  1
  Zn  Zn100  1  0.75008335  0.00212035  0.74877161  1
  Zn  Zn101  1  0.62621062  0.37427110  0.75193504  1
  Zn  Zn102  1  0.04179474  0.31935403  0.23073646  1
  Zn  Zn103  1  0.12824224  0.63341028  0.00137147  1
  Zn  Zn104  1  0.62141203  0.49929968  0.12081663  1
  Zn  Zn105  1  0.53963151  0.93118750  0.93062024  1
  Zn  Zn106  1  0.87841099  0.25036490  0.62692278  1
  Zn  Zn107  1  0.18348661  0.18869578  0.19199724  1
  Zn  Zn108  1  0.18497866  0.18941329  0.68626423  1
  Zn  Zn109  1  0.18205943  0.68700500  0.18653968  1
  Zn  Zn110  1  0.19015159  0.69036504  0.68736436  1
  Zn  Zn111  1  0.69637317  0.18763229  0.18285581  1
  Zn  Zn112  1  0.68540894  0.18617876  0.68975293  1
  Zn  Zn113  1  0.68348021  0.69166998  0.18556409  1
  Zn  Zn114  1  0.68445458  0.68993538  0.68778207  1
  Zn  Zn115  1  0.31211185  0.30948980  0.31455711  1
  Zn  Zn116  1  0.31204853  0.31443140  0.81361488  1
  Zn  Zn117  1  0.30907283  0.80395007  0.31094627  1
  Zn  Zn118  1  0.30921513  0.81862470  0.81366785  1
  Zn  Zn119  1  0.81269171  0.31190137  0.31172800  1
  Zn  Zn120  1  0.81163972  0.31093526  0.81450365  1
  Zn  Zn121  1  0.81303787  0.81770727  0.31259109  1
  Zn  Zn122  1  0.80653874  0.81253548  0.81000265  1
  Zn  Zn123  1  0.19019130  0.43863550  0.43459951  1
  Zn  Zn124  1  0.18947204  0.43862539  0.93822220  1
  Zn  Zn125  1  0.18269578  0.93127708  0.43910044  1
  Zn  Zn126  1  0.18779462  0.93716329  0.93490049  1
  Zn  Zn127  1  0.68812608  0.43595304  0.43637155  1
  Zn  Zn128  1  0.68995651  0.43572301  0.93626031  1
  Zn  Zn129  1  0.68065379  0.93793855  0.42934674  1
  Zn  Zn130  1  0.70297912  0.93697680  0.94238538  1
  Zn  Zn131  1  0.30241107  0.05374435  0.05702613  1
  Zn  Zn132  1  0.31588216  0.05962834  0.56243936  1
  Zn  Zn133  1  0.31257217  0.56196358  0.05927850  1
  Zn  Zn134  1  0.31226294  0.56232679  0.56026612  1
  Zn  Zn135  1  0.81973336  0.06229610  0.06829940  1
  Zn  Zn136  1  0.81684952  0.06256338  0.56484573  1
  Zn  Zn137  1  0.81339908  0.55890140  0.05967592  1
  Zn  Zn138  1  0.81299084  0.56555801  0.56256319  1
  Zn  Zn139  1  0.43334725  0.43721712  0.18814001  1
  Zn  Zn140  1  0.43831254  0.43795663  0.69094021  1
  Zn  Zn141  1  0.43545022  0.93622318  0.18645547  1
  Zn  Zn142  1  0.43580248  0.93537491  0.68775555  1
  Zn  Zn143  1  0.93285346  0.44309524  0.18545591  1
  Zn  Zn144  1  0.93713903  0.43669274  0.68484829  1
  Zn  Zn145  1  0.94113304  0.93841037  0.19159179  1
  Zn  Zn146  1  0.93598493  0.93959675  0.68933913  1
  Zn  Zn147  1  0.06609179  0.06017840  0.32206258  1
  Zn  Zn148  1  0.05942767  0.06150763  0.81298713  1
  Zn  Zn149  1  0.04862952  0.52738626  0.29578137  1
  Zn  Zn150  1  0.06581482  0.56687201  0.81036989  1
  Zn  Zn151  1  0.57216676  0.07033506  0.25162409  1
  Zn  Zn152  1  0.56590012  0.06666801  0.80935991  1
  Zn  Zn153  1  0.56372536  0.56457270  0.31357731  1
  Zn  Zn154  1  0.56270699  0.56559770  0.81159564  1
  Zn  Zn155  1  0.43647963  0.18449072  0.43521165  1
  Zn  Zn156  1  0.43868403  0.18057702  0.91704106  1
  Zn  Zn157  1  0.43675176  0.68920167  0.44172808  1
  Zn  Zn158  1  0.43704821  0.69250520  0.94036286  1
  Zn  Zn159  1  0.93789386  0.18158001  0.44152156  1
  Zn  Zn160  1  0.93887828  0.18527933  0.93904532  1
  Zn  Zn161  1  0.93870867  0.68436012  0.43927753  1
  Zn  Zn162  1  0.94005802  0.68595155  0.93386282  1
  Zn  Zn163  1  0.06099657  0.31428173  0.05752261  1
  Zn  Zn164  1  0.06220959  0.31123143  0.55920131  1
  Zn  Zn165  1  0.06010189  0.81099439  0.06418599  1
  Zn  Zn166  1  0.06652483  0.81081285  0.56359822  1
  Zn  Zn167  1  0.56741538  0.31866995  0.06046852  1
  Zn  Zn168  1  0.56619293  0.31065280  0.56170398  1
  Zn  Zn169  1  0.56407994  0.80409100  0.06586860  1
  Zn  Zn170  1  0.56042035  0.81275415  0.56308603  1
  O  O171  1  0.13196124  0.11526076  0.11721117  1
  O  O172  1  0.11167781  0.12376764  0.62664417  1
  O  O173  1  0.12222980  0.61475727  0.11957602  1
  O  O174  1  0.12622016  0.61092142  0.62637097  1
  O  O175  1  0.61542625  0.11979806  0.15533107  1
  O  O176  1  0.61409497  0.11819072  0.62113958  1
  O  O177  1  0.61522411  0.62496173  0.11633135  1
  O  O178  1  0.62081734  0.61974415  0.61858507  1
  O  O179  1  0.38502024  0.37985530  0.37924566  1
  O  O180  1  0.38063007  0.38114353  0.88389147  1
  O  O181  1  0.38571718  0.86969871  0.37301894  1
  O  O182  1  0.36883973  0.88713996  0.88582884  1
  O  O183  1  0.86658416  0.38722745  0.38467718  1
  O  O184  1  0.89048033  0.37730883  0.86840360  1
  O  O185  1  0.88931678  0.88421719  0.37119402  1
  O  O186  1  0.86788479  0.88791993  0.87418276  1
  O  O187  1  0.24335608  0.00914086  0.37613543  1
  O  O188  1  0.25577434  0.00805329  0.87161534  1
  O  O189  1  0.25699138  0.49743203  0.36118210  1
  O  O190  1  0.25642551  0.50603374  0.86711144  1
  O  O191  1  0.76993007  -0.01215226  0.37143176  1
  O  O192  1  0.75996102  0.00792986  0.87159040  1
  O  O193  1  0.75276703  0.50921484  0.36950933  1
  O  O194  1  0.75225330  0.50112804  0.85964090  1
  O  O195  1  0.24826913  0.49721450  0.13370437  1
  O  O196  1  0.24526727  0.49523226  0.63053938  1
  O  O197  1  0.23611484  0.98922593  0.12909313  1
  O  O198  1  0.25023543  0.98617147  0.62359627  1
  O  O199  1  0.74646083  0.50446256  0.13805782  1
  O  O200  1  0.74684268  0.49442368  0.63209794  1
  O  O201  1  0.75285700  0.99280696  0.14033664  1
  O  O202  1  0.74359954  0.99373625  0.62360887  1
  O  O203  1  0.00939263  0.41951290  0.26225742  1
  O  O204  1  0.01366350  0.38214339  0.75398575  1
  O  O205  1  0.00829291  0.86449381  0.25559319  1
  O  O206  1  0.01281893  0.86993714  0.74453627  1
  O  O207  1  0.50215706  0.36892841  0.25666874  1
  O  O208  1  0.50186754  0.36884306  0.76111961  1
  O  O209  1  0.49894460  0.86010160  0.25620888  1
  O  O210  1  0.51331310  0.86736934  0.74163980  1
  O  O211  1  0.48475600  0.14150328  0.25973746  1
  O  O212  1  0.50140295  0.13445646  0.73969913  1
  O  O213  1  0.50458606  0.63515571  0.24375226  1
  O  O214  1  0.50540716  0.63643854  0.74081833  1
  O  O215  1  0.99040960  0.11743784  0.25679096  1
  O  O216  1  0.99320529  0.12004717  0.73776640  1
  O  O217  1  1.00540209  0.62616921  0.23539009  1
  O  O218  1  0.99281169  0.63352629  0.74502131  1
  O  O219  1  0.37432887  0.25050082  0.00550360  1
  O  O220  1  0.37063258  0.25533093  0.50603801  1
  O  O221  1  0.37408573  0.75993830  0.01269188  1
  O  O222  1  0.35811723  0.75308524  0.49558204  1
  O  O223  1  0.87895654  0.25313569  0.00353010  1
  O  O224  1  0.86718759  0.25703512  0.49868961  1
  O  O225  1  0.86198597  0.74909023  -0.01032451  1
  O  O226  1  0.87029525  0.74666320  0.51324840  1
  O  O227  1  0.13521183  0.24515411  0.49704192  1
  O  O228  1  0.12868408  0.24265148  0.99119766  1
  O  O229  1  0.13172884  0.74511620  0.49222841  1
  O  O230  1  0.11933670  0.75411794  0.98274934  1
  O  O231  1  0.63200449  0.24793171  0.49066647  1
  O  O232  1  0.62584635  0.25036606  0.98844575  1
  O  O233  1  0.62992353  0.74771268  0.49159796  1
  O  O234  1  0.63409072  0.74278072  0.99380831  1
  O  O235  1  0.49421692  0.25627471  0.13219877  1
  O  O236  1  0.49862262  0.24354085  0.63015390  1
  O  O237  1  0.49149352  0.74033518  0.13295580  1
  O  O238  1  0.50437234  0.74097865  0.63449851  1
  O  O239  1  1.00652403  0.26438400  0.13946971  1
  O  O240  1  0.99804958  0.23396157  0.61964946  1
  O  O241  1  1.00539731  0.73543514  0.13289566  1
  O  O242  1  0.99211296  0.75154807  0.63395795  1
  O  O243  1  0.01437238  0.24680111  0.38599684  1
  O  O244  1  0.01345669  0.25798586  0.87698938  1
  O  O245  1  0.00485283  0.75342353  0.37156382  1
  O  O246  1  0.00732534  0.74788744  0.86104854  1
  O  O247  1  0.50342697  0.25943631  0.36995589  1
  O  O248  1  0.50675307  0.25473303  0.86707342  1
  O  O249  1  0.50232449  0.75330828  0.36938164  1
  O  O250  1  0.51281981  0.74666454  0.86872338  1
  O  O251  1  0.25065149  0.13051223  0.49678447  1
  O  O252  1  0.23778842  0.12837628  0.98986901  1
  O  O253  1  0.24602783  0.63697376  0.50312550  1
  O  O254  1  0.24667074  0.62108938  0.98404421  1
  O  O255  1  0.74925036  0.13717589  0.50413500  1
  O  O256  1  0.75667053  0.12366260  0.99002064  1
  O  O257  1  0.74373152  0.63295279  0.49435073  1
  O  O258  1  0.74355922  0.63031586  0.99879523  1
  O  O259  1  0.25923794  0.36839559  0.00354895  1
  O  O260  1  0.25646711  0.36834468  0.50670393  1
  O  O261  1  0.25495357  0.87825439  0.01225465  1
  O  O262  1  0.24803991  0.86787256  0.51003415  1
  O  O263  1  0.75489350  0.37323570  0.00176455  1
  O  O264  1  0.75724550  0.37003466  0.50697154  1
  O  O265  1  0.75663139  0.86517198  0.01250103  1
  O  O266  1  0.74178977  0.87062556  0.50980639  1
  O  O267  1  0.14624803  0.50435036  0.23986522  1
  O  O268  1  0.13300696  0.49453716  0.74286941  1
  O  O269  1  0.12366535  0.98996855  0.24601007  1
  O  O270  1  0.12651241  0.98627590  0.75391360  1
  O  O271  1  0.63045574  0.49211916  0.25215602  1
  O  O272  1  0.63349934  0.49893442  0.74313533  1
  O  O273  1  0.65224692  0.99166250  0.27818634  1
  O  O274  1  0.62553939  0.99252595  0.74172997  1
  O  O275  1  0.37235724  0.01616206  0.24171747  1
  O  O276  1  0.36759479  -0.00945550  0.76418046  1
  O  O277  1  0.36291164  0.49776136  0.25733285  1
  O  O278  1  0.36464085  0.49303415  0.76097745  1
  O  O279  1  0.87105862  0.00363843  0.26058207  1
  O  O280  1  0.87366985  0.00937705  0.75795870  1
  O  O281  1  0.86178265  0.50410895  0.26328168  1
  O  O282  1  0.86841841  0.50929044  0.74608950  1
  O  O283  1  0.12602451  0.35843506  0.38674842  1
  O  O284  1  0.12011517  0.36995072  0.86749326  1
  O  O285  1  0.11398116  0.86680402  0.36820960  1
  O  O286  1  0.13588773  0.86705545  0.85748941  1
  O  O287  1  0.61334537  0.37232514  0.36859772  1
  O  O288  1  0.61610560  0.36847355  0.87351846  1
  O  O289  1  0.61018197  0.86985677  0.36367994  1
  O  O290  1  0.62439148  0.87051598  0.86829874  1
  O  O291  1  0.36529815  0.12895995  0.12826178  1
  O  O292  1  0.38845064  0.13056749  0.62049987  1
  O  O293  1  0.38114780  0.63328690  0.11641790  1
  O  O294  1  0.38739183  0.62032018  0.62361693  1
  O  O295  1  0.87981233  0.12422877  0.14413759  1
  O  O296  1  0.88240169  0.12738787  0.63448894  1
  O  O297  1  0.89101073  0.61935829  0.12303104  1
  O  O298  1  0.87403752  0.63553153  0.63468529  1
  O  O299  1  0.24034982  0.25995803  0.11775399  1
  O  O300  1  0.25514285  0.25277147  0.61635805  1
  O  O301  1  0.25496425  0.75725413  0.12956505  1
  O  O302  1  0.24361096  0.75890511  0.61045450  1
  O  O303  1  0.76189309  0.25372739  0.12558203  1
  O  O304  1  0.74833497  0.25815569  0.61736486  1
  O  O305  1  0.75168649  0.75484361  0.11692088  1
  O  O306  1  0.75531044  0.75795410  0.62035588  1
  O  O307  1  0.24717721  0.24477724  0.38844880  1
  O  O308  1  0.24296437  0.24444709  0.88097024  1
  O  O309  1  0.23870572  0.75588532  0.38932514  1
  O  O310  1  0.24222689  0.74140026  0.86592902  1
  O  O311  1  0.73823851  0.25842870  0.38462332  1
  O  O312  1  0.74220632  0.24216747  0.87647937  1
  O  O313  1  0.74673127  0.74661022  0.37829587  1
  O  O314  1  0.73751859  0.74970903  0.88103465  1
  O  O315  1  0.01402349  0.11393344  -0.00411513  1
  O  O316  1  -0.00009380  0.11470793  0.51437084  1
  O  O317  1  0.00432306  0.62178291  0.00733565  1
  O  O318  1  0.00309686  0.61582410  0.50742866  1
  O  O319  1  0.48509558  0.13777531  0.01788158  1
  O  O320  1  0.50155407  0.11343916  0.50232030  1
  O  O321  1  0.50951190  0.63241188  0.00946715  1
  O  O322  1  0.50551726  0.62135112  0.50811260  1
  O  O323  1  0.49756553  0.38084811  0.49420012  1
  O  O324  1  0.49179641  0.37007953  0.98737909  1
  O  O325  1  0.49758733  0.88240205  0.49253821  1
  O  O326  1  0.48568054  0.86868887  1.00875269  1
  O  O327  1  0.98489204  0.38182097  0.50735616  1
  O  O328  1  1.00358260  0.38648177  0.98603663  1
  O  O329  1  1.00334703  0.87940640  0.49436739  1
  O  O330  1  0.99923778  0.88663691  1.00269004  1
  O  O331  1  0.49432742  0.49438309  0.37944414  1
  O  O332  1  0.49143414  0.49220820  0.86743340  1
  O  O333  1  0.50179761  0.99176296  0.38525241  1
  O  O334  1  0.48301862  1.00838958  0.86776033  1
  O  O335  1  0.98600989  0.51095995  0.39127398  1
  O  O336  1  1.00356177  0.49502773  0.87854932  1
  O  O337  1  0.99247628  0.99053551  0.38452766  1
  O  O338  1  0.99152211  1.00235704  0.88407664  1
  O  O339  1  0.01300115  -0.00485735  0.11906657  1
  O  O340  1  -0.00775356  0.00950643  0.61765011  1
  O  O341  1  0.01002901  0.51066364  0.11549055  1
  O  O342  1  0.00752649  0.50040689  0.61613395  1
  O  O343  1  0.54244950  -0.02418780  0.17577833  1
  O  O344  1  0.50251340  0.00516975  0.61809997  1
  O  O345  1  0.49911406  0.51362832  0.13181850  1
  O  O346  1  0.50492293  0.50597308  0.62160132  1
  O  O347  1  0.25791371  0.37689041  0.23738313  1
  O  O348  1  0.24130639  0.38362561  0.74569706  1
  O  O349  1  0.23785847  0.87383185  0.24529839  1
  O  O350  1  0.24084423  0.87343784  0.73601668  1
  O  O351  1  0.73976462  0.38556103  0.25336815  1
  O  O352  1  0.75024638  0.38182682  0.74166002  1
  O  O353  1  0.74569807  0.88159136  0.24361334  1
  O  O354  1  0.73668553  0.87588057  0.73865004  1
  O  O355  1  0.25382089  0.12388816  0.26096983  1
  O  O356  1  0.24383878  0.12519129  0.76143022  1
  O  O357  1  0.25505448  0.61804190  0.24791934  1
  O  O358  1  0.24732097  0.61398054  0.75634455  1
  O  O359  1  0.76207282  0.10927742  0.25453221  1
  O  O360  1  0.75843370  0.12317367  0.75635922  1
  O  O361  1  0.73908858  0.62012127  0.26076957  1
  O  O362  1  0.75641594  0.61860779  0.74811227  1
  O  O363  1  0.36154458  0.12922326  0.36762462  1
  O  O364  1  0.36211919  0.11017686  0.87803944  1
  O  O365  1  0.38034016  0.61177118  0.37886677  1
  O  O366  1  0.37035988  0.61618554  0.87975000  1
  O  O367  1  0.87994497  0.10847825  0.37003055  1
  O  O368  1  0.86994703  0.11808879  0.86825274  1
  O  O369  1  0.86014326  0.61758866  0.38381223  1
  O  O370  1  0.87274839  0.62436702  0.85973059  1
  O  O371  1  0.13697837  0.39089693  0.11680758  1
  O  O372  1  0.12937198  0.38312066  0.62983173  1
  O  O373  1  0.12891705  0.87719298  0.13301547  1
  O  O374  1  0.13422187  0.87175408  0.63707192  1
  O  O375  1  0.62562650  0.38036462  0.13673247  1
  O  O376  1  0.63588009  0.38202856  0.62460095  1
  O  O377  1  0.63844281  0.86218522  0.13600074  1
  O  O378  1  0.63020906  0.88115888  0.62951810  1
  O  O379  1  0.12819719  0.25241349  0.27064898  1
  O  O380  1  0.13096079  0.26190259  0.75778880  1
  O  O381  1  0.11810171  0.75457907  0.25767381  1
  O  O382  1  0.11727546  0.75717963  0.75360615  1
  O  O383  1  0.61633226  0.26130389  0.25670570  1
  O  O384  1  0.61381035  0.25334301  0.75536418  1
  O  O385  1  0.61360144  0.75855281  0.25427862  1
  O  O386  1  0.62093431  0.75752852  0.75864865  1
  O  O387  1  0.38106791  0.24224322  0.24983228  1
  O  O388  1  0.38822016  0.25647359  0.74550729  1
  O  O389  1  0.38100443  0.75236140  0.23605328  1
  O  O390  1  0.39062485  0.75853464  0.75911101  1
  O  O391  1  0.87693601  0.23369608  0.25971157  1
  O  O392  1  0.87378731  0.23747924  0.74970013  1
  O  O393  1  0.88909881  0.74948531  0.25824180  1
  O  O394  1  0.88044878  0.74695417  0.74348649  1
  O  O395  1  0.37942731  0.49301101  0.49296513  1
  O  O396  1  0.37133410  0.49084693  0.98812448  1
  O  O397  1  0.38987541  0.99471557  0.50087447  1
  O  O398  1  0.37220922  0.99036095  0.99029577  1
  O  O399  1  0.87864574  0.49388994  0.49626829  1
  O  O400  1  0.89027250  0.50063820  0.99313506  1
  O  O401  1  0.88312860  1.00180964  0.48999899  1
  O  O402  1  0.88468924  0.99895954  0.99393599  1
  O  O403  1  0.12062539  0.00500485  0.00596119  1
  O  O404  1  0.11011832  0.00138908  0.49541298  1
  O  O405  1  0.11728107  0.50387074  0.00354604  1
  O  O406  1  0.11779776  0.49838802  0.50551930  1
  O  O407  1  0.61649327  -0.00849747  -0.01112750  1
  O  O408  1  0.61352809  0.00047416  0.50292369  1
  O  O409  1  0.62829100  0.51357489  -0.00116717  1
  O  O410  1  0.61905887  0.50544445  0.50398024  1
  O  O411  1  0.36770906  0.38053883  0.11123773  1
  O  O412  1  0.37104582  0.36939442  0.62062262  1
  O  O413  1  0.36457425  0.87188817  0.12010749  1
  O  O414  1  0.35943223  0.87323877  0.62389310  1
  O  O415  1  0.87200473  0.37702115  0.12255320  1
  O  O416  1  0.86423994  0.37208429  0.61908512  1
  O  O417  1  0.86706348  0.87613794  0.12648605  1
  O  O418  1  0.86281400  0.86799183  0.63216077  1
  O  O419  1  0.13459995  0.13391582  0.38146625  1
  O  O420  1  0.12840040  0.13228311  0.87892750  1
  O  O421  1  0.11788233  0.63386016  0.37182581  1
  O  O422  1  0.13415826  0.63618220  0.87336929  1
  O  O423  1  0.61886094  0.13925496  0.37077203  1
  O  O424  1  0.63686465  0.13423407  0.86926102  1
  O  O425  1  0.63290031  0.63273318  0.38154826  1
  O  O426  1  0.62711299  0.63272236  0.88189527  1
