# generated using pymatgen
data_V85Zn86O256
_symmetry_space_group_name_H-M   'P 1'
_cell_length_a   16.93292562
_cell_length_b   16.94763359
_cell_length_c   16.94461707
_cell_angle_alpha   89.98030633
_cell_angle_beta   89.96642180
_cell_angle_gamma   90.01561480
_symmetry_Int_Tables_number   1
_chemical_formula_structural   V85Zn86O256
_chemical_formula_sum   'V85 Zn86 O256'
_cell_volume   4862.64661524
_cell_formula_units_Z   1
loop_
 _symmetry_equiv_pos_site_id
 _symmetry_equiv_pos_as_xyz
  1  'x, y, z'
loop_
 _atom_site_type_symbol
 _atom_site_label
 _atom_site_symmetry_multiplicity
 _atom_site_fract_x
 _atom_site_fract_y
 _atom_site_fract_z
 _atom_site_occupancy
  V  V0  1  0.37903383  0.87759241  0.00689117  1
  V  V1  1  0.37658670  0.24958055  0.12222971  1
  V  V2  1  -0.00170252  0.37455400  0.87454831  1
  V  V3  1  0.75147793  0.37736481  0.12885354  1
  V  V4  1  0.63648032  0.75527746  0.36583519  1
  V  V5  1  -0.00281081  0.24166760  0.75289607  1
  V  V6  1  0.72672888  0.77248405  0.53446223  1
  V  V7  1  0.62396074  0.24860685  0.37802124  1
  V  V8  1  0.87564398  0.74479349  0.13046696  1
  V  V9  1  0.87146521  0.87421792  -0.00020937  1
  V  V10  1  0.38024885  0.12244939  0.24608550  1
  V  V11  1  0.49921561  0.62688169  0.62687953  1
  V  V12  1  -0.00023043  0.24715159  0.24965385  1
  V  V13  1  0.12524382  0.75159213  0.37537746  1
  V  V14  1  0.62294051  0.11750278  0.51262650  1
  V  V15  1  0.87251208  0.63632880  0.75100034  1
  V  V16  1  0.25627488  0.88159852  0.62077032  1
  V  V17  1  0.50291084  0.62955241  0.11864750  1
  V  V18  1  0.37169911  0.50091112  0.37211420  1
  V  V19  1  0.00052701  0.12481810  0.62684542  1
  V  V20  1  0.25205106  0.37524749  0.62659110  1
  V  V21  1  0.74979102  0.12371024  0.87050167  1
  V  V22  1  0.37430489  0.63006026  0.24149263  1
  V  V23  1  0.73246423  -0.01170616  0.74323084  1
  V  V24  1  0.74295276  0.62484372  0.87312036  1
  V  V25  1  0.25186251  -0.00035821  0.24790959  1
  V  V26  1  0.25062008  0.62739798  0.37215174  1
  V  V27  1  0.74492683  0.87932924  0.13148855  1
  V  V28  1  -0.00038339  0.86338037  0.87180794  1
  V  V29  1  0.12776764  0.12145057  -0.00105034  1
  V  V30  1  0.38026052  -0.00009928  0.87526496  1
  V  V31  1  0.12558792  0.24751322  0.87430125  1
  V  V32  1  0.87434654  0.11839536  0.25034158  1
  V  V33  1  0.25792912  0.74250173  -0.00188097  1
  V  V34  1  0.73769127  0.74821546  0.00057416  1
  V  V35  1  0.12621154  0.62641728  0.50473277  1
  V  V36  1  0.74881865  0.24958583  0.50517487  1
  V  V37  1  0.87354756  0.24796894  0.12621089  1
  V  V38  1  0.12521438  0.25017735  0.37258781  1
  V  V39  1  0.61833789  0.75391712  0.86459054  1
  V  V40  1  0.50275669  0.24610358  0.24507404  1
  V  V41  1  0.25257871  0.50149122  0.75812491  1
  V  V42  1  0.49543147  -0.00456245  0.50830342  1
  V  V43  1  0.86732709  0.49935964  0.86565439  1
  V  V44  1  0.00001062  -0.00268072  -0.00283069  1
  V  V45  1  0.12538112  -0.00295852  0.12377589  1
  V  V46  1  0.12672405  0.37575568  0.24307137  1
  V  V47  1  0.87295489  0.37526841  -0.00183483  1
  V  V48  1  0.50021042  0.37552132  0.37425864  1
  V  V49  1  0.11990050  0.87464285  0.24965324  1
  V  V50  1  0.12578397  0.62542449  -0.01108711  1
  V  V51  1  0.61201103  0.11924856  0.00337391  1
  V  V52  1  0.25296003  0.00331292  0.74466032  1
  V  V53  1  0.49957736  0.87402792  0.86292693  1
  V  V54  1  0.25179390  0.25425881  0.49828932  1
  V  V55  1  0.61954734  0.25870362  0.87700042  1
  V  V56  1  0.63281322  0.62557149  0.48896904  1
  V  V57  1  -0.00023862  0.62042846  0.63475771  1
  V  V58  1  0.87963233  -0.00433137  0.39165782  1
  V  V59  1  0.74847047  0.12232474  0.37812919  1
  V  V60  1  0.12287275  0.87482750  0.74997269  1
  V  V61  1  0.37801985  0.75242529  0.62939799  1
  V  V62  1  0.87850235  0.37927130  0.50031516  1
  V  V63  1  0.88345309  0.76385977  0.61732586  1
  V  V64  1  0.12540327  0.50111443  0.11999126  1
  V  V65  1  0.74834114  0.24616948  0.00163089  1
  V  V66  1  0.76750489  0.51138845  0.26433878  1
  V  V67  1  0.50059406  0.75437999  0.24587260  1
  V  V68  1  0.87268150  0.00263606  0.86706451  1
  V  V69  1  0.62855706  0.50788587  0.12635022  1
  V  V70  1  0.63032794  0.50205141  0.63289417  1
  V  V71  1  0.61197853  0.00096960  0.12907604  1
  V  V72  1  0.12179235  0.12675492  0.50174086  1
  V  V73  1  0.62836542  0.37819204  0.25275348  1
  V  V74  1  0.07065809  -0.04077435  0.56828030  1
  V  V75  1  0.26196739  0.75309046  0.49939147  1
  V  V76  1  0.87172238  0.24685317  0.63199933  1
  V  V77  1  0.50405506  0.49425085  -0.00458476  1
  V  V78  1  0.37466566  0.62714983  0.75712708  1
  V  V79  1  0.49496963  0.87327949  0.37478345  1
  V  V80  1  0.25547715  0.12409581  0.87018760  1
  V  V81  1  0.49206448  0.25319812  0.75206227  1
  V  V82  1  0.50164066  0.50115806  0.49847388  1
  V  V83  1  0.12255338  0.49845475  0.62418901  1
  V  V84  1  0.37477200  0.37451189  0.49873591  1
  Zn  Zn85  1  -0.00780199  0.37998843  0.37216225  1
  Zn  Zn86  1  0.25125712  0.25088848  0.00006816  1
  Zn  Zn87  1  0.25352285  0.37536857  0.12066592  1
  Zn  Zn88  1  0.74489862  -0.00256153  0.25172418  1
  Zn  Zn89  1  0.00165685  0.88248460  0.39202405  1
  Zn  Zn90  1  -0.00061429  0.12125039  0.12382282  1
  Zn  Zn91  1  -0.00211209  0.50398816  -0.00330484  1
  Zn  Zn92  1  0.12511784  0.37387218  0.75043758  1
  Zn  Zn93  1  0.75283297  0.38260489  0.63279403  1
  Zn  Zn94  1  0.25302428  0.12383014  0.37493306  1
  Zn  Zn95  1  0.37950768  0.49812977  0.87536930  1
  Zn  Zn96  1  0.62738486  0.38015695  0.75841873  1
  Zn  Zn97  1  0.24924961  0.50227487  0.24614111  1
  Zn  Zn98  1  -0.04129463  0.53555009  0.45912294  1
  Zn  Zn99  1  -0.00901346  0.74712164  0.26057547  1
  Zn  Zn100  1  0.12901801  0.74447504  0.86773367  1
  Zn  Zn101  1  0.25219686  0.86521647  0.12591347  1
  Zn  Zn102  1  0.37748432  -0.00227926  0.37487254  1
  Zn  Zn103  1  0.37431628  0.24409290  0.63023318  1
  Zn  Zn104  1  0.49421004  0.11893602  0.63753727  1
  Zn  Zn105  1  0.37633944  0.37426704  -0.00544255  1
  Zn  Zn106  1  -0.00233673  0.62359286  0.12312035  1
  Zn  Zn107  1  0.19126817  0.18413829  0.18458086  1
  Zn  Zn108  1  0.18586530  0.18695408  0.68722401  1
  Zn  Zn109  1  0.17923808  0.68526876  0.18392402  1
  Zn  Zn110  1  0.19238734  0.68896314  0.69003656  1
  Zn  Zn111  1  0.68605974  0.18357041  0.18774723  1
  Zn  Zn112  1  0.68386401  0.18670627  0.69384771  1
  Zn  Zn113  1  0.69209878  0.68606908  0.19065296  1
  Zn  Zn114  1  0.68381985  0.69913046  0.68566981  1
  Zn  Zn115  1  0.31194315  0.31172373  0.30993541  1
  Zn  Zn116  1  0.31452861  0.31847027  0.81913643  1
  Zn  Zn117  1  0.31443856  0.81288450  0.30815001  1
  Zn  Zn118  1  0.31090156  0.81301230  0.81347804  1
  Zn  Zn119  1  0.81188231  0.31269853  0.31565619  1
  Zn  Zn120  1  0.80519432  0.31275769  0.80902000  1
  Zn  Zn121  1  0.81332357  0.81895709  0.31306498  1
  Zn  Zn122  1  0.80928095  0.81223693  0.81145318  1
  Zn  Zn123  1  0.15096119  0.46195732  0.41360780  1
  Zn  Zn124  1  0.18977470  0.43360451  0.93852067  1
  Zn  Zn125  1  0.19725256  0.93469521  0.43228614  1
  Zn  Zn126  1  0.19275446  0.93239178  0.93549032  1
  Zn  Zn127  1  0.69244853  0.43674017  0.44155136  1
  Zn  Zn128  1  0.68783083  0.44161616  0.94281206  1
  Zn  Zn129  1  0.68256294  0.93679018  0.43592910  1
  Zn  Zn130  1  0.68419715  0.93762387  0.93821531  1
  Zn  Zn131  1  0.31523023  0.06147573  0.06335157  1
  Zn  Zn132  1  0.31614944  0.06650391  0.56162939  1
  Zn  Zn133  1  0.31288871  0.56300268  0.06089097  1
  Zn  Zn134  1  0.31222725  0.56193946  0.56373075  1
  Zn  Zn135  1  0.80820305  0.06064019  0.06042823  1
  Zn  Zn136  1  0.81112925  0.06213991  0.57040157  1
  Zn  Zn137  1  0.80975464  0.56321281  0.05744988  1
  Zn  Zn138  1  0.80741152  0.57280180  0.56283325  1
  Zn  Zn139  1  0.43889942  0.43848952  0.18532748  1
  Zn  Zn140  1  0.44130896  0.43393588  0.69107258  1
  Zn  Zn141  1  0.43953876  0.93427215  0.18863565  1
  Zn  Zn142  1  0.43460010  0.93887112  0.68859089  1
  Zn  Zn143  1  0.94133457  0.43639597  0.18448517  1
  Zn  Zn144  1  0.93512342  0.43601404  0.68962054  1
  Zn  Zn145  1  0.93728532  0.93529296  0.18681203  1
  Zn  Zn146  1  0.93144250  0.93833375  0.69683921  1
  Zn  Zn147  1  0.06149512  0.06188171  0.31497010  1
  Zn  Zn148  1  0.06567833  0.05661427  0.81070188  1
  Zn  Zn149  1  0.01209092  0.57275020  0.31324910  1
  Zn  Zn150  1  0.06091160  0.55872663  0.81026839  1
  Zn  Zn151  1  0.56193171  0.06088861  0.31449218  1
  Zn  Zn152  1  0.56136702  0.06708524  0.81567812  1
  Zn  Zn153  1  0.56421669  0.56505035  0.30901399  1
  Zn  Zn154  1  0.56209075  0.57286417  0.81171774  1
  Zn  Zn155  1  0.43760695  0.18276895  0.43699042  1
  Zn  Zn156  1  0.43862481  0.18816465  0.93349496  1
  Zn  Zn157  1  0.44161140  0.68645810  0.43398058  1
  Zn  Zn158  1  0.43905799  0.68825061  0.93928164  1
  Zn  Zn159  1  0.93648300  0.18843507  0.44000679  1
  Zn  Zn160  1  0.93621428  0.18422062  0.93891341  1
  Zn  Zn161  1  0.93405900  0.69930097  0.44021262  1
  Zn  Zn162  1  0.93422763  0.68654981  0.94124993  1
  Zn  Zn163  1  0.06185781  0.30967682  0.06062312  1
  Zn  Zn164  1  0.06152041  0.31318144  0.56359306  1
  Zn  Zn165  1  0.06473461  0.80981752  0.05855769  1
  Zn  Zn166  1  0.06678037  0.79563447  0.56942788  1
  Zn  Zn167  1  0.56535719  0.31398258  0.06550509  1
  Zn  Zn168  1  0.56113520  0.31265387  0.56721340  1
  Zn  Zn169  1  0.55919405  0.81812293  0.06113840  1
  Zn  Zn170  1  0.55794234  0.81276311  0.56025388  1
  O  O171  1  0.12404364  0.11670583  0.11549412  1
  O  O172  1  0.11337364  0.12779130  0.61658960  1
  O  O173  1  0.12772301  0.61470780  0.10810916  1
  O  O174  1  0.12061174  0.61986989  0.62693191  1
  O  O175  1  0.62976681  0.11510411  0.11302304  1
  O  O176  1  0.61970725  0.12872012  0.61431611  1
  O  O177  1  0.61925434  0.61547643  0.13209793  1
  O  O178  1  0.61665409  0.61937682  0.61812829  1
  O  O179  1  0.37873597  0.38158451  0.37763968  1
  O  O180  1  0.37756887  0.38474813  0.88042511  1
  O  O181  1  0.38967341  0.87379488  0.37205695  1
  O  O182  1  0.37938899  0.88133952  0.88182038  1
  O  O183  1  0.87537638  0.36848941  0.39379182  1
  O  O184  1  0.87733967  0.38066180  0.87709594  1
  O  O185  1  0.87851719  0.89181463  0.37317610  1
  O  O186  1  0.88011850  0.87957443  0.88104124  1
  O  O187  1  0.25596655  0.00164375  0.36162129  1
  O  O188  1  0.25805816  0.00525876  0.86779151  1
  O  O189  1  0.24885719  0.51070964  0.36986391  1
  O  O190  1  0.24859350  0.49749396  0.86031684  1
  O  O191  1  0.75776822  0.00703236  0.37298123  1
  O  O192  1  0.75467811  0.00568816  0.87402581  1
  O  O193  1  0.74950744  0.49654428  0.36263317  1
  O  O194  1  0.75505416  0.51158378  0.88082208  1
  O  O195  1  0.23914534  0.49778294  0.12487374  1
  O  O196  1  0.24701277  0.48830992  0.63068753  1
  O  O197  1  0.24395696  0.99785400  0.13459913  1
  O  O198  1  0.25631012  0.99255390  0.62989170  1
  O  O199  1  0.74519229  0.49589589  0.12923929  1
  O  O200  1  0.73280604  0.50629834  0.62120360  1
  O  O201  1  0.74289581  0.99255014  0.12651489  1
  O  O202  1  0.74900217  1.00618281  0.64455157  1
  O  O203  1  0.00962890  0.36468952  0.25042605  1
  O  O204  1  -0.00177885  0.36309766  0.76079645  1
  O  O205  1  0.01263816  0.87291034  0.25093063  1
  O  O206  1  0.01004695  0.88234839  0.76003285  1
  O  O207  1  0.50852111  0.37008431  0.25634042  1
  O  O208  1  0.51086421  0.36166721  0.74720826  1
  O  O209  1  0.49888566  0.86206721  0.25531987  1
  O  O210  1  0.49330717  0.87449403  0.76319451  1
  O  O211  1  0.49413014  0.13486199  0.25453950  1
  O  O212  1  0.50743523  0.14406927  0.75179511  1
  O  O213  1  0.49362803  0.63248288  0.24180386  1
  O  O214  1  0.49166644  0.62310503  0.73411149  1
  O  O215  1  0.99242474  0.13035073  0.24809535  1
  O  O216  1  1.00557262  0.13371878  0.74469288  1
  O  O217  1  1.02583405  0.64291147  0.23126096  1
  O  O218  1  0.99201753  0.62241498  0.74304602  1
  O  O219  1  0.38002793  0.24632441  0.01380351  1
  O  O220  1  0.36649821  0.25651494  0.49537635  1
  O  O221  1  0.36546967  0.75861389  -0.00385503  1
  O  O222  1  0.36585873  0.74393325  0.50470798  1
  O  O223  1  0.86885233  0.25362917  0.00613950  1
  O  O224  1  0.86904215  0.25503563  0.51131356  1
  O  O225  1  0.86476781  0.76133157  0.00444431  1
  O  O226  1  0.87044918  0.75609268  0.51424109  1
  O  O227  1  0.12992720  0.24702049  0.49161891  1
  O  O228  1  0.12413596  0.23762963  0.99288428  1
  O  O229  1  0.13901554  0.74577743  0.49552363  1
  O  O230  1  0.13243815  0.74135955  0.99420756  1
  O  O231  1  0.62891171  0.24341876  0.49604785  1
  O  O232  1  0.62863684  0.24073181  0.99907255  1
  O  O233  1  0.62412829  0.74314867  0.48048172  1
  O  O234  1  0.63543823  0.75345147  0.99885253  1
  O  O235  1  0.49690638  0.25457414  0.13903648  1
  O  O236  1  0.49996897  0.24925206  0.63918865  1
  O  O237  1  0.51010834  0.74301560  0.13400730  1
  O  O238  1  0.48503144  0.74241628  0.61671307  1
  O  O239  1  0.99415541  0.24611262  0.13538608  1
  O  O240  1  0.99513743  0.24458620  0.63479158  1
  O  O241  1  0.97998007  0.75740980  0.11892770  1
  O  O242  1  0.98972498  0.73841544  0.62889896  1
  O  O243  1  0.00546071  0.24942402  0.36356389  1
  O  O244  1  0.00177107  0.25152793  0.86872766  1
  O  O245  1  0.01182794  0.76382168  0.37886237  1
  O  O246  1  0.00033754  0.76127463  0.87853791  1
  O  O247  1  0.50411540  0.25573233  0.36628479  1
  O  O248  1  0.50842980  0.24911667  0.86716091  1
  O  O249  1  0.50680851  0.75521380  0.36681087  1
  O  O250  1  0.51169337  0.75569631  0.88028601  1
  O  O251  1  0.23934046  0.13751261  0.50035462  1
  O  O252  1  0.24036896  0.12390313  0.99260057  1
  O  O253  1  0.24679725  0.63394165  0.49581256  1
  O  O254  1  0.24692684  0.63508039  0.99688508  1
  O  O255  1  0.74236677  0.12742635  0.49522398  1
  O  O256  1  0.74310717  0.13135308  0.99395603  1
  O  O257  1  0.73517883  0.64396711  0.50587509  1
  O  O258  1  0.75626061  0.63715608  0.98568814  1
  O  O259  1  0.25513050  0.36808920  0.00281175  1
  O  O260  1  0.25249984  0.36356858  0.50630055  1
  O  O261  1  0.26144566  0.86661495  0.00205541  1
  O  O262  1  0.24770219  0.86818171  0.51159852  1
  O  O263  1  0.75455762  0.36760426  0.00896104  1
  O  O264  1  0.75960589  0.36701281  0.50806036  1
  O  O265  1  0.75581361  0.86955461  0.00680225  1
  O  O266  1  0.74682065  0.86275125  0.49594284  1
  O  O267  1  0.12609129  0.48675346  0.23700247  1
  O  O268  1  0.13410075  0.49771608  0.74039795  1
  O  O269  1  0.13127757  0.99454606  0.24676791  1
  O  O270  1  0.14013828  0.98794374  0.75393567  1
  O  O271  1  0.63194806  0.49418734  0.24381174  1
  O  O272  1  0.61641632  0.50326157  0.73524357  1
  O  O273  1  0.62737169  1.00985898  0.23355637  1
  O  O274  1  0.63299400  0.99946495  0.75739410  1
  O  O275  1  0.36965331  0.00565756  0.24771465  1
  O  O276  1  0.36164310  -0.00385631  0.75944803  1
  O  O277  1  0.37294996  0.50724879  0.25573690  1
  O  O278  1  0.36951744  0.50741892  0.74744014  1
  O  O279  1  0.87383985  0.01118934  0.25284891  1
  O  O280  1  0.86489501  0.00170690  0.76448253  1
  O  O281  1  0.86690237  0.49335993  0.24871919  1
  O  O282  1  0.87629276  0.50777746  0.76174303  1
  O  O283  1  0.12594160  0.35887482  0.36397995  1
  O  O284  1  0.11448802  0.36683656  0.87407596  1
  O  O285  1  0.12602736  0.86897774  0.36865099  1
  O  O286  1  0.11599346  0.87490930  0.86784192  1
  O  O287  1  0.62182094  0.36812546  0.37267788  1
  O  O288  1  0.63055694  0.36136255  0.88381859  1
  O  O289  1  0.61532023  0.86131192  0.37353240  1
  O  O290  1  0.61388440  0.86394139  0.88491063  1
  O  O291  1  0.37315615  0.13122865  0.13689297  1
  O  O292  1  0.38188838  0.13222521  0.62072703  1
  O  O293  1  0.38400853  0.62005315  0.13603186  1
  O  O294  1  0.38135561  0.63136914  0.62929328  1
  O  O295  1  0.87390455  0.12933799  0.13333617  1
  O  O296  1  0.89065543  0.13345954  0.61811797  1
  O  O297  1  0.87418661  0.64191242  0.11660034  1
  O  O298  1  0.88496973  0.62009430  0.63509673  1
  O  O299  1  0.26226573  0.24979923  0.12308176  1
  O  O300  1  0.24790461  0.26081845  0.61954728  1
  O  O301  1  0.24271771  0.75000268  0.10498691  1
  O  O302  1  0.25850533  0.75701761  0.61708205  1
  O  O303  1  0.75446705  0.25526336  0.12250917  1
  O  O304  1  0.75797083  0.24380835  0.62233422  1
  O  O305  1  0.75657808  0.75625206  0.11905841  1
  O  O306  1  0.78025786  0.73231446  0.62797322  1
  O  O307  1  0.24293527  0.24778744  0.38165810  1
  O  O308  1  0.24403592  0.23992223  0.87404219  1
  O  O309  1  0.24755480  0.74966132  0.38280575  1
  O  O310  1  0.24583680  0.75692679  0.89106537  1
  O  O311  1  0.74630552  0.24017802  0.38364182  1
  O  O312  1  0.74466477  0.24110301  0.88265951  1
  O  O313  1  0.73700880  0.75395135  0.36884300  1
  O  O314  1  0.73885160  0.74873296  0.88201860  1
  O  O315  1  0.01133528  0.11658326  -0.00100643  1
  O  O316  1  0.01342973  0.13142865  0.50697728  1
  O  O317  1  0.00851361  0.62432751  0.00295461  1
  O  O318  1  0.01084752  0.62626241  0.51924745  1
  O  O319  1  0.51360159  0.12624338  -0.00122416  1
  O  O320  1  0.50899308  0.11211069  0.49585936  1
  O  O321  1  0.49744807  0.62080547  0.01494926  1
  O  O322  1  0.50722290  0.62046445  0.50678431  1
  O  O323  1  0.49503369  0.37990157  0.49352046  1
  O  O324  1  0.50133329  0.39152114  1.00848820  1
  O  O325  1  0.50538282  0.88743153  0.49315106  1
  O  O326  1  0.48248515  0.86930905  0.99086643  1
  O  O327  1  0.98353558  0.36799276  0.49969076  1
  O  O328  1  0.99222829  0.37014458  0.98657209  1
  O  O329  1  1.01916627  0.88694105  0.51172874  1
  O  O330  1  0.99254564  0.87917634  0.99199698  1
  O  O331  1  0.49527412  0.49555095  0.37946532  1
  O  O332  1  0.50999461  0.50911042  0.89396075  1
  O  O333  1  0.50086341  0.98886455  0.37990789  1
  O  O334  1  0.48667371  0.99522018  0.87129972  1
  O  O335  1  1.03546197  0.48766162  0.38461004  1
  O  O336  1  0.99123533  0.48840329  0.87454591  1
  O  O337  1  0.98527512  1.00162147  0.37667947  1
  O  O338  1  0.99069629  0.99431627  0.87926747  1
  O  O339  1  0.00639880  -0.00071114  0.11626559  1
  O  O340  1  -0.00054946  0.00838542  0.63131355  1
  O  O341  1  0.01197162  0.49860978  0.11814471  1
  O  O342  1  0.01131565  0.50368879  0.63210167  1
  O  O343  1  0.51295332  -0.00227212  0.12558930  1
  O  O344  1  0.49885347  -0.00212310  0.61264436  1
  O  O345  1  0.51008547  0.50882075  0.12219832  1
  O  O346  1  0.50555287  0.50786959  0.61580780  1
  O  O347  1  0.23667975  0.37275829  0.24593081  1
  O  O348  1  0.24837833  0.38058753  0.74092737  1
  O  O349  1  0.24293961  0.88225138  0.24639651  1
  O  O350  1  0.24560509  0.88134969  0.73781010  1
  O  O351  1  0.74609335  0.37905568  0.24541410  1
  O  O352  1  0.74087932  0.37544999  0.74486682  1
  O  O353  1  0.74959181  0.87752921  0.23552030  1
  O  O354  1  0.74861714  0.88929552  0.75560188  1
  O  O355  1  0.25712480  0.11560659  0.25115599  1
  O  O356  1  0.24280321  0.11650259  0.75880730  1
  O  O357  1  0.25781696  0.62853876  0.25303338  1
  O  O358  1  0.26185394  0.61328710  0.74108273  1
  O  O359  1  0.75793783  0.12585869  0.26129557  1
  O  O360  1  0.74306017  0.11797944  0.76702621  1
  O  O361  1  0.75370012  0.60974174  0.24882400  1
  O  O362  1  0.75602586  0.63349861  0.76421546  1
  O  O363  1  0.37291594  0.12387333  0.36008836  1
  O  O364  1  0.36283178  0.11664458  0.88302521  1
  O  O365  1  0.37061355  0.62005577  0.36543024  1
  O  O366  1  0.38476076  0.62111343  0.86057510  1
  O  O367  1  0.86795814  0.11822419  0.37108653  1
  O  O368  1  0.86346786  0.11342141  0.88542751  1
  O  O369  1  0.92085816  0.60856674  0.37933485  1
  O  O370  1  0.86927176  0.61946823  0.86842776  1
  O  O371  1  0.12533388  0.37865190  0.12797106  1
  O  O372  1  0.13152433  0.38187790  0.62602668  1
  O  O373  1  0.12650349  0.87992424  0.13166445  1
  O  O374  1  0.12844140  0.88308189  0.62831906  1
  O  O375  1  0.63249384  0.38377920  0.13357372  1
  O  O376  1  0.62467202  0.39590771  0.61786009  1
  O  O377  1  0.63091071  0.89212928  0.11504299  1
  O  O378  1  0.65579862  0.79943831  0.61284577  1
  O  O379  1  0.11818060  0.24973179  0.25300074  1
  O  O380  1  0.11541680  0.25166598  0.75692701  1
  O  O381  1  0.13393352  0.76215048  0.26083244  1
  O  O382  1  0.13350759  0.76733857  0.74970707  1
  O  O383  1  0.61970688  0.25426478  0.25582075  1
  O  O384  1  0.61992306  0.25216388  0.76406061  1
  O  O385  1  0.61775195  0.74310277  0.25981398  1
  O  O386  1  0.62252052  0.75317433  0.76630726  1
  O  O387  1  0.38265723  0.24400122  0.24239703  1
  O  O388  1  0.38860931  0.25582362  0.75290765  1
  O  O389  1  0.38560949  0.74092158  0.25181584  1
  O  O390  1  0.36563428  0.74071931  0.74020713  1
  O  O391  1  0.88126703  0.24016716  0.24898702  1
  O  O392  1  0.88132468  0.24979672  0.74022189  1
  O  O393  1  0.87446203  0.75698497  0.23479864  1
  O  O394  1  0.87673818  0.74029121  0.74694352  1
  O  O395  1  0.37990623  0.49481276  0.49293160  1
  O  O396  1  0.39244600  0.50305446  1.00168590  1
  O  O397  1  0.39133709  1.00474754  0.49332093  1
  O  O398  1  0.36750376  0.98594720  0.99153201  1
  O  O399  1  0.87082983  0.48422377  0.51274365  1
  O  O400  1  0.87600004  0.49277904  0.98908750  1
  O  O401  1  0.87131651  1.00499088  0.48955231  1
  O  O402  1  0.87674607  0.98832250  0.99414036  1
  O  O403  1  0.12289938  0.00338117  0.00218703  1
  O  O404  1  0.13302624  0.01061633  0.49827103  1
  O  O405  1  0.12385647  0.50609981  0.00232419  1
  O  O406  1  0.13706990  0.51070534  0.51759194  1
  O  O407  1  0.62805763  0.01334283  0.00824492  1
  O  O408  1  0.61316838  0.00759768  0.49525365  1
  O  O409  1  0.61666416  0.49940467  0.01428396  1
  O  O410  1  0.62081553  0.51021378  0.50189984  1
  O  O411  1  0.37490035  0.36422754  0.12490022  1
  O  O412  1  0.36749849  0.37130690  0.61741752  1
  O  O413  1  0.37421949  0.87841220  0.11063813  1
  O  O414  1  0.36747383  0.86564113  0.62787562  1
  O  O415  1  0.87135542  0.36744919  0.11930766  1
  O  O416  1  0.87450040  0.36493976  0.61894806  1
  O  O417  1  0.86551859  0.87127827  0.11702897  1
  O  O418  1  0.88084517  0.86193496  0.63050661  1
  O  O419  1  0.12630426  0.13522637  0.38066187  1
  O  O420  1  0.13323970  0.12560705  0.88117085  1
  O  O421  1  0.13220788  0.64178003  0.38199288  1
  O  O422  1  0.12020212  0.62404061  0.88379913  1
  O  O423  1  0.63434505  0.12910660  0.38055108  1
  O  O424  1  0.63086198  0.13133215  0.88950114  1
  O  O425  1  0.61871782  0.63690171  0.38095210  1
  O  O426  1  0.63027759  0.64028389  0.87494311  1
