# generated using pymatgen
data_V85Zn86O256
_symmetry_space_group_name_H-M   'P 1'
_cell_length_a   16.92781701
_cell_length_b   16.91907707
_cell_length_c   16.93170553
_cell_angle_alpha   89.96493653
_cell_angle_beta   89.96623213
_cell_angle_gamma   90.06718301
_symmetry_Int_Tables_number   1
_chemical_formula_structural   V85Zn86O256
_chemical_formula_sum   'V85 Zn86 O256'
_cell_volume   4849.28686009
_cell_formula_units_Z   1
loop_
 _symmetry_equiv_pos_site_id
 _symmetry_equiv_pos_as_xyz
  1  'x, y, z'
loop_
 _atom_site_type_symbol
 _atom_site_label
 _atom_site_symmetry_multiplicity
 _atom_site_fract_x
 _atom_site_fract_y
 _atom_site_fract_z
 _atom_site_occupancy
  V  V0  1  0.75873533  0.61973213  0.87846808  1
  V  V1  1  0.62332767  0.37066182  0.74878751  1
  V  V2  1  0.13806606  0.37610415  0.25057254  1
  V  V3  1  0.62474262  0.50786644  0.62303806  1
  V  V4  1  0.00133503  0.85003695  0.37180504  1
  V  V5  1  0.12010625  0.50322900  0.62125483  1
  V  V6  1  0.62399474  0.23906860  0.87606805  1
  V  V7  1  0.50325881  0.87782980  0.37566384  1
  V  V8  1  0.12541045  0.74984674  0.87426519  1
  V  V9  1  -0.00329346  0.87580425  0.87642993  1
  V  V10  1  0.74906188  0.00172876  0.75830120  1
  V  V11  1  0.74897625  0.74809557  0.00307801  1
  V  V12  1  0.38397223  0.75198095  0.62997217  1
  V  V13  1  0.36652681  0.62105387  0.24811988  1
  V  V14  1  -0.00591137  0.38144801  0.38665109  1
  V  V15  1  0.13582763  0.49288488  0.12635345  1
  V  V16  1  0.12287800  0.35886563  0.75431763  1
  V  V17  1  0.50742309  0.01219784  0.50125607  1
  V  V18  1  0.37503937  0.49776988  0.87444108  1
  V  V19  1  0.37720601  0.87660266  0.50157931  1
  V  V20  1  0.74039487  0.62376172  0.37440806  1
  V  V21  1  0.74612812  0.37330432  0.12999426  1
  V  V22  1  0.62234447  0.62113216  0.00044927  1
  V  V23  1  0.61926026  0.87140883  0.74801207  1
  V  V24  1  0.87483027  0.12541457  0.25129461  1
  V  V25  1  0.74946444  0.87215337  0.12706270  1
  V  V26  1  0.24683412  0.23906186  0.49995823  1
  V  V27  1  0.87550088  -0.00320993  0.37597889  1
  V  V28  1  0.87957385  0.61858661  0.25266125  1
  V  V29  1  0.88359762  0.74829842  0.13090000  1
  V  V30  1  0.50231592  0.50741046  0.49704654  1
  V  V31  1  0.24605549  0.24688189  -0.01745935  1
  V  V32  1  -0.00776073  0.62775443  0.62537135  1
  V  V33  1  0.74908469  -0.00057141  0.25012341  1
  V  V34  1  0.74573667  0.23964788  -0.00342435  1
  V  V35  1  0.75425842  0.25189717  0.49806793  1
  V  V36  1  0.12533497  0.62169911  0.00047035  1
  V  V37  1  0.37483965  0.00490695  0.37555173  1
  V  V38  1  0.24946837  0.75109394  0.49056720  1
  V  V39  1  0.50362127  0.25785230  0.24692276  1
  V  V40  1  0.25109525  0.37559962  0.62034352  1
  V  V41  1  0.74012487  0.12274362  0.38176947  1
  V  V42  1  0.76173077  0.87175925  0.62875642  1
  V  V43  1  0.24742899  0.50281174  0.74779603  1
  V  V44  1  0.24895063  -0.00459428  0.24744924  1
  V  V45  1  0.12578062  0.87639145  0.74880191  1
  V  V46  1  0.73964235  0.74568528  0.50383096  1
  V  V47  1  0.38577054  0.12942156  0.75179360  1
  V  V48  1  0.87675330  0.86403732  0.50126637  1
  V  V49  1  0.49825495  0.36791020  0.87031755  1
  V  V50  1  0.35990660  0.24990220  0.12758678  1
  V  V51  1  0.75802406  0.49871619  0.75418392  1
  V  V52  1  0.62684469  0.00443607  0.11947508  1
  V  V53  1  -0.01010999  0.75393980  0.74649166  1
  V  V54  1  0.37129923  0.00397386  0.88019078  1
  V  V55  1  0.36887090  0.37432537  0.00417593  1
  V  V56  1  0.50185613  0.12889930  0.12106754  1
  V  V57  1  0.25224042  0.76506163  0.00082388  1
  V  V58  1  0.00892964  0.00649742  0.49499241  1
  V  V59  1  0.12861038  -0.00566279  0.12619618  1
  V  V60  1  0.62083117  0.49405378  0.13332850  1
  V  V61  1  0.87100544  0.01025746  0.87827512  1
  V  V62  1  0.49671436  0.62461131  0.12301583  1
  V  V63  1  0.49873738  0.75089164  0.24870483  1
  V  V64  1  -0.00000158  0.00086667  0.00211167  1
  V  V65  1  -0.00690137  0.36916214  0.86976845  1
  V  V66  1  0.37235094  0.76484856  0.11937535  1
  V  V67  1  0.87140901  0.38421764  -0.00203741  1
  V  V68  1  0.63024472  0.01058520  0.62425844  1
  V  V69  1  0.36479660  0.49922704  0.37351654  1
  V  V70  1  0.12425691  0.62849215  0.49500082  1
  V  V71  1  0.25177371  0.00891613  0.75106749  1
  V  V72  1  0.12683613  0.12868600  -0.01154608  1
  V  V73  1  0.38572921  0.62743146  0.74933343  1
  V  V74  1  0.00168300  0.12764991  0.12575590  1
  V  V75  1  0.12274820  0.86135042  0.25034080  1
  V  V76  1  0.75785568  0.37819157  0.61700512  1
  V  V77  1  0.62032299  0.74671623  0.87149955  1
  V  V78  1  0.62498273  0.25999770  0.37380387  1
  V  V79  1  -0.00116369  0.25718174  0.25052282  1
  V  V80  1  0.49431464  0.87162322  0.87668919  1
  V  V81  1  0.49831573  -0.00166414  0.00060314  1
  V  V82  1  0.25027195  0.62659645  0.87330881  1
  V  V83  1  0.38709214  0.25188543  0.62578756  1
  V  V84  1  0.25084671  0.87502761  0.62634314  1
  Zn  Zn85  1  0.13089541  0.00539272  0.61220728  1
  Zn  Zn86  1  0.61867963  0.74546299  0.37968050  1
  Zn  Zn87  1  0.37949329  0.37575436  0.49812507  1
  Zn  Zn88  1  0.88211981  0.13408517  0.74886885  1
  Zn  Zn89  1  0.37258650  0.12581408  0.25027860  1
  Zn  Zn90  1  0.51511562  0.13858990  0.62617831  1
  Zn  Zn91  1  0.24227897  0.62545330  0.36877967  1
  Zn  Zn92  1  0.87490361  0.87412504  0.00384869  1
  Zn  Zn93  1  0.87825514  0.62423512  0.75601706  1
  Zn  Zn94  1  0.88184050  0.25135673  0.62536666  1
  Zn  Zn95  1  0.00390913  0.62245531  0.12983450  1
  Zn  Zn96  1  0.62504642  0.87384231  0.24950246  1
  Zn  Zn97  1  0.11914795  0.24613999  0.38144079  1
  Zn  Zn98  1  0.23801543  0.11878359  0.37828113  1
  Zn  Zn99  1  0.50776949  0.63312403  0.62125346  1
  Zn  Zn100  1  0.86853752  0.48907485  0.40114461  1
  Zn  Zn101  1  0.50212783  0.38097264  0.37038052  1
  Zn  Zn102  1  -0.00079263  0.49866636  -0.00312221  1
  Zn  Zn103  1  0.49806852  0.49613854  0.00055735  1
  Zn  Zn104  1  0.87413851  0.25214111  0.12179109  1
  Zn  Zn105  1  0.74730874  0.49378814  0.25529323  1
  Zn  Zn106  1  0.00844491  0.13821234  0.63068337  1
  Zn  Zn107  1  0.18358977  0.18228931  0.19380317  1
  Zn  Zn108  1  0.19052596  0.18312667  0.67999415  1
  Zn  Zn109  1  0.19047038  0.68608184  0.17943679  1
  Zn  Zn110  1  0.18786447  0.68994805  0.68489950  1
  Zn  Zn111  1  0.68623239  0.18774876  0.18768484  1
  Zn  Zn112  1  0.71883138  0.20056554  0.70318269  1
  Zn  Zn113  1  0.68625969  0.68399595  0.19046897  1
  Zn  Zn114  1  0.69186969  0.68852582  0.69128607  1
  Zn  Zn115  1  0.31635707  0.31105589  0.31600051  1
  Zn  Zn116  1  0.31217182  0.31203409  0.80739686  1
  Zn  Zn117  1  0.31523628  0.81613418  0.30850835  1
  Zn  Zn118  1  0.31436824  0.81388129  0.81244912  1
  Zn  Zn119  1  0.81521667  0.31230106  0.31311646  1
  Zn  Zn120  1  0.81101326  0.31418932  0.81424068  1
  Zn  Zn121  1  0.81237522  0.80635994  0.31381766  1
  Zn  Zn122  1  0.81008121  0.81560632  0.81702704  1
  Zn  Zn123  1  0.18289033  0.43669377  0.43842273  1
  Zn  Zn124  1  0.18635206  0.43422968  0.93516223  1
  Zn  Zn125  1  0.18602173  0.92905362  0.42966787  1
  Zn  Zn126  1  0.18478461  0.94299558  0.93412424  1
  Zn  Zn127  1  0.68395989  0.43965530  0.43868352  1
  Zn  Zn128  1  0.68502537  0.43485148  0.94036538  1
  Zn  Zn129  1  0.68786822  0.93498121  0.44076639  1
  Zn  Zn130  1  0.68441916  0.93515864  0.94110248  1
  Zn  Zn131  1  0.31119598  0.06425474  0.06241755  1
  Zn  Zn132  1  0.31983386  0.06415003  0.56649516  1
  Zn  Zn133  1  0.31041420  0.56583663  0.06136161  1
  Zn  Zn134  1  0.31423456  0.56489661  0.56031841  1
  Zn  Zn135  1  0.81454096  0.06302808  0.06327414  1
  Zn  Zn136  1  0.81818536  0.06269211  0.56244180  1
  Zn  Zn137  1  0.80994314  0.56054409  0.06777848  1
  Zn  Zn138  1  0.81053743  0.56611183  0.56509000  1
  Zn  Zn139  1  0.43142165  0.43667173  0.18640961  1
  Zn  Zn140  1  0.43984963  0.43922089  0.68607900  1
  Zn  Zn141  1  0.43807845  0.93980913  0.18848335  1
  Zn  Zn142  1  0.44119540  0.94210005  0.68903143  1
  Zn  Zn143  1  0.94014730  0.44062810  0.18193204  1
  Zn  Zn144  1  0.94021886  0.43614882  0.68702157  1
  Zn  Zn145  1  0.93987881  0.93433052  0.19104182  1
  Zn  Zn146  1  0.94897388  0.96789723  0.69579823  1
  Zn  Zn147  1  0.06293078  0.06147200  0.31449245  1
  Zn  Zn148  1  0.06313854  0.06295886  0.80968592  1
  Zn  Zn149  1  0.06124122  0.55973231  0.31195077  1
  Zn  Zn150  1  0.05930941  0.55821856  0.81365332  1
  Zn  Zn151  1  0.56245851  0.06640922  0.30552360  1
  Zn  Zn152  1  0.56151396  0.05961362  0.81087767  1
  Zn  Zn153  1  0.55713339  0.56365762  0.31058490  1
  Zn  Zn154  1  0.56548068  0.55573522  0.81301128  1
  Zn  Zn155  1  0.43732482  0.19087342  0.43772216  1
  Zn  Zn156  1  0.43738211  0.18614620  0.93943856  1
  Zn  Zn157  1  0.43415950  0.68598450  0.43723538  1
  Zn  Zn158  1  0.43561969  0.68789806  0.93853743  1
  Zn  Zn159  1  0.93488944  0.18817944  0.43643898  1
  Zn  Zn160  1  0.93754833  0.19449252  0.93793123  1
  Zn  Zn161  1  0.92034213  0.65841448  0.45445911  1
  Zn  Zn162  1  0.93873933  0.69001432  0.94206919  1
  Zn  Zn163  1  0.06290003  0.31475202  0.06025105  1
  Zn  Zn164  1  0.06273473  0.31053958  0.56627925  1
  Zn  Zn165  1  0.06460123  0.81136858  0.06233539  1
  Zn  Zn166  1  0.06342695  0.81203615  0.56158278  1
  Zn  Zn167  1  0.56051930  0.31246353  0.05868857  1
  Zn  Zn168  1  0.57034292  0.32005573  0.55468911  1
  Zn  Zn169  1  0.56219587  0.81419407  0.06093238  1
  Zn  Zn170  1  0.56435882  0.82039673  0.56395019  1
  O  O171  1  0.11474324  0.11564877  0.12202932  1
  O  O172  1  0.12145517  0.11582636  0.62718676  1
  O  O173  1  0.12439842  0.61483675  0.11763725  1
  O  O174  1  0.12168870  0.61881408  0.62092799  1
  O  O175  1  0.61611336  0.11618399  0.12778221  1
  O  O176  1  0.63114130  0.11215214  0.63663371  1
  O  O177  1  0.61650891  0.61896270  0.11949726  1
  O  O178  1  0.62431702  0.61266661  0.63599289  1
  O  O179  1  0.37951459  0.38539577  0.37570224  1
  O  O180  1  0.37974716  0.37756635  0.87778296  1
  O  O181  1  0.38565284  0.88593267  0.37850722  1
  O  O182  1  0.38880731  0.88346816  0.86795283  1
  O  O183  1  0.88703457  0.37633623  0.37593641  1
  O  O184  1  0.88474843  0.37401696  0.87889290  1
  O  O185  1  0.88287207  0.87598335  0.37919833  1
  O  O186  1  0.88673673  0.87659447  0.88141947  1
  O  O187  1  0.25930356  -0.00158105  0.37071735  1
  O  O188  1  0.26254765  -0.00561602  0.86605956  1
  O  O189  1  0.26103179  0.50251607  0.38098241  1
  O  O190  1  0.25489996  0.50411427  0.86608240  1
  O  O191  1  0.75381665  0.00450431  0.37184195  1
  O  O192  1  0.75883901  -0.01095165  0.87258649  1
  O  O193  1  0.75303261  0.50671193  0.37487519  1
  O  O194  1  0.74034364  0.50912062  0.86756411  1
  O  O195  1  0.23543251  0.50294973  0.12381958  1
  O  O196  1  0.24726496  0.49429373  0.63069220  1
  O  O197  1  0.24002733  1.00257953  0.13223574  1
  O  O198  1  0.25505724  0.98922556  0.63056773  1
  O  O199  1  0.73835978  0.49048734  0.12629023  1
  O  O200  1  0.74387684  0.49745966  0.63060937  1
  O  O201  1  0.74414104  0.99430367  0.12731981  1
  O  O202  1  0.74601995  0.99055932  0.63290050  1
  O  O203  1  0.00276224  0.36541282  0.25071595  1
  O  O204  1  0.01233260  0.37743201  0.75767569  1
  O  O205  1  0.00568137  0.87302939  0.26371465  1
  O  O206  1  0.00574806  0.87328221  0.75665173  1
  O  O207  1  0.49657268  0.36150219  0.24749001  1
  O  O208  1  0.50867722  0.37899752  0.75848945  1
  O  O209  1  0.49973591  0.86912228  0.25825054  1
  O  O210  1  0.51224743  0.87952810  0.75855604  1
  O  O211  1  0.49491824  0.13203504  0.23683154  1
  O  O212  1  0.48987201  0.12030590  0.74355111  1
  O  O213  1  0.48958572  0.63432868  0.24357119  1
  O  O214  1  0.48803164  0.61825267  0.74967498  1
  O  O215  1  0.99637177  0.13512849  0.24373634  1
  O  O216  1  0.98468116  0.07966021  0.73389987  1
  O  O217  1  0.98440896  0.62246356  0.25043402  1
  O  O218  1  1.00125918  0.63624200  0.74764778  1
  O  O219  1  0.36272418  0.25276262  0.00534406  1
  O  O220  1  0.36729765  0.25410898  0.50787408  1
  O  O221  1  0.36489643  0.74746573  0.00715227  1
  O  O222  1  0.36988087  0.75705967  0.50882196  1
  O  O223  1  0.86150984  0.25932479  -0.00033614  1
  O  O224  1  0.85837333  0.24868562  0.49832529  1
  O  O225  1  0.86591913  0.74883875  0.01158036  1
  O  O226  1  0.86400068  0.75987014  0.49720618  1
  O  O227  1  0.14429309  0.25817200  0.50068048  1
  O  O228  1  0.13920831  0.24489868  1.00504329  1
  O  O229  1  0.14024347  0.74373891  0.50688064  1
  O  O230  1  0.13198357  0.74238034  0.99506103  1
  O  O231  1  0.63393267  0.25068232  0.48504407  1
  O  O232  1  0.63595592  0.25399075  0.99183644  1
  O  O233  1  0.63455905  0.75733540  0.49855392  1
  O  O234  1  0.62869535  0.74250413  0.99237892  1
  O  O235  1  0.49420968  0.24398511  0.12773833  1
  O  O236  1  0.49137316  0.25555310  0.61608559  1
  O  O237  1  0.49352003  0.74602336  0.12926890  1
  O  O238  1  0.48893532  0.75262410  0.62153654  1
  O  O239  1  0.99950907  0.24340680  0.13050703  1
  O  O240  1  0.99604628  0.25289467  0.63004626  1
  O  O241  1  0.98739799  0.74481685  0.11825256  1
  O  O242  1  1.00840739  0.74452008  0.63867640  1
  O  O243  1  -0.00163666  0.26022457  0.36719663  1
  O  O244  1  0.00268310  0.26729642  0.87658534  1
  O  O245  1  -0.00970467  0.75396970  0.37781784  1
  O  O246  1  0.00596978  0.75758124  0.87052588  1
  O  O247  1  0.50706216  0.25004916  0.36605306  1
  O  O248  1  0.50625052  0.26075680  0.88169873  1
  O  O249  1  0.49710079  0.75879723  0.36802856  1
  O  O250  1  0.50738995  0.75905784  0.88197836  1
  O  O251  1  0.25515903  0.13611392  0.50191917  1
  O  O252  1  0.24155728  0.13739997  1.00248055  1
  O  O253  1  0.24361406  0.63571744  0.50011040  1
  O  O254  1  0.24028919  0.63177597  0.99255946  1
  O  O255  1  0.75247413  0.13054704  0.48891229  1
  O  O256  1  0.75327913  0.14065194  1.00442961  1
  O  O257  1  0.74979011  0.63696708  0.49117117  1
  O  O258  1  0.74209624  0.62725412  0.99597104  1
  O  O259  1  0.25781217  0.36106818  -0.00613009  1
  O  O260  1  0.25218714  0.37237009  0.51181007  1
  O  O261  1  0.24291304  0.86415991  -0.00619103  1
  O  O262  1  0.25670848  0.87082346  0.50602132  1
  O  O263  1  0.75513541  0.36935237  0.00764202  1
  O  O264  1  0.74636241  0.36984618  0.50658982  1
  O  O265  1  0.75080399  0.86681995  0.01021204  1
  O  O266  1  0.75726115  0.86888994  0.50786254  1
  O  O267  1  0.12219642  0.48701200  0.23958553  1
  O  O268  1  0.13701443  0.49967802  0.74196044  1
  O  O269  1  0.12991945  0.99172813  0.24354708  1
  O  O270  1  0.13931236  0.99109774  0.75415261  1
  O  O271  1  0.62357310  0.50275333  0.23699990  1
  O  O272  1  0.63301837  0.49015690  0.74445042  1
  O  O273  1  0.63058680  0.99801794  0.23795472  1
  O  O274  1  0.63054033  0.98895776  0.74722004  1
  O  O275  1  0.36749917  -0.00080870  0.25769135  1
  O  O276  1  0.37165997  0.00656367  0.75768103  1
  O  O277  1  0.37908406  0.51005071  0.25804371  1
  O  O278  1  0.36469922  0.50619657  0.75231354  1
  O  O279  1  0.86962667  0.00313847  0.25723310  1
  O  O280  1  0.86042416  -0.01654042  0.76634382  1
  O  O281  1  0.86992686  0.51266873  0.24563145  1
  O  O282  1  0.86163091  0.50053021  0.74927678  1
  O  O283  1  0.11684598  0.37308427  0.36250446  1
  O  O284  1  0.12279950  0.37477621  0.85857357  1
  O  O285  1  0.11027982  0.86755588  0.36672409  1
  O  O286  1  0.11405965  0.87197417  0.87033786  1
  O  O287  1  0.62410968  0.36447244  0.37098026  1
  O  O288  1  0.61546423  0.37066849  0.86878547  1
  O  O289  1  0.61243031  0.87569678  0.37247800  1
  O  O290  1  0.61640833  0.86689428  0.87023079  1
  O  O291  1  0.38204292  0.13372021  0.12561767  1
  O  O292  1  0.38274601  0.13545412  0.63186830  1
  O  O293  1  0.38009253  0.63040761  0.13008776  1
  O  O294  1  0.37614693  0.63502253  0.63309786  1
  O  O295  1  0.88752496  0.12524152  0.13068719  1
  O  O296  1  0.88105845  0.12807878  0.62688233  1
  O  O297  1  0.87471500  0.63006564  0.13511885  1
  O  O298  1  0.88941817  0.62655446  0.63499016  1
  O  O299  1  0.25859739  0.24303744  0.12390664  1
  O  O300  1  0.25961273  0.25699569  0.61581286  1
  O  O301  1  0.26009320  0.74888698  0.11261580  1
  O  O302  1  0.26039163  0.76174428  0.62078502  1
  O  O303  1  0.74743346  0.25611489  0.11448894  1
  O  O304  1  0.73973818  0.26381889  0.60943784  1
  O  O305  1  0.75243157  0.75439547  0.12138484  1
  O  O306  1  0.74621860  0.75886846  0.61832120  1
  O  O307  1  0.25519310  0.24836177  0.39199946  1
  O  O308  1  0.25272679  0.24684885  0.88422850  1
  O  O309  1  0.25974401  0.75066995  0.38725763  1
  O  O310  1  0.24558122  0.74609921  0.87949174  1
  O  O311  1  0.74325155  0.24362065  0.37676957  1
  O  O312  1  0.73926215  0.25612712  0.88945804  1
  O  O313  1  0.74260953  0.74445061  0.38328781  1
  O  O314  1  0.74141706  0.74318658  0.88300147  1
  O  O315  1  0.00536896  0.12414251  0.00823091  1
  O  O316  1  -0.00593126  0.10771425  0.49617059  1
  O  O317  1  0.01589269  0.62342661  -0.00356408  1
  O  O318  1  0.01703508  0.64589185  0.51619991  1
  O  O319  1  0.49636782  0.11478191  0.01202521  1
  O  O320  1  0.49958363  0.11495365  0.50308950  1
  O  O321  1  0.50429785  0.62185911  0.00555849  1
  O  O322  1  0.49578691  0.61455094  0.50298181  1
  O  O323  1  0.49910365  0.39079721  0.49579140  1
  O  O324  1  0.48493879  0.37447464  0.99198303  1
  O  O325  1  0.49544131  0.88460759  0.49262220  1
  O  O326  1  0.50340317  0.88824278  0.99181937  1
  O  O327  1  1.01003981  0.37517484  0.48444324  1
  O  O328  1  0.98958467  0.37320829  0.99123752  1
  O  O329  1  0.99434217  0.87231734  0.48627214  1
  O  O330  1  1.00050434  0.88053501  0.99256675  1
  O  O331  1  0.49202251  0.50177450  0.38104494  1
  O  O332  1  0.49240629  0.48871946  0.87736893  1
  O  O333  1  0.49728399  0.99710462  0.37979661  1
  O  O334  1  0.49505059  0.99430946  0.88345969  1
  O  O335  1  0.99605906  0.48335160  0.36819195  1
  O  O336  1  1.00955394  0.48007762  0.88051784  1
  O  O337  1  0.99191754  0.99187334  0.38166761  1
  O  O338  1  0.99346984  0.99190968  0.88366240  1
  O  O339  1  0.00453183  0.00677287  0.12109291  1
  O  O340  1  0.00484101  -0.01781194  0.59728641  1
  O  O341  1  0.01312277  0.50299755  0.11687271  1
  O  O342  1  0.01089346  0.51182105  0.63441719  1
  O  O343  1  0.50565094  0.00522449  0.11956094  1
  O  O344  1  0.51153455  0.00053877  0.61640265  1
  O  O345  1  0.50339554  0.50481878  0.12257881  1
  O  O346  1  0.50798993  0.50353155  0.61806165  1
  O  O347  1  0.23639181  0.36947583  0.25402539  1
  O  O348  1  0.24193471  0.38200889  0.74159807  1
  O  O349  1  0.23955286  0.88634014  0.25713159  1
  O  O350  1  0.24792987  0.88153664  0.74253139  1
  O  O351  1  0.75462297  0.37300591  0.23466554  1
  O  O352  1  0.74218985  0.38455554  0.74420607  1
  O  O353  1  0.74860615  0.88029766  0.24407212  1
  O  O354  1  0.73943351  0.87580101  0.74531041  1
  O  O355  1  0.25230817  0.11007232  0.25322363  1
  O  O356  1  0.26307958  0.11257475  0.74343181  1
  O  O357  1  0.26225999  0.63182555  0.25087752  1
  O  O358  1  0.25666623  0.61913194  0.75326860  1
  O  O359  1  0.75631843  0.11799543  0.25454392  1
  O  O360  1  0.74942210  0.10271335  0.75533161  1
  O  O361  1  0.75537758  0.62011995  0.25645383  1
  O  O362  1  0.75243169  0.61855114  0.76128947  1
  O  O363  1  0.37497443  0.11274115  0.37467966  1
  O  O364  1  0.38140255  0.11547934  0.86681588  1
  O  O365  1  0.37218827  0.61878132  0.36474608  1
  O  O366  1  0.36977525  0.61970508  0.86801319  1
  O  O367  1  0.86646840  0.11694053  0.36869091  1
  O  O368  1  0.88197178  0.11309564  0.87295460  1
  O  O369  1  0.86067168  0.63304205  0.35728399  1
  O  O370  1  0.86233095  0.62857884  0.87858187  1
  O  O371  1  0.12399026  0.38438768  0.13390120  1
  O  O372  1  0.13160069  0.38431726  0.63541899  1
  O  O373  1  0.11528315  0.88776429  0.13257930  1
  O  O374  1  0.13628790  0.87931171  0.62937184  1
  O  O375  1  0.63117968  0.38315534  0.11769536  1
  O  O376  1  0.63189886  0.38582420  0.63264488  1
  O  O377  1  0.63178624  0.88202498  0.12692915  1
  O  O378  1  0.63273145  0.88215405  0.63494226  1
  O  O379  1  0.11719377  0.26288650  0.24728232  1
  O  O380  1  0.13561670  0.26165972  0.74750489  1
  O  O381  1  0.12953333  0.76231242  0.23870842  1
  O  O382  1  0.12179556  0.75851791  0.75696596  1
  O  O383  1  0.61458045  0.24385826  0.25809098  1
  O  O384  1  0.63480570  0.26363340  0.75935548  1
  O  O385  1  0.60887515  0.75094996  0.24969838  1
  O  O386  1  0.62762136  0.75520193  0.76347616  1
  O  O387  1  0.38068648  0.24781085  0.24242050  1
  O  O388  1  0.37064725  0.24105057  0.73954049  1
  O  O389  1  0.38288445  0.74636256  0.24201551  1
  O  O390  1  0.37073890  0.74030353  0.74215473  1
  O  O391  1  0.88230106  0.24340792  0.24557649  1
  O  O392  1  0.83406235  0.23786496  0.73694197  1
  O  O393  1  0.86659201  0.73725136  0.23789469  1
  O  O394  1  0.88724776  0.75171716  0.75761166  1
  O  O395  1  0.38157507  0.50023823  0.49182233  1
  O  O396  1  0.37074053  0.49060509  0.99391196  1
  O  O397  1  0.38367746  0.99532213  0.49433865  1
  O  O398  1  0.38133466  1.00425844  0.99040286  1
  O  O399  1  0.89233939  0.54909393  0.49236103  1
  O  O400  1  0.87315539  0.48837625  1.00215766  1
  O  O401  1  0.87963674  0.98523775  0.49096939  1
  O  O402  1  0.88093880  0.99715854  0.99523228  1
  O  O403  1  0.12083850  0.00759451  0.00799595  1
  O  O404  1  0.11261431  -0.00600784  0.49059965  1
  O  O405  1  0.12910192  0.50411876  0.00868420  1
  O  O406  1  0.13134514  0.50959154  0.51404313  1
  O  O407  1  0.61729927  -0.00156145  0.01148455  1
  O  O408  1  0.61898353  -0.00444141  0.51102067  1
  O  O409  1  0.62115690  0.50684364  0.00860800  1
  O  O410  1  0.61679510  0.49999777  0.51075671  1
  O  O411  1  0.37621372  0.36491730  0.11395900  1
  O  O412  1  0.36686084  0.36956491  0.62715296  1
  O  O413  1  0.37921233  0.86416204  0.12605806  1
  O  O414  1  0.37155530  0.87102711  0.62361620  1
  O  O415  1  0.86688116  0.37350793  0.11562300  1
  O  O416  1  0.86123162  0.37698419  0.62744435  1
  O  O417  1  0.86900113  0.86587424  0.12693421  1
  O  O418  1  0.86495979  0.88030076  0.61814796  1
  O  O419  1  0.12598091  0.13378921  0.36919447  1
  O  O420  1  0.11959525  0.12007383  0.88897638  1
  O  O421  1  0.12530166  0.61708059  0.38871892  1
  O  O422  1  0.13152253  0.62877946  0.87970786  1
  O  O423  1  0.63670033  0.13016934  0.36788019  1
  O  O424  1  0.61649645  0.13962675  0.87018056  1
  O  O425  1  0.63550867  0.62622351  0.36807777  1
  O  O426  1  0.62852445  0.63073821  0.88003744  1
