# generated using pymatgen
data_V85Zn86O256
_symmetry_space_group_name_H-M   'P 1'
_cell_length_a   16.95124284
_cell_length_b   16.95774081
_cell_length_c   16.94998459
_cell_angle_alpha   90.04621422
_cell_angle_beta   89.97291854
_cell_angle_gamma   90.04433807
_symmetry_Int_Tables_number   1
_chemical_formula_structural   V85Zn86O256
_chemical_formula_sum   'V85 Zn86 O256'
_cell_volume   4872.35054622
_cell_formula_units_Z   1
loop_
 _symmetry_equiv_pos_site_id
 _symmetry_equiv_pos_as_xyz
  1  'x, y, z'
loop_
 _atom_site_type_symbol
 _atom_site_label
 _atom_site_symmetry_multiplicity
 _atom_site_fract_x
 _atom_site_fract_y
 _atom_site_fract_z
 _atom_site_occupancy
  V  V0  1  0.49583347  0.62056541  0.12599256  1
  V  V1  1  0.25161323  0.75029767  -0.00501515  1
  V  V2  1  0.75296545  0.62122919  0.36018038  1
  V  V3  1  0.62333335  0.62541297  -0.00430865  1
  V  V4  1  0.74848440  0.00241326  0.75055518  1
  V  V5  1  0.74348365  0.88232813  0.12225906  1
  V  V6  1  0.24944845  0.62319136  0.87122021  1
  V  V7  1  0.87355357  0.87397517  0.00045538  1
  V  V8  1  0.00601196  0.75487804  0.74514894  1
  V  V9  1  0.38202201  0.36960114  0.48962273  1
  V  V10  1  0.88047397  0.50271400  0.87185086  1
  V  V11  1  0.87521498  0.25135103  0.62430349  1
  V  V12  1  0.24733904  0.87503010  0.11807524  1
  V  V13  1  0.61986553  0.37343563  0.74611617  1
  V  V14  1  0.74766254  0.00333422  0.25475686  1
  V  V15  1  0.62096367  0.87873101  0.25158918  1
  V  V16  1  0.13932883  0.74915929  0.38088477  1
  V  V17  1  0.12877346  0.49627059  0.11427924  1
  V  V18  1  0.37499579  0.75419326  0.60781329  1
  V  V19  1  0.49594554  0.74483715  0.25349272  1
  V  V20  1  0.13359680  0.62575730  0.50455367  1
  V  V21  1  0.62306123  0.87528969  0.75149404  1
  V  V22  1  0.87821013  0.12962145  0.24880877  1
  V  V23  1  0.50015710  0.62190268  0.62178524  1
  V  V24  1  0.43017923  0.93153795  0.04513373  1
  V  V25  1  0.61431636  0.25616333  0.37346882  1
  V  V26  1  0.24675321  0.00089859  0.25087012  1
  V  V27  1  0.00147426  0.38077718  0.87377736  1
  V  V28  1  0.62667724  0.24336690  0.87007146  1
  V  V29  1  0.74848862  0.62166201  0.86969474  1
  V  V30  1  0.25444713  0.12431363  0.37635382  1
  V  V31  1  0.25231200  0.87194877  0.61209346  1
  V  V32  1  0.00520566  0.26754346  0.25343354  1
  V  V33  1  0.87387528  0.12976109  0.75137111  1
  V  V34  1  0.15223740  0.40117745  0.28462899  1
  V  V35  1  0.25402992  -0.00465136  0.75118128  1
  V  V36  1  0.13141301  0.39218411  0.74417715  1
  V  V37  1  0.62355424  0.12551208  0.49955914  1
  V  V38  1  0.38000345  0.13224924  0.23386309  1
  V  V39  1  0.12632328  0.12256407  0.50232232  1
  V  V40  1  -0.00333979  0.00289440  0.00037851  1
  V  V41  1  0.88217742  0.37716105  0.49720844  1
  V  V42  1  0.37225291  0.49780103  0.86825391  1
  V  V43  1  0.49340492  0.50012963  -0.00492400  1
  V  V44  1  0.62524479  0.75041667  0.87286764  1
  V  V45  1  0.87538776  0.75172462  0.14056986  1
  V  V46  1  0.49645651  -0.00962801  0.49719607  1
  V  V47  1  -0.05831632  0.44374679  0.05317505  1
  V  V48  1  0.74670651  0.87446149  0.62353423  1
  V  V49  1  0.86997118  0.62387885  0.74639659  1
  V  V50  1  0.37549452  -0.00948292  0.37817238  1
  V  V51  1  0.25363651  0.24799132  -0.00175667  1
  V  V52  1  0.88196251  0.50107745  0.37168756  1
  V  V53  1  0.37750371  0.01076358  0.87275214  1
  V  V54  1  0.50298518  0.49074016  0.48493791  1
  V  V55  1  0.62159629  0.75187857  0.37427596  1
  V  V56  1  0.25497015  0.39445974  0.62768837  1
  V  V57  1  0.37497435  0.74614592  0.12053117  1
  V  V58  1  0.37205696  0.24541105  0.64161656  1
  V  V59  1  -0.00238524  0.63459411  0.13060170  1
  V  V60  1  0.12576596  0.75356672  0.86992349  1
  V  V61  1  0.36545855  0.62130107  0.74062655  1
  V  V62  1  0.12487665  -0.00753734  0.63498932  1
  V  V63  1  0.63062689  0.49315854  0.12401576  1
  V  V64  1  0.00126187  0.12411506  0.62416360  1
  V  V65  1  0.38424830  0.36355198  0.01270481  1
  V  V66  1  0.49631856  0.74740175  0.74740167  1
  V  V67  1  0.00290203  0.87734383  0.86941098  1
  V  V68  1  0.00294895  0.25283756  0.74810650  1
  V  V69  1  0.62830201  0.62088741  0.49590157  1
  V  V70  1  0.62994053  0.49883003  0.62689844  1
  V  V71  1  0.12597782  0.24994979  0.87073601  1
  V  V72  1  0.24706713  0.37169404  0.12308809  1
  V  V73  1  -0.00101086  -0.00315982  0.49826435  1
  V  V74  1  0.49710329  0.12824684  0.63501254  1
  V  V75  1  0.11762420  0.62477437  -0.00580641  1
  V  V76  1  0.12003242  0.00326439  0.12552645  1
  V  V77  1  0.87460708  0.75114035  0.62129781  1
  V  V78  1  0.00017430  0.61630492  0.62122213  1
  V  V79  1  -0.00459381  0.86412843  0.37366593  1
  V  V80  1  0.11632928  0.86916781  0.24946097  1
  V  V81  1  0.12014748  0.24622853  0.37789519  1
  V  V82  1  0.48720030  0.87271997  0.87381079  1
  V  V83  1  0.75358925  0.37702037  0.63290293  1
  V  V84  1  0.49646604  0.36182386  0.86555227  1
  Zn  Zn85  1  0.51699744  0.23966000  0.20863378  1
  Zn  Zn86  1  0.75174589  0.75092867  -0.00020185  1
  Zn  Zn87  1  0.62703715  0.37354818  0.25673309  1
  Zn  Zn88  1  0.87621620  0.26775984  0.12752744  1
  Zn  Zn89  1  0.75202289  0.12533755  0.88061638  1
  Zn  Zn90  1  0.56972511  0.04072058  0.09843277  1
  Zn  Zn91  1  0.76796520  0.26497498  0.01274652  1
  Zn  Zn92  1  0.25086578  0.24886373  0.50495554  1
  Zn  Zn93  1  0.74873100  0.25194195  0.49920580  1
  Zn  Zn94  1  0.74912061  0.12919955  0.37578557  1
  Zn  Zn95  1  0.74973512  0.74961327  0.49650264  1
  Zn  Zn96  1  0.00800796  0.49718666  0.49505261  1
  Zn  Zn97  1  0.63005231  0.12945209  0.00810135  1
  Zn  Zn98  1  -0.00395143  0.13167680  0.12540154  1
  Zn  Zn99  1  0.87512086  0.00109204  0.37634337  1
  Zn  Zn100  1  0.87125514  0.87593750  0.49815621  1
  Zn  Zn101  1  0.62026649  0.00138803  0.62568195  1
  Zn  Zn102  1  0.76666440  0.49133211  0.23382288  1
  Zn  Zn103  1  0.25573442  0.12898689  0.86596621  1
  Zn  Zn104  1  0.12340697  0.12553721  -0.00408764  1
  Zn  Zn105  1  0.33886541  0.51777189  0.34323679  1
  Zn  Zn106  1  0.87315381  0.00054258  0.87459936  1
  Zn  Zn107  1  0.18701602  0.18902427  0.18847201  1
  Zn  Zn108  1  0.18986121  0.18487319  0.68995042  1
  Zn  Zn109  1  0.18050256  0.69362409  0.18242707  1
  Zn  Zn110  1  0.18865077  0.68947951  0.68046732  1
  Zn  Zn111  1  0.69570787  0.19130340  0.18152435  1
  Zn  Zn112  1  0.68510779  0.19173857  0.68845787  1
  Zn  Zn113  1  0.68634715  0.68823870  0.18440771  1
  Zn  Zn114  1  0.68670977  0.68765828  0.68566674  1
  Zn  Zn115  1  0.31283311  0.30620717  0.31533994  1
  Zn  Zn116  1  0.31079478  0.31628905  0.81176647  1
  Zn  Zn117  1  0.30872096  0.80861916  0.30482315  1
  Zn  Zn118  1  0.30966065  0.81380446  0.80012121  1
  Zn  Zn119  1  0.80511874  0.31360891  0.31099451  1
  Zn  Zn120  1  0.79249343  0.33714660  0.84269670  1
  Zn  Zn121  1  0.80744875  0.81441939  0.31491917  1
  Zn  Zn122  1  0.81429093  0.81185036  0.81088202  1
  Zn  Zn123  1  0.19066976  0.43784149  0.45251931  1
  Zn  Zn124  1  0.19195716  0.43734835  0.93754795  1
  Zn  Zn125  1  0.18401964  0.93753454  0.43798176  1
  Zn  Zn126  1  0.18580727  0.93882265  0.93565477  1
  Zn  Zn127  1  0.69650972  0.43268620  0.43589163  1
  Zn  Zn128  1  0.68475026  0.43877383  0.93777309  1
  Zn  Zn129  1  0.68253557  0.93806197  0.43742819  1
  Zn  Zn130  1  0.67835141  0.94343961  0.93962882  1
  Zn  Zn131  1  0.30100176  0.06546780  0.05958458  1
  Zn  Zn132  1  0.31460785  0.06051082  0.56379853  1
  Zn  Zn133  1  0.31241183  0.55974256  0.17488057  1
  Zn  Zn134  1  0.32722485  0.57150647  0.52949065  1
  Zn  Zn135  1  0.79917543  0.06670107  0.06219552  1
  Zn  Zn136  1  0.81128681  0.06203992  0.56470265  1
  Zn  Zn137  1  0.81051016  0.57302830  0.05945200  1
  Zn  Zn138  1  0.81170880  0.56018809  0.55736218  1
  Zn  Zn139  1  0.44571193  0.42326938  0.19876886  1
  Zn  Zn140  1  0.43809323  0.43911039  0.68045865  1
  Zn  Zn141  1  0.42733605  0.92572111  0.22007008  1
  Zn  Zn142  1  0.43501343  0.93867502  0.68593455  1
  Zn  Zn143  1  0.99332274  0.48813429  0.24650795  1
  Zn  Zn144  1  0.93737415  0.43825139  0.69113375  1
  Zn  Zn145  1  0.93259638  0.94053375  0.18912658  1
  Zn  Zn146  1  0.93398282  0.93830178  0.68680722  1
  Zn  Zn147  1  0.05868392  0.06363775  0.31301200  1
  Zn  Zn148  1  0.06208357  0.06333348  0.81151855  1
  Zn  Zn149  1  0.16917242  0.57429949  0.30743294  1
  Zn  Zn150  1  0.05851797  0.56717710  0.80827000  1
  Zn  Zn151  1  0.56047275  0.06689546  0.31337023  1
  Zn  Zn152  1  0.55671988  0.05891968  0.81722970  1
  Zn  Zn153  1  0.56277957  0.56307059  0.30778181  1
  Zn  Zn154  1  0.55923665  0.55851113  0.80711067  1
  Zn  Zn155  1  0.43768706  0.18250477  0.44289166  1
  Zn  Zn156  1  0.45106342  0.17605648  1.04028219  1
  Zn  Zn157  1  0.43444591  0.67490575  0.43002958  1
  Zn  Zn158  1  0.43376863  0.68668517  0.93576508  1
  Zn  Zn159  1  0.93494463  0.18705128  0.43593475  1
  Zn  Zn160  1  0.93395285  0.19159958  0.93917531  1
  Zn  Zn161  1  0.93887511  0.68434849  0.43617172  1
  Zn  Zn162  1  0.93726376  0.69135886  0.93710214  1
  Zn  Zn163  1  0.06246855  0.30643786  0.06133305  1
  Zn  Zn164  1  0.06734576  0.31504248  0.56389087  1
  Zn  Zn165  1  0.06049196  0.81250088  0.05870789  1
  Zn  Zn166  1  0.06401545  0.81297198  0.56076623  1
  Zn  Zn167  1  0.56921256  0.31336207  0.05537807  1
  Zn  Zn168  1  0.56045489  0.30711659  0.56321056  1
  Zn  Zn169  1  0.56727453  0.80730611  0.06477229  1
  Zn  Zn170  1  0.56206454  0.80995885  0.56115191  1
  O  O171  1  0.12241313  0.11242667  0.12401329  1
  O  O172  1  0.11991161  0.11515497  0.62116183  1
  O  O173  1  0.11404503  0.62199673  0.11301895  1
  O  O174  1  0.11142854  0.63699026  0.61421030  1
  O  O175  1  0.60797923  0.14488467  0.12947490  1
  O  O176  1  0.61216520  0.12610722  0.62074130  1
  O  O177  1  0.61385920  0.62327245  0.11415434  1
  O  O178  1  0.62301362  0.61753802  0.61720221  1
  O  O179  1  0.36520104  0.37701931  0.38970495  1
  O  O180  1  0.38045133  0.38019264  0.87883070  1
  O  O181  1  0.37418627  0.89210060  0.35232789  1
  O  O182  1  0.38435006  0.87120836  0.87225944  1
  O  O183  1  0.86832358  0.38887231  0.38729127  1
  O  O184  1  0.89452310  0.38944458  0.85658128  1
  O  O185  1  0.88127629  0.87689170  0.37828122  1
  O  O186  1  0.88382910  0.87570393  0.88225869  1
  O  O187  1  0.25358181  0.00489908  0.37141110  1
  O  O188  1  0.25770551  -0.00458600  0.86708342  1
  O  O189  1  0.21927322  0.47670091  0.34761044  1
  O  O190  1  0.26546679  0.50505642  0.87896311  1
  O  O191  1  0.75070669  -0.00055172  0.36538260  1
  O  O192  1  0.75086764  0.00215498  0.86142858  1
  O  O193  1  0.75894636  0.51006300  0.37777878  1
  O  O194  1  0.76301045  0.51577561  0.87580474  1
  O  O195  1  0.23966116  0.48427593  0.12145273  1
  O  O196  1  0.26406377  0.49063871  0.61906689  1
  O  O197  1  0.23905590  0.99288619  0.12757130  1
  O  O198  1  0.24490162  0.99149103  0.62861326  1
  O  O199  1  0.73491637  0.51343242  0.12101928  1
  O  O200  1  0.73843401  0.49393170  0.62028847  1
  O  O201  1  0.76193939  0.98620144  0.14144551  1
  O  O202  1  0.74712077  0.99110656  0.63451965  1
  O  O203  1  0.02525546  0.36816776  0.25833290  1
  O  O204  1  0.01264434  0.37253443  0.75249677  1
  O  O205  1  0.00915464  0.88279805  0.25820820  1
  O  O206  1  -0.00758855  0.86732367  0.75741622  1
  O  O207  1  0.51730726  0.35303282  0.23883125  1
  O  O208  1  0.50593300  0.38272186  0.75493018  1
  O  O209  1  0.51318680  0.85846380  0.24998473  1
  O  O210  1  0.50307693  0.86777466  0.75507494  1
  O  O211  1  0.48343178  0.12662097  0.24918394  1
  O  O212  1  0.50049521  0.11575777  0.73290066  1
  O  O213  1  0.50467423  0.63505582  0.23797825  1
  O  O214  1  0.49127084  0.62838100  0.74056921  1
  O  O215  1  0.99333363  0.13392818  0.25032671  1
  O  O216  1  0.99319159  0.12898372  0.74272175  1
  O  O217  1  1.00273109  0.61575620  0.22639309  1
  O  O218  1  0.98996413  0.63601428  0.74166722  1
  O  O219  1  0.36205502  0.25351381  -0.00705333  1
  O  O220  1  0.37489522  0.25967347  0.50685471  1
  O  O221  1  0.36808227  0.74694323  0.01043435  1
  O  O222  1  0.38776016  0.74937833  0.50956728  1
  O  O223  1  0.88670882  0.25752906  0.01181689  1
  O  O224  1  0.87584561  0.25743046  0.50731950  1
  O  O225  1  0.87629690  0.76432453  0.00507011  1
  O  O226  1  0.87243258  0.75012529  0.51144167  1
  O  O227  1  0.12710713  0.23990403  0.49704305  1
  O  O228  1  0.13275989  0.25093933  0.98718638  1
  O  O229  1  0.12149239  0.74500949  0.48764779  1
  O  O230  1  0.12873049  0.74606920  0.99047090  1
  O  O231  1  0.62601335  0.24031881  0.49635273  1
  O  O232  1  0.62758688  0.25424714  0.97501671  1
  O  O233  1  0.62343055  0.73992293  0.49081468  1
  O  O234  1  0.62587448  0.74197598  0.98976735  1
  O  O235  1  0.48003124  0.26506754  0.10106817  1
  O  O236  1  0.48780648  0.23732253  0.62400327  1
  O  O237  1  0.49285570  0.74191524  0.12790993  1
  O  O238  1  0.49497715  0.74315763  0.62917737  1
  O  O239  1  1.00158114  0.25070330  0.13999328  1
  O  O240  1  0.99775889  0.24476602  0.63029699  1
  O  O241  1  0.99518549  0.74208072  0.12471035  1
  O  O242  1  0.99151353  0.74803003  0.62945364  1
  O  O243  1  0.01404012  0.24305753  0.37183535  1
  O  O244  1  0.00764371  0.26123174  0.86813759  1
  O  O245  1  0.00517477  0.76164096  0.37837358  1
  O  O246  1  0.00322641  0.75781382  0.86467308  1
  O  O247  1  0.51483519  0.24190539  0.38259572  1
  O  O248  1  0.50975073  0.26184886  0.86826430  1
  O  O249  1  0.50621390  0.73704948  0.36439354  1
  O  O250  1  0.50380882  0.75339040  0.86771824  1
  O  O251  1  0.24436218  0.12225468  0.49325525  1
  O  O252  1  0.24288464  0.13422789  0.99085795  1
  O  O253  1  0.23047355  0.63255694  0.52040611  1
  O  O254  1  0.23466762  0.63748660  0.98652482  1
  O  O255  1  0.73455911  0.12140878  0.50446166  1
  O  O256  1  0.74973464  0.14292514  0.99482533  1
  O  O257  1  0.73730083  0.62596486  0.49525908  1
  O  O258  1  0.74211649  0.63148899  0.98770980  1
  O  O259  1  0.26017531  0.36683174  0.00352056  1
  O  O260  1  0.26222217  0.37153824  0.51437655  1
  O  O261  1  0.23928383  0.86823498  0.01156416  1
  O  O262  1  0.25162944  0.88239651  0.51287548  1
  O  O263  1  0.76119874  0.36233068  -0.04882830  1
  O  O264  1  0.76345074  0.37516786  0.51497739  1
  O  O265  1  0.75693955  0.87282181  0.00721996  1
  O  O266  1  0.74838283  0.87424274  0.51186769  1
  O  O267  1  0.11246313  0.49443964  0.23290749  1
  O  O268  1  0.12402213  0.49132107  0.75241462  1
  O  O269  1  0.12789764  0.99343445  0.24368196  1
  O  O270  1  0.12609406  0.99812192  0.73862636  1
  O  O271  1  0.61944665  0.50138126  0.22879717  1
  O  O272  1  0.62239129  0.49045581  0.73772722  1
  O  O273  1  0.62926086  0.99048330  0.25510953  1
  O  O274  1  0.63118123  0.99330023  0.74809836  1
  O  O275  1  0.36541515  0.01516015  0.25722823  1
  O  O276  1  0.36672610  -0.00542620  0.76008215  1
  O  O277  1  0.38046985  0.50039875  0.24278819  1
  O  O278  1  0.38102399  0.51019424  0.75490292  1
  O  O279  1  0.86758276  0.00793105  0.25601770  1
  O  O280  1  0.86672902  0.00921128  0.74952572  1
  O  O281  1  0.87882727  0.49737222  0.26665354  1
  O  O282  1  0.87893871  0.51434056  0.75756718  1
  O  O283  1  0.12994809  0.36056634  0.38309971  1
  O  O284  1  0.12003757  0.37198493  0.86713790  1
  O  O285  1  0.11910439  0.86719253  0.36966092  1
  O  O286  1  0.11023316  0.87026159  0.87797588  1
  O  O287  1  0.62414030  0.35964918  0.38434954  1
  O  O288  1  0.61498102  0.37297659  0.86191744  1
  O  O289  1  0.62937351  0.85940555  0.36858761  1
  O  O290  1  0.61602003  0.87069178  0.87044583  1
  O  O291  1  0.37084516  0.12256727  0.13133342  1
  O  O292  1  0.38397113  0.13587823  0.62042618  1
  O  O293  1  0.38832919  0.63162765  0.11881603  1
  O  O294  1  0.37981876  0.63068529  0.62532091  1
  O  O295  1  0.87625796  0.12243888  0.14137169  1
  O  O296  1  0.88124397  0.12947543  0.63220042  1
  O  O297  1  0.88810789  0.63776924  0.11451815  1
  O  O298  1  0.87742740  0.63143015  0.62925926  1
  O  O299  1  0.23971938  0.26034450  0.11187983  1
  O  O300  1  0.26391286  0.24688119  0.62471124  1
  O  O301  1  0.25626753  0.75728239  0.11831078  1
  O  O302  1  0.25858506  0.76467155  0.62710079  1
  O  O303  1  0.76143718  0.26235782  0.12796436  1
  O  O304  1  0.75763235  0.25861164  0.62355447  1
  O  O305  1  0.75805770  0.75956442  0.12368234  1
  O  O306  1  0.75640331  0.75778693  0.62383841  1
  O  O307  1  0.24099827  0.23885405  0.38040831  1
  O  O308  1  0.24209093  0.25062239  0.87780978  1
  O  O309  1  0.23814015  0.75718860  0.37727539  1
  O  O310  1  0.24467335  0.74788477  0.87381220  1
  O  O311  1  0.73852023  0.24649967  0.38236996  1
  O  O312  1  0.73023364  0.24009684  0.84948836  1
  O  O313  1  0.74148583  0.73985659  0.37594692  1
  O  O314  1  0.74472585  0.74092322  0.87274080  1
  O  O315  1  0.00071111  0.11200450  0.00013321  1
  O  O316  1  0.00473042  0.11653153  0.50537771  1
  O  O317  1  0.01229010  0.63278576  0.00217481  1
  O  O318  1  0.00665889  0.62472300  0.50842972  1
  O  O319  1  0.51523579  0.09558201  0.00437128  1
  O  O320  1  0.50825964  0.11644774  0.50955297  1
  O  O321  1  0.50311550  0.61735955  0.00128276  1
  O  O322  1  0.51309067  0.61462062  0.50356719  1
  O  O323  1  0.49076265  0.37541875  0.50136634  1
  O  O324  1  0.49636856  0.38213084  0.98525633  1
  O  O325  1  0.50509706  0.89158843  0.50452674  1
  O  O326  1  0.49874975  0.86964472  0.99254501  1
  O  O327  1  0.98779505  0.37939202  0.51190605  1
  O  O328  1  1.00293213  0.38298265  0.99228746  1
  O  O329  1  0.99764600  0.88135715  0.49291006  1
  O  O330  1  0.99307477  0.88466165  0.99361101  1
  O  O331  1  0.50426189  0.50266927  0.38513122  1
  O  O332  1  0.49029893  0.49600292  0.87776250  1
  O  O333  1  0.49087055  1.00589659  0.38818315  1
  O  O334  1  0.48923301  0.98524772  0.87071522  1
  O  O335  1  0.98433790  0.50421832  0.37474858  1
  O  O336  1  0.98988479  0.50028937  0.87421448  1
  O  O337  1  1.00205196  0.98984204  0.38476799  1
  O  O338  1  0.99806601  0.99361643  0.88098533  1
  O  O339  1  0.00525967  -0.00060860  0.11730613  1
  O  O340  1  0.00744984  0.00056647  0.61967845  1
  O  O341  1  0.00305759  0.50864591  0.11198014  1
  O  O342  1  -0.00379875  0.51448421  0.62577543  1
  O  O343  1  0.48384831  -0.02783990  0.12679242  1
  O  O344  1  0.49598709  0.00947237  0.61477570  1
  O  O345  1  0.50894364  0.50626574  0.11248378  1
  O  O346  1  0.51312979  0.50378724  0.61545631  1
  O  O347  1  0.24037890  0.35993844  0.23896416  1
  O  O348  1  0.24658699  0.37724520  0.73649490  1
  O  O349  1  0.23923438  0.87984433  0.23667606  1
  O  O350  1  0.24763359  0.88721059  0.73689186  1
  O  O351  1  0.73879813  0.38570829  0.25845641  1
  O  O352  1  0.74181094  0.37588217  0.73887598  1
  O  O353  1  0.73895015  0.88069155  0.24569957  1
  O  O354  1  0.74650845  0.88057058  0.74189533  1
  O  O355  1  0.25531995  0.11935236  0.25618522  1
  O  O356  1  0.24304402  0.10425255  0.75057983  1
  O  O357  1  0.24410208  0.62305407  0.24012828  1
  O  O358  1  0.25972591  0.62980314  0.75144634  1
  O  O359  1  0.75669456  0.11641077  0.25221986  1
  O  O360  1  0.75781201  0.11681966  0.74450517  1
  O  O361  1  0.74604513  0.61855568  0.25776134  1
  O  O362  1  0.76150868  0.63167974  0.75386528  1
  O  O363  1  0.36370912  0.11805003  0.37478792  1
  O  O364  1  0.37483909  0.10922692  0.87757586  1
  O  O365  1  0.35515242  0.59828118  0.41786353  1
  O  O366  1  0.36992683  0.61793333  0.86390092  1
  O  O367  1  0.87151600  0.12289153  0.36475612  1
  O  O368  1  0.87604862  0.12440345  0.86139087  1
  O  O369  1  0.86509596  0.61318335  0.38280652  1
  O  O370  1  0.87078472  0.62407566  0.86695616  1
  O  O371  1  0.13154706  0.38484826  0.11623203  1
  O  O372  1  0.14515737  0.37472961  0.62935974  1
  O  O373  1  0.12588780  0.88089846  0.13153714  1
  O  O374  1  0.13729589  0.88088379  0.62007102  1
  O  O375  1  0.63028615  0.39366951  0.11034204  1
  O  O376  1  0.63072180  0.37932341  0.62727169  1
  O  O377  1  0.63468583  0.86738442  0.13583137  1
  O  O378  1  0.63149162  0.87433502  0.63247391  1
  O  O379  1  0.11979379  0.24591782  0.26337926  1
  O  O380  1  0.12271677  0.25880781  0.75464708  1
  O  O381  1  0.12555054  0.76033977  0.26292052  1
  O  O382  1  0.11209856  0.74630146  0.75177963  1
  O  O383  1  0.62464200  0.24198400  0.26826006  1
  O  O384  1  0.61870820  0.26473627  0.75116889  1
  O  O385  1  0.61870220  0.75367673  0.25635846  1
  O  O386  1  0.61711623  0.75411836  0.75395430  1
  O  O387  1  0.36998042  0.23166661  0.25123152  1
  O  O388  1  0.37264506  0.24848463  0.74025229  1
  O  O389  1  0.38357919  0.75604227  0.23405478  1
  O  O390  1  0.38056316  0.74000292  0.74003331  1
  O  O391  1  0.88823127  0.24892204  0.25388999  1
  O  O392  1  0.88385988  0.24224694  0.74194701  1
  O  O393  1  0.87297064  0.75590887  0.23985103  1
  O  O394  1  0.88193789  0.74513676  0.73880437  1
  O  O395  1  0.39166546  0.47625058  0.51533903  1
  O  O396  1  0.38857560  0.48902279  0.99064275  1
  O  O397  1  0.38624533  1.00148449  0.49271303  1
  O  O398  1  0.36360670  0.99220817  0.99223694  1
  O  O399  1  0.88034004  0.49372200  0.49385465  1
  O  O400  1  0.87683994  0.50093155  0.99413451  1
  O  O401  1  0.88736813  0.99951504  0.50130327  1
  O  O402  1  0.87895181  0.99095972  0.99979235  1
  O  O403  1  0.11536973  -0.00002220  0.00798291  1
  O  O404  1  0.11461947  0.00295488  0.50875297  1
  O  O405  1  0.12954122  0.51026975  0.00533533  1
  O  O406  1  0.12353272  0.51957225  0.49620733  1
  O  O407  1  0.65380039  0.00839706  0.02447986  1
  O  O408  1  0.61317440  0.00579971  0.50234861  1
  O  O409  1  0.61599446  0.50705106  0.00016563  1
  O  O410  1  0.62170647  0.50261619  0.50373216  1
  O  O411  1  0.36483164  0.38156691  0.11332541  1
  O  O412  1  0.36822993  0.36150691  0.62474176  1
  O  O413  1  0.36660571  0.87142852  0.11973078  1
  O  O414  1  0.36374204  0.86757439  0.62710538  1
  O  O415  1  0.89249843  0.39353879  0.12078578  1
  O  O416  1  0.86934717  0.37164101  0.62494611  1
  O  O417  1  0.86991949  0.86901931  0.11872806  1
  O  O418  1  0.86557745  0.86728480  0.62361730  1
  O  O419  1  0.13508887  0.12547392  0.38134135  1
  O  O420  1  0.12288971  0.14019618  0.87235525  1
  O  O421  1  0.12259586  0.64136593  0.38776209  1
  O  O422  1  0.12756974  0.63164208  0.87591716  1
  O  O423  1  0.62615844  0.12966263  0.38584424  1
  O  O424  1  0.62148315  0.13793725  0.86722059  1
  O  O425  1  0.63233662  0.62979632  0.37881449  1
  O  O426  1  0.63158597  0.62697320  0.87374470  1
