# generated using pymatgen
data_V85Zn86O256
_symmetry_space_group_name_H-M   'P 1'
_cell_length_a   16.92157893
_cell_length_b   16.92926198
_cell_length_c   16.92160551
_cell_angle_alpha   89.98450380
_cell_angle_beta   90.01569678
_cell_angle_gamma   90.00573325
_symmetry_Int_Tables_number   1
_chemical_formula_structural   V85Zn86O256
_chemical_formula_sum   'V85 Zn86 O256'
_cell_volume   4847.52928991
_cell_formula_units_Z   1
loop_
 _symmetry_equiv_pos_site_id
 _symmetry_equiv_pos_as_xyz
  1  'x, y, z'
loop_
 _atom_site_type_symbol
 _atom_site_label
 _atom_site_symmetry_multiplicity
 _atom_site_fract_x
 _atom_site_fract_y
 _atom_site_fract_z
 _atom_site_occupancy
  V  V0  1  0.12588199  0.62609126  0.49946798  1
  V  V1  1  0.62281593  0.62131999  0.49968872  1
  V  V2  1  0.75787424  0.87554088  0.11986909  1
  V  V3  1  0.87521586  0.75312203  0.62547604  1
  V  V4  1  0.12057048  0.24804373  0.86767185  1
  V  V5  1  0.38004562  0.38757734  -0.00660895  1
  V  V6  1  0.75375209  0.49573803  0.24767892  1
  V  V7  1  0.25283601  0.37682753  0.12325889  1
  V  V8  1  -0.00062463  0.62550739  0.62494570  1
  V  V9  1  0.36644451  0.00314319  0.36157306  1
  V  V10  1  0.24935689  0.75580101  0.50304656  1
  V  V11  1  0.87302657  -0.00410674  0.87757239  1
  V  V12  1  0.87673237  0.12901253  0.75054195  1
  V  V13  1  0.12654500  0.49841075  0.62644294  1
  V  V14  1  0.75617748  0.75224677  -0.00325008  1
  V  V15  1  0.37719274  -0.00379901  0.89668272  1
  V  V16  1  0.12592441  0.50002636  0.12465995  1
  V  V17  1  0.14244152  0.12859192  0.50018965  1
  V  V18  1  0.62146345  0.10716465  0.50371760  1
  V  V19  1  0.36962658  0.75459968  0.62981024  1
  V  V20  1  0.87278331  0.62483918  0.74901284  1
  V  V21  1  0.37466171  0.75804913  0.12180767  1
  V  V22  1  0.12492671  0.37785099  0.25128706  1
  V  V23  1  0.87593734  0.87586214  0.50280320  1
  V  V24  1  0.50143937  0.88194205  0.37685806  1
  V  V25  1  0.62678597  0.49467987  0.11906843  1
  V  V26  1  0.87607451  -0.00047929  0.37626786  1
  V  V27  1  0.25656502  -0.00490910  0.75096821  1
  V  V28  1  0.50348016  0.87911191  0.88885493  1
  V  V29  1  0.62271986  0.62512694  -0.00413666  1
  V  V30  1  -0.00635199  0.49985751  0.49705021  1
  V  V31  1  0.50840987  0.76044573  0.74709708  1
  V  V32  1  0.37422336  0.12975432  0.74178829  1
  V  V33  1  0.25576382  0.49920802  0.25846784  1
  V  V34  1  0.12820049  0.75612933  0.37054526  1
  V  V35  1  0.25198104  0.12404685  0.87853560  1
  V  V36  1  0.12708095  0.62322965  -0.00286325  1
  V  V37  1  0.50304712  0.25296885  0.74562592  1
  V  V38  1  0.87004999  0.37520222  0.00644734  1
  V  V39  1  0.73528711  -0.00154820  0.74654865  1
  V  V40  1  0.26145161  0.61941691  0.87686379  1
  V  V41  1  0.75031030  0.74822185  0.50012304  1
  V  V42  1  0.25954146  0.49919708  0.75015879  1
  V  V43  1  0.17919942  0.92941801  0.19054406  1
  V  V44  1  0.49984946  0.24128102  0.24862717  1
  V  V45  1  0.62279194  0.49423757  0.62835342  1
  V  V46  1  0.25386721  0.75922589  0.00151352  1
  V  V47  1  -0.00373380  0.37859966  0.37560964  1
  V  V48  1  0.37701959  0.87934998  0.50110627  1
  V  V49  1  0.87209366  0.49927527  0.87308927  1
  V  V50  1  0.37608202  0.24161490  0.12575128  1
  V  V51  1  -0.00061084  0.87391323  0.87920582  1
  V  V52  1  0.50311856  0.38715629  0.87040307  1
  V  V53  1  0.00274941  0.12804264  0.62910548  1
  V  V54  1  0.87471490  0.24884839  0.62206473  1
  V  V55  1  0.37756408  0.62088337  0.25614676  1
  V  V56  1  0.25132782  0.24959742  -0.00269155  1
  V  V57  1  0.37020880  0.35601825  0.49293330  1
  V  V58  1  -0.00079196  -0.00052663  0.00446940  1
  V  V59  1  0.61491273  0.12425563  -0.00081728  1
  V  V60  1  0.12895156  0.87394560  0.75153613  1
  V  V61  1  0.12369953  0.12386452  0.00728096  1
  V  V62  1  0.75071082  0.13208152  0.38132861  1
  V  V63  1  0.62654413  0.37314083  0.24670562  1
  V  V64  1  -0.00249440  0.36915918  0.86615440  1
  V  V65  1  0.49987059  0.61827583  0.12127686  1
  V  V66  1  0.25551103  0.36334195  0.62204337  1
  V  V67  1  0.00057560  0.25140469  0.25019250  1
  V  V68  1  0.87663200  0.62335662  0.25131694  1
  V  V69  1  0.87463070  0.12657242  0.24995561  1
  V  V70  1  0.62911511  0.87446367  0.24921778  1
  V  V71  1  0.74708026  0.12682545  0.87569922  1
  V  V72  1  0.00257426  0.75440015  0.24826924  1
  V  V73  1  0.74571258  0.36917794  0.63201031  1
  V  V74  1  0.74671237  0.25194169  0.00929988  1
  V  V75  1  -0.00035735  0.49836951  -0.00111377  1
  V  V76  1  0.13425626  -0.00536323  0.62511859  1
  V  V77  1  0.86663605  0.37193538  0.49726533  1
  V  V78  1  0.50171476  0.74734983  0.24961612  1
  V  V79  1  0.62542475  0.25392656  0.38654236  1
  V  V80  1  0.48537693  0.50168616  0.49523655  1
  V  V81  1  0.73480836  0.87897309  0.62787549  1
  V  V82  1  0.00166760  0.00148637  0.50307825  1
  V  V83  1  0.62062421  -0.00051679  0.11995017  1
  V  V84  1  0.75346147  0.61812019  0.37547998  1
  Zn  Zn85  1  0.49370572  0.11763739  0.12203716  1
  Zn  Zn86  1  0.13319278  0.25383462  0.38338207  1
  Zn  Zn87  1  -0.00131310  0.62547042  0.12376111  1
  Zn  Zn88  1  0.75073601  0.00101035  0.24914055  1
  Zn  Zn89  1  0.25828432  0.13333343  0.36347041  1
  Zn  Zn90  1  0.62515024  0.74949081  0.37476006  1
  Zn  Zn91  1  0.12316447  0.36925321  0.74540650  1
  Zn  Zn92  1  0.00498894  0.87819721  0.37253426  1
  Zn  Zn93  1  0.62885593  0.75669056  0.87066178  1
  Zn  Zn94  1  0.25536213  0.62282194  0.37852822  1
  Zn  Zn95  1  0.12680576  0.74849856  0.87368494  1
  Zn  Zn96  1  0.74252272  0.49639858  0.75163110  1
  Zn  Zn97  1  0.49288928  0.37871261  0.36962072  1
  Zn  Zn98  1  0.37836801  0.62666715  0.75255787  1
  Zn  Zn99  1  0.87121737  0.25417790  0.12841240  1
  Zn  Zn100  1  0.00154157  0.75094610  0.75160876  1
  Zn  Zn101  1  0.62544063  0.25772870  0.87177130  1
  Zn  Zn102  1  0.49800311  0.62528444  0.62805408  1
  Zn  Zn103  1  0.50798978  0.11885270  0.62495424  1
  Zn  Zn104  1  0.87731222  0.75149080  0.12243375  1
  Zn  Zn105  1  0.74748885  0.62717201  0.87243504  1
  Zn  Zn106  1  0.00019399  0.12211239  0.12845331  1
  Zn  Zn107  1  0.18484669  0.19277382  0.18846685  1
  Zn  Zn108  1  0.19073216  0.18198545  0.68878613  1
  Zn  Zn109  1  0.18931031  0.68984469  0.18565337  1
  Zn  Zn110  1  0.18953944  0.68781130  0.68855989  1
  Zn  Zn111  1  0.68556532  0.18550489  0.18941358  1
  Zn  Zn112  1  0.68670292  0.18781583  0.68578119  1
  Zn  Zn113  1  0.68882184  0.68665388  0.18464776  1
  Zn  Zn114  1  0.68680627  0.68659656  0.68479557  1
  Zn  Zn115  1  0.31074415  0.30580897  0.31240987  1
  Zn  Zn116  1  0.31499401  0.31409802  0.81109460  1
  Zn  Zn117  1  0.31280368  0.81184542  0.30994176  1
  Zn  Zn118  1  0.31554565  0.81414361  0.81939269  1
  Zn  Zn119  1  0.81066843  0.31361017  0.31410432  1
  Zn  Zn120  1  0.81206156  0.30924035  0.81299089  1
  Zn  Zn121  1  0.81415970  0.80921242  0.31330182  1
  Zn  Zn122  1  0.81160440  0.81492391  0.80988193  1
  Zn  Zn123  1  0.18725001  0.43544058  0.43983626  1
  Zn  Zn124  1  0.18818817  0.43528614  0.93346929  1
  Zn  Zn125  1  0.19256432  0.93870976  0.43502808  1
  Zn  Zn126  1  0.18621874  0.94018290  0.94213605  1
  Zn  Zn127  1  0.68422272  0.43792171  0.43785790  1
  Zn  Zn128  1  0.68664289  0.43808467  0.93752881  1
  Zn  Zn129  1  0.69265844  0.93635998  0.43550970  1
  Zn  Zn130  1  0.68548061  0.93772608  0.93753981  1
  Zn  Zn131  1  0.30718827  0.06120470  0.18333960  1
  Zn  Zn132  1  0.34340491  0.04626121  0.57764023  1
  Zn  Zn133  1  0.31246067  0.56583670  0.06759016  1
  Zn  Zn134  1  0.31107559  0.56794459  0.56758650  1
  Zn  Zn135  1  0.81013628  0.06232041  0.06232026  1
  Zn  Zn136  1  0.80837241  0.06336191  0.56268865  1
  Zn  Zn137  1  0.80891911  0.56433215  0.06350223  1
  Zn  Zn138  1  0.81085885  0.55781292  0.56478083  1
  Zn  Zn139  1  0.43927916  0.43404434  0.18407850  1
  Zn  Zn140  1  0.43696141  0.43404279  0.68263613  1
  Zn  Zn141  1  0.44305146  0.93402437  0.18622291  1
  Zn  Zn142  1  0.44226440  0.93807344  0.68812464  1
  Zn  Zn143  1  0.93686114  0.44075954  0.18679537  1
  Zn  Zn144  1  0.93543034  0.43719550  0.68605713  1
  Zn  Zn145  1  0.94191133  0.93790715  0.18978183  1
  Zn  Zn146  1  0.93735818  0.94072216  0.69136659  1
  Zn  Zn147  1  0.06765436  0.06291398  0.31352203  1
  Zn  Zn148  1  0.06335252  0.06139585  0.81430733  1
  Zn  Zn149  1  0.06403514  0.56575056  0.31472763  1
  Zn  Zn150  1  0.06313026  0.56033485  0.81198806  1
  Zn  Zn151  1  0.56415284  0.06032241  0.31395746  1
  Zn  Zn152  1  0.55711346  0.06325642  0.81521775  1
  Zn  Zn153  1  0.56417634  0.55898913  0.31325611  1
  Zn  Zn154  1  0.55947487  0.56845297  0.81011429  1
  Zn  Zn155  1  0.44311003  0.18369722  0.43376417  1
  Zn  Zn156  1  0.43619924  0.19252662  0.92975613  1
  Zn  Zn157  1  0.43840555  0.69179125  0.43709050  1
  Zn  Zn158  1  0.44002054  0.69084393  0.93630868  1
  Zn  Zn159  1  0.94280332  0.18921996  0.43910821  1
  Zn  Zn160  1  0.93525139  0.18767930  0.93898273  1
  Zn  Zn161  1  0.93788104  0.68719652  0.43354017  1
  Zn  Zn162  1  0.93796524  0.68712356  0.93591424  1
  Zn  Zn163  1  0.06029289  0.31204554  0.06105985  1
  Zn  Zn164  1  0.06063173  0.31029221  0.56448386  1
  Zn  Zn165  1  0.06195427  0.80938530  0.05948206  1
  Zn  Zn166  1  0.06294365  0.81441139  0.56292723  1
  Zn  Zn167  1  0.55918476  0.31310533  0.05897824  1
  Zn  Zn168  1  0.55553254  0.31303330  0.56434064  1
  Zn  Zn169  1  0.56691945  0.80753263  0.06359717  1
  Zn  Zn170  1  0.56023363  0.81132847  0.55967565  1
  O  O171  1  0.11845995  0.13739763  0.11023147  1
  O  O172  1  0.12043005  0.11617281  0.62017144  1
  O  O173  1  0.12606524  0.61791254  0.11226573  1
  O  O174  1  0.11990674  0.61832011  0.61989921  1
  O  O175  1  0.62555661  0.11673398  0.11667966  1
  O  O176  1  0.62909772  0.12532612  0.60763079  1
  O  O177  1  0.61876654  0.61752527  0.11896819  1
  O  O178  1  0.62428095  0.61806183  0.61217489  1
  O  O179  1  0.37326786  0.37444019  0.38979608  1
  O  O180  1  0.38228855  0.37336995  0.88661746  1
  O  O181  1  0.38254281  0.88109088  0.37583443  1
  O  O182  1  0.38407118  0.88848706  0.87660120  1
  O  O183  1  0.88617336  0.37061304  0.38296688  1
  O  O184  1  0.87977933  0.38006685  0.88028284  1
  O  O185  1  0.87464724  0.88416124  0.38249841  1
  O  O186  1  0.88459735  0.88584480  0.86702793  1
  O  O187  1  0.26330921  0.00200012  0.36924227  1
  O  O188  1  0.26028774  0.00281675  0.87380525  1
  O  O189  1  0.24319241  0.50239155  0.36230814  1
  O  O190  1  0.24394065  0.50604581  0.86223811  1
  O  O191  1  0.76313914  0.00767326  0.37377661  1
  O  O192  1  0.75606468  0.00530582  0.86889077  1
  O  O193  1  0.74347835  0.51089951  0.36634550  1
  O  O194  1  0.76076737  0.50039618  0.87131441  1
  O  O195  1  0.24398214  0.49507791  0.13323717  1
  O  O196  1  0.24209554  0.49448653  0.62971524  1
  O  O197  1  0.24023772  0.98729079  0.13133850  1
  O  O198  1  0.24450871  1.00195918  0.63680521  1
  O  O199  1  0.73919684  0.50428084  0.13601094  1
  O  O200  1  0.74142524  0.48884629  0.62605565  1
  O  O201  1  0.74182845  0.99260289  0.12691992  1
  O  O202  1  0.75651052  0.99064998  0.63499675  1
  O  O203  1  0.00130916  0.37282839  0.25796436  1
  O  O204  1  0.00056251  0.37858038  0.76194175  1
  O  O205  1  -0.00756075  0.85852994  0.25433968  1
  O  O206  1  0.01150015  0.87851441  0.75996731  1
  O  O207  1  0.51220310  0.37058659  0.25042273  1
  O  O208  1  0.49087520  0.36415768  0.75864324  1
  O  O209  1  0.51368257  0.86837078  0.25423710  1
  O  O210  1  0.49604868  0.86507196  0.75777617  1
  O  O211  1  0.50825492  0.13787208  0.24638707  1
  O  O212  1  0.49156939  0.13296351  0.74859525  1
  O  O213  1  0.49691301  0.62650816  0.24381912  1
  O  O214  1  0.49574910  0.64283410  0.74945543  1
  O  O215  1  0.99374218  0.13466396  0.25181244  1
  O  O216  1  0.99328289  0.11690524  0.73813216  1
  O  O217  1  0.99123103  0.62997569  0.25030453  1
  O  O218  1  0.98950847  0.62440749  0.74440830  1
  O  O219  1  0.36704409  0.25624726  0.00405062  1
  O  O220  1  0.38023398  0.25815314  0.49819445  1
  O  O221  1  0.36241370  0.74250466  0.00616165  1
  O  O222  1  0.36768310  0.75635931  0.50455706  1
  O  O223  1  0.86672608  0.25783070  0.00200088  1
  O  O224  1  0.88029762  0.25931898  0.50859138  1
  O  O225  1  0.86130041  0.74145317  0.00278868  1
  O  O226  1  0.87009971  0.75389993  0.50493671  1
  O  O227  1  0.12068972  0.23190266  0.50457394  1
  O  O228  1  0.13085084  0.24851578  0.98993526  1
  O  O229  1  0.13174961  0.74566988  0.49761784  1
  O  O230  1  0.13619051  0.73927734  0.99851786  1
  O  O231  1  0.62022945  0.25189578  0.48805979  1
  O  O232  1  0.63178609  0.24412570  0.99746297  1
  O  O233  1  0.63128140  0.73872995  0.49899703  1
  O  O234  1  0.63628006  0.74169960  0.99758624  1
  O  O235  1  0.49285465  0.24838508  0.12945816  1
  O  O236  1  0.49987555  0.24681741  0.64065113  1
  O  O237  1  0.49725500  0.73762602  0.12997560  1
  O  O238  1  0.49412337  0.75194962  0.63548818  1
  O  O239  1  0.99478167  0.25210849  0.13847493  1
  O  O240  1  0.98873288  0.24137224  0.62598227  1
  O  O241  1  0.99710835  0.74517420  0.13185667  1
  O  O242  1  0.99376329  0.74278128  0.62594981  1
  O  O243  1  0.00475648  0.25789114  0.36594063  1
  O  O244  1  0.00683204  0.25781119  0.88002003  1
  O  O245  1  0.00875231  0.75056029  0.36798511  1
  O  O246  1  0.00259372  0.75964748  0.87359367  1
  O  O247  1  0.50726323  0.25402161  0.36529196  1
  O  O248  1  0.50419016  0.25999519  0.86542215  1
  O  O249  1  0.50231228  0.75985918  0.36642874  1
  O  O250  1  0.49929064  0.76300116  0.86509831  1
  O  O251  1  0.24024674  0.11838331  0.50484139  1
  O  O252  1  0.24078923  0.14045361  0.99501017  1
  O  O253  1  0.24399666  0.63414067  0.49901464  1
  O  O254  1  0.24409250  0.62502882  0.99312728  1
  O  O255  1  0.74048082  0.12225235  0.48884399  1
  O  O256  1  0.74525459  0.13305618  0.99213801  1
  O  O257  1  0.74482406  0.62455098  0.49363422  1
  O  O258  1  0.73966249  0.63194374  0.99831322  1
  O  O259  1  0.25823756  0.36730871  0.00005408  1
  O  O260  1  0.26046856  0.37880153  0.50998220  1
  O  O261  1  0.24683492  0.85728163  -0.00670139  1
  O  O262  1  0.25780858  0.86235729  0.49548132  1
  O  O263  1  0.75808019  0.36437475  -0.00828374  1
  O  O264  1  0.76314838  0.38208485  0.50559948  1
  O  O265  1  0.74549592  0.86650612  0.00810594  1
  O  O266  1  0.75736033  0.86973667  0.50649035  1
  O  O267  1  0.13055325  0.49672963  0.24414076  1
  O  O268  1  0.13018605  0.49811980  0.73731189  1
  O  O269  1  0.11327442  0.98815806  0.24535309  1
  O  O270  1  0.13554084  0.99557191  0.74588281  1
  O  O271  1  0.63202777  0.49289078  0.24290013  1
  O  O272  1  0.62338113  0.50812230  0.73278527  1
  O  O273  1  0.62961356  0.99132591  0.24426146  1
  O  O274  1  0.63603631  1.00839302  0.75120687  1
  O  O275  1  0.37838605  -0.00224119  0.25699384  1
  O  O276  1  0.36381517  0.00572961  0.75654141  1
  O  O277  1  0.36709710  0.50577715  0.24282591  1
  O  O278  1  0.36289120  0.50415505  0.73986365  1
  O  O279  1  0.87646213  0.00853708  0.25943474  1
  O  O280  1  0.86979878  0.01166199  0.75945688  1
  O  O281  1  0.86196268  0.50414022  0.24751067  1
  O  O282  1  0.87309861  0.50686690  0.75611811  1
  O  O283  1  0.11334999  0.37537483  0.37174877  1
  O  O284  1  0.11530672  0.36684061  0.87248105  1
  O  O285  1  0.12307546  0.86029951  0.38440436  1
  O  O286  1  0.11776394  0.87506813  0.86844887  1
  O  O287  1  0.62307927  0.36836768  0.36745424  1
  O  O288  1  0.60823341  0.37720496  0.87870917  1
  O  O289  1  0.62109431  0.87419098  0.36765132  1
  O  O290  1  0.60888866  0.87740838  0.87533177  1
  O  O291  1  0.37590732  0.13771241  0.12296399  1
  O  O292  1  0.35321876  0.14121166  0.64430080  1
  O  O293  1  0.38471749  0.62940054  0.13266755  1
  O  O294  1  0.37785416  0.64082011  0.62722713  1
  O  O295  1  0.87412975  0.12558006  0.14017747  1
  O  O296  1  0.88043997  0.12948859  0.63003056  1
  O  O297  1  0.87470875  0.62466621  0.13874168  1
  O  O298  1  0.87824398  0.62989379  0.63044903  1
  O  O299  1  0.25622281  0.25942317  0.11603784  1
  O  O300  1  0.24189687  0.26590941  0.62873749  1
  O  O301  1  0.25962437  0.74166779  0.11037442  1
  O  O302  1  0.25667244  0.74831139  0.61658104  1
  O  O303  1  0.75089462  0.24640252  0.11360601  1
  O  O304  1  0.76286629  0.25475756  0.62692657  1
  O  O305  1  0.75084081  0.75830184  0.11709500  1
  O  O306  1  0.75568913  0.75761366  0.61991062  1
  O  O307  1  0.24612146  0.24648630  0.37901088  1
  O  O308  1  0.24353373  0.24768511  0.88067905  1
  O  O309  1  0.24426776  0.74519842  0.38203241  1
  O  O310  1  0.24991814  0.73962232  0.88538075  1
  O  O311  1  0.74012916  0.24235074  0.37195115  1
  O  O312  1  0.74631774  0.24132669  0.88098211  1
  O  O313  1  0.74883713  0.73715333  0.38161088  1
  O  O314  1  0.74819723  0.75048292  0.88073451  1
  O  O315  1  0.00556809  0.11872382  0.00006080  1
  O  O316  1  0.00299364  0.11772994  0.51285038  1
  O  O317  1  0.00851784  0.61732291  -0.00108194  1
  O  O318  1  0.00329425  0.61725251  0.50410884  1
  O  O319  1  0.51216768  0.13242928  -0.00148637  1
  O  O320  1  0.51903052  0.12760378  0.49892708  1
  O  O321  1  0.51203603  0.63106781  0.00667060  1
  O  O322  1  0.50546525  0.61737859  0.50044680  1
  O  O323  1  0.48267593  0.38352115  0.50184170  1
  O  O324  1  0.48819419  0.37386590  0.98678625  1
  O  O325  1  0.49071535  0.86719106  0.48781324  1
  O  O326  1  0.50124589  0.86664133  0.98766772  1
  O  O327  1  0.99360196  0.38072447  0.49469059  1
  O  O328  1  0.99159912  0.38004634  0.98997651  1
  O  O329  1  0.99319391  0.88366480  0.49917795  1
  O  O330  1  1.00446505  0.88263567  0.98770686  1
  O  O331  1  0.50582157  0.49618730  0.39115939  1
  O  O332  1  0.49739381  0.48625972  0.86284536  1
  O  O333  1  0.49138563  0.98729167  0.36810107  1
  O  O334  1  0.48926307  0.98972823  0.87443844  1
  O  O335  1  1.00451691  0.49269862  0.38581163  1
  O  O336  1  0.98953205  0.49339938  0.87888781  1
  O  O337  1  0.98978380  1.00153771  0.38285576  1
  O  O338  1  0.99205283  0.99533209  0.88141996  1
  O  O339  1  -0.00947319  0.00137716  0.10856272  1
  O  O340  1  0.00911620  0.00655314  0.62177872  1
  O  O341  1  0.00833593  0.50150269  0.11761030  1
  O  O342  1  0.00676394  0.50384704  0.61876587  1
  O  O343  1  0.51486562  0.00073948  0.12705650  1
  O  O344  1  0.45314047  0.02025971  0.61639434  1
  O  O345  1  0.50892800  0.51126652  0.12832397  1
  O  O346  1  0.50466366  0.50103891  0.61438806  1
  O  O347  1  0.24613966  0.38217692  0.24372044  1
  O  O348  1  0.24946648  0.38125583  0.73892177  1
  O  O349  1  0.23760150  0.86905499  0.25014742  1
  O  O350  1  0.23894509  0.88177206  0.75956696  1
  O  O351  1  0.73898036  0.38274024  0.25402098  1
  O  O352  1  0.75461240  0.37556064  0.73655942  1
  O  O353  1  0.74094862  0.87338217  0.24568677  1
  O  O354  1  0.75211371  0.88547075  0.74012742  1
  O  O355  1  0.25048069  0.13056069  0.24971558  1
  O  O356  1  0.25193305  0.11569943  0.76177221  1
  O  O357  1  0.26018738  0.61656935  0.24872538  1
  O  O358  1  0.25040857  0.61769271  0.75941406  1
  O  O359  1  0.75715961  0.12418126  0.26169958  1
  O  O360  1  0.75592093  0.11996780  0.75671095  1
  O  O361  1  0.75432481  0.61870030  0.25711913  1
  O  O362  1  0.76155265  0.62288725  0.74893836  1
  O  O363  1  0.37851574  0.10499821  0.38037413  1
  O  O364  1  0.37078113  0.11325408  0.87154882  1
  O  O365  1  0.37683673  0.62862742  0.36034759  1
  O  O366  1  0.36498144  0.62464139  0.87549517  1
  O  O367  1  0.87016289  0.12263637  0.37012086  1
  O  O368  1  0.86553544  0.12189963  0.86846024  1
  O  O369  1  0.86661772  0.62503332  0.36385609  1
  O  O370  1  0.87435899  0.61616197  0.86637528  1
  O  O371  1  0.13095614  0.38070975  0.12888863  1
  O  O372  1  0.13309587  0.38189884  0.62343573  1
  O  O373  1  0.12533987  0.87100544  0.12742886  1
  O  O374  1  0.12050347  0.88749878  0.63395744  1
  O  O375  1  0.61925883  0.38509122  0.12989121  1
  O  O376  1  0.63443596  0.38029435  0.61654645  1
  O  O377  1  0.63256410  0.87976063  0.13116652  1
  O  O378  1  0.63558454  0.87444422  0.61855476  1
  O  O379  1  0.11492437  0.26239239  0.25085555  1
  O  O380  1  0.12808719  0.24817637  0.76325402  1
  O  O381  1  0.11590222  0.73812829  0.25979107  1
  O  O382  1  0.12351617  0.75965254  0.75123463  1
  O  O383  1  0.62038400  0.25758358  0.25487711  1
  O  O384  1  0.60900287  0.24295709  0.75310197  1
  O  O385  1  0.62097553  0.75615226  0.25043677  1
  O  O386  1  0.61228534  0.74899290  0.74923468  1
  O  O387  1  0.38837762  0.26298715  0.23737083  1
  O  O388  1  0.38781468  0.24008730  0.76275116  1
  O  O389  1  0.38103283  0.74091081  0.24202439  1
  O  O390  1  0.38028111  0.75283264  0.74363092  1
  O  O391  1  0.88049582  0.24415633  0.25082105  1
  O  O392  1  0.87277443  0.23556802  0.74460848  1
  O  O393  1  0.88244990  0.74009367  0.24931146  1
  O  O394  1  0.87764450  0.74205891  0.74342193  1
  O  O395  1  0.38401675  0.50309754  0.50328878  1
  O  O396  1  0.36912238  0.48555751  1.00443506  1
  O  O397  1  0.36530015  0.98173780  0.48337315  1
  O  O398  1  0.37367795  1.00276634  0.99134203  1
  O  O399  1  0.88756347  0.49141909  0.50699436  1
  O  O400  1  0.87642423  0.49516217  0.99230098  1
  O  O401  1  0.88003492  0.99715122  0.49505005  1
  O  O402  1  0.87996568  1.00856354  0.98482586  1
  O  O403  1  0.11348958  0.01281079  -0.00729337  1
  O  O404  1  0.12338908  0.00514068  0.50841893  1
  O  O405  1  0.12152778  0.50369808  0.00337025  1
  O  O406  1  0.11781473  0.50435171  0.50970256  1
  O  O407  1  0.63172679  0.01139892  0.00813396  1
  O  O408  1  0.62543857  0.00840213  0.49514459  1
  O  O409  1  0.63159839  0.50859227  0.01039527  1
  O  O410  1  0.61619399  0.50448476  0.50800351  1
  O  O411  1  0.37303756  0.36796129  0.11077087  1
  O  O412  1  0.36183251  0.37535793  0.61397046  1
  O  O413  1  0.38517185  0.85699624  0.12677914  1
  O  O414  1  0.37908264  0.86358604  0.61427503  1
  O  O415  1  0.87728543  0.37696530  0.11024953  1
  O  O416  1  0.87064196  0.36671460  0.61865747  1
  O  O417  1  0.86087170  0.87531247  0.13167104  1
  O  O418  1  0.87339618  0.86920975  0.62103963  1
  O  O419  1  0.12643431  0.12225686  0.39284954  1
  O  O420  1  0.12919693  0.13158970  0.88272294  1
  O  O421  1  0.12657677  0.63463324  0.38533775  1
  O  O422  1  0.13152124  0.62374905  0.88460352  1
  O  O423  1  0.63236318  0.13049629  0.38254602  1
  O  O424  1  0.63462813  0.12324437  0.88198872  1
  O  O425  1  0.63129810  0.62452795  0.38534708  1
  O  O426  1  0.62675512  0.62785406  0.88254183  1
