# generated using pymatgen
data_V85Zn86O256
_symmetry_space_group_name_H-M   'P 1'
_cell_length_a   16.93336213
_cell_length_b   16.93685411
_cell_length_c   16.93948036
_cell_angle_alpha   90.00212633
_cell_angle_beta   89.97675975
_cell_angle_gamma   90.03496257
_symmetry_Int_Tables_number   1
_chemical_formula_structural   V85Zn86O256
_chemical_formula_sum   'V85 Zn86 O256'
_cell_volume   4858.20581480
_cell_formula_units_Z   1
loop_
 _symmetry_equiv_pos_site_id
 _symmetry_equiv_pos_as_xyz
  1  'x, y, z'
loop_
 _atom_site_type_symbol
 _atom_site_label
 _atom_site_symmetry_multiplicity
 _atom_site_fract_x
 _atom_site_fract_y
 _atom_site_fract_z
 _atom_site_occupancy
  V  V0  1  0.61970285  0.25453120  0.38072405  1
  V  V1  1  -0.00002299  0.50130837  0.00001918  1
  V  V2  1  0.49776885  0.49007521  0.50024162  1
  V  V3  1  0.74814230  0.12454118  0.87619960  1
  V  V4  1  0.25361344  0.12555264  0.37279434  1
  V  V5  1  0.61853459  0.61642531  0.00408054  1
  V  V6  1  -0.00046887  0.62863922  0.12471411  1
  V  V7  1  0.12448163  0.00235834  0.12725575  1
  V  V8  1  0.73483657  0.00165700  0.24613365  1
  V  V9  1  0.62351722  0.11859285  0.00540765  1
  V  V10  1  0.24990707  0.87222463  0.62940964  1
  V  V11  1  0.00276254  0.39274391  0.38180457  1
  V  V12  1  0.11454450  0.50433146  0.62202820  1
  V  V13  1  0.37669833  -0.00068753  0.87583419  1
  V  V14  1  0.50826233  0.62312149  0.63136676  1
  V  V15  1  0.00594221  0.87266474  0.87196510  1
  V  V16  1  0.25037249  0.24990635  -0.00032229  1
  V  V17  1  0.74873984  0.62649291  0.87361354  1
  V  V18  1  0.74560148  0.74422294  0.49125678  1
  V  V19  1  0.12515203  0.12538842  0.50108230  1
  V  V20  1  0.62490367  0.62026911  0.49105843  1
  V  V21  1  0.74941468  0.12996232  0.37146075  1
  V  V22  1  0.87116100  0.87158927  0.50012025  1
  V  V23  1  0.00020733  0.24951736  0.75012316  1
  V  V24  1  0.25288439  0.74734483  0.00339597  1
  V  V25  1  0.50866975  0.87519567  0.36793333  1
  V  V26  1  -0.01060436  0.25249738  0.25750603  1
  V  V27  1  0.73310324  0.87803208  0.12928671  1
  V  V28  1  0.62177356  -0.00126834  0.60578106  1
  V  V29  1  0.25722688  0.00438285  0.25036505  1
  V  V30  1  0.25731181  0.74887554  0.49811965  1
  V  V31  1  0.87251856  0.12408416  0.74938633  1
  V  V32  1  -0.00004354  0.37570961  0.87577353  1
  V  V33  1  0.62971447  0.37055812  0.23918298  1
  V  V34  1  0.49458294  0.25019303  0.25517465  1
  V  V35  1  0.87278238  0.75091166  0.12705651  1
  V  V36  1  0.48765555  0.61323781  0.12745859  1
  V  V37  1  0.48544369  0.74695052  0.23958424  1
  V  V38  1  0.25476497  0.87129176  0.12649037  1
  V  V39  1  0.88311641  0.64280883  0.74498671  1
  V  V40  1  0.50058679  0.37826924  0.88211408  1
  V  V41  1  0.12588387  0.50076187  0.12621151  1
  V  V42  1  -0.00682012  0.12786734  0.13304131  1
  V  V43  1  0.62552852  0.24848246  0.87427644  1
  V  V44  1  0.38905401  0.87507338  0.49824529  1
  V  V45  1  0.12222281  0.25099440  0.37621024  1
  V  V46  1  -0.00204055  0.00226472  0.00213875  1
  V  V47  1  0.74677780  0.86639530  0.62605250  1
  V  V48  1  0.50411869  0.12108609  0.61172328  1
  V  V49  1  0.12652847  0.87798242  0.25085425  1
  V  V50  1  -0.00020723  0.12367798  0.62512647  1
  V  V51  1  0.86687116  0.37726130  0.00561341  1
  V  V52  1  0.88120646  0.38648822  0.50063764  1
  V  V53  1  0.26652217  0.62618380  0.36801500  1
  V  V54  1  0.12609732  0.25025112  0.87493557  1
  V  V55  1  0.74465917  0.74925087  0.00060017  1
  V  V56  1  0.74665262  0.38178726  0.62180229  1
  V  V57  1  0.62691213  0.74404146  0.36094811  1
  V  V58  1  0.86956939  0.62151560  0.26340026  1
  V  V59  1  0.74993265  0.24498530  0.50203876  1
  V  V60  1  0.37769623  0.87284260  0.00183503  1
  V  V61  1  0.25318631  0.62676482  0.87031294  1
  V  V62  1  0.25034560  0.37464613  0.12639432  1
  V  V63  1  0.50044192  0.24952613  0.74898702  1
  V  V64  1  0.12744943  0.74790054  0.37269017  1
  V  V65  1  0.87775841  0.50219059  0.87034321  1
  V  V66  1  0.87275057  -0.00069808  0.87466211  1
  V  V67  1  0.38145579  0.00216543  0.37831526  1
  V  V68  1  0.37824269  0.50134803  0.87913006  1
  V  V69  1  0.37381951  0.12475712  0.74773763  1
  V  V70  1  0.25533133  0.37951786  0.61874615  1
  V  V71  1  0.37925631  0.47937273  0.37411331  1
  V  V72  1  0.38568684  0.74487470  0.63579194  1
  V  V73  1  0.62620107  0.38444431  0.74767017  1
  V  V74  1  0.37222950  0.24103220  0.13051010  1
  V  V75  1  0.87331193  0.87593231  0.00185682  1
  V  V76  1  0.12488905  -0.00520236  0.63039729  1
  V  V77  1  0.50018498  0.11783560  0.13110349  1
  V  V78  1  0.37641661  0.25478928  0.61791310  1
  V  V79  1  0.25861250  0.50193115  0.74718808  1
  V  V80  1  0.73632944  -0.00171915  0.74795679  1
  V  V81  1  -0.00076024  0.87866904  0.37268857  1
  V  V82  1  0.86738902  0.25402176  0.13026126  1
  V  V83  1  0.12331506  0.12719057  0.00111825  1
  V  V84  1  0.87335212  0.00579400  0.36496400  1
  Zn  Zn85  1  0.50377262  0.86686519  0.85918953  1
  Zn  Zn86  1  0.62840919  0.49286046  0.12066396  1
  Zn  Zn87  1  0.87359319  0.25009399  0.62484524  1
  Zn  Zn88  1  0.12531784  0.62788902  -0.00224117  1
  Zn  Zn89  1  0.12877387  0.75121507  0.87091984  1
  Zn  Zn90  1  0.74728971  0.25220914  0.00469917  1
  Zn  Zn91  1  0.61347550  0.75103394  0.85649721  1
  Zn  Zn92  1  0.75145353  0.50178155  0.25057264  1
  Zn  Zn93  1  0.04892958  0.79698165  0.71525882  1
  Zn  Zn94  1  0.12060428  0.61700701  0.49344052  1
  Zn  Zn95  1  -0.00493786  0.00291634  0.49903355  1
  Zn  Zn96  1  0.75133588  0.50327882  0.74408777  1
  Zn  Zn97  1  0.12730760  0.37700068  0.74974792  1
  Zn  Zn98  1  0.24751882  -0.00347573  0.75215709  1
  Zn  Zn99  1  0.12394080  0.37752937  0.25305699  1
  Zn  Zn100  1  -0.00528742  0.64642233  0.61902483  1
  Zn  Zn101  1  -0.00075989  0.75210639  0.24989242  1
  Zn  Zn102  1  0.38081690  0.37434686  0.00361562  1
  Zn  Zn103  1  0.25448844  0.25543974  0.49652479  1
  Zn  Zn104  1  0.50398120  -0.00387569  0.00323864  1
  Zn  Zn105  1  0.25044637  0.12474802  0.87338993  1
  Zn  Zn106  1  0.26018702  0.50536407  0.24507242  1
  Zn  Zn107  1  0.18169439  0.18966020  0.19185088  1
  Zn  Zn108  1  0.18976901  0.18920961  0.68623389  1
  Zn  Zn109  1  0.19016443  0.68685987  0.18896177  1
  Zn  Zn110  1  0.19333556  0.68447322  0.68795621  1
  Zn  Zn111  1  0.68532734  0.18563996  0.19251628  1
  Zn  Zn112  1  0.68535293  0.18679336  0.68475172  1
  Zn  Zn113  1  0.68753899  0.67992159  0.18540849  1
  Zn  Zn114  1  0.69308727  0.67993996  0.68018860  1
  Zn  Zn115  1  0.30989270  0.31140606  0.30885919  1
  Zn  Zn116  1  0.31371523  0.31504233  0.80830686  1
  Zn  Zn117  1  0.31659058  0.81490961  0.31144649  1
  Zn  Zn118  1  0.31775661  0.81137277  0.81322699  1
  Zn  Zn119  1  0.79676139  0.34674111  0.33071081  1
  Zn  Zn120  1  0.81168591  0.31333001  0.81244975  1
  Zn  Zn121  1  0.81104723  0.81436341  0.30956970  1
  Zn  Zn122  1  0.80367451  0.81463095  0.81309380  1
  Zn  Zn123  1  0.19175728  0.43998338  0.43886561  1
  Zn  Zn124  1  0.18868389  0.43829462  0.93851205  1
  Zn  Zn125  1  0.19065148  0.93784402  0.44258468  1
  Zn  Zn126  1  0.19020918  0.94034644  0.93976046  1
  Zn  Zn127  1  0.68539029  0.43995479  0.43093950  1
  Zn  Zn128  1  0.68931263  0.43926294  0.93495658  1
  Zn  Zn129  1  0.68797062  0.93362808  0.43220126  1
  Zn  Zn130  1  0.68423024  0.93482892  0.93590731  1
  Zn  Zn131  1  0.31310787  0.06224863  0.06141225  1
  Zn  Zn132  1  0.31298130  0.06165952  0.55983904  1
  Zn  Zn133  1  0.31360888  0.56045163  0.05714542  1
  Zn  Zn134  1  0.31727101  0.56528096  0.55731647  1
  Zn  Zn135  1  0.80971269  0.06553515  0.06640843  1
  Zn  Zn136  1  0.81104412  0.06019087  0.55899540  1
  Zn  Zn137  1  0.80731456  0.55997362  0.06857207  1
  Zn  Zn138  1  0.81340215  0.56501546  0.56233928  1
  Zn  Zn139  1  0.43975310  0.43222922  0.19061221  1
  Zn  Zn140  1  0.44029178  0.44019786  0.68846570  1
  Zn  Zn141  1  0.43906264  0.93520119  0.19102407  1
  Zn  Zn142  1  0.43368415  0.94252389  0.68216284  1
  Zn  Zn143  1  0.93805013  0.43823820  0.19116658  1
  Zn  Zn144  1  0.93595745  0.43509000  0.68753211  1
  Zn  Zn145  1  0.93252815  0.93823863  0.18903306  1
  Zn  Zn146  1  0.92997573  0.93896874  0.68527602  1
  Zn  Zn147  1  0.06261082  0.06528945  0.31200288  1
  Zn  Zn148  1  0.06216734  0.06106227  0.81316657  1
  Zn  Zn149  1  0.06551074  0.56809341  0.30722673  1
  Zn  Zn150  1  0.06741209  0.56683379  0.80618204  1
  Zn  Zn151  1  0.56292452  0.06936414  0.31752882  1
  Zn  Zn152  1  0.55618328  0.06089513  0.81261068  1
  Zn  Zn153  1  0.55694480  0.55790279  0.31020617  1
  Zn  Zn154  1  0.56293596  0.56431538  0.81680074  1
  Zn  Zn155  1  0.43622264  0.18696274  0.43689052  1
  Zn  Zn156  1  0.43792724  0.18675114  0.93957494  1
  Zn  Zn157  1  0.44628704  0.68880098  0.43878142  1
  Zn  Zn158  1  0.43593045  0.68682690  0.93997041  1
  Zn  Zn159  1  0.93256717  0.19076213  0.43926524  1
  Zn  Zn160  1  0.93477868  0.18874041  0.94028431  1
  Zn  Zn161  1  0.94210098  0.68922625  0.44230140  1
  Zn  Zn162  1  0.93565281  0.68990115  0.93752191  1
  Zn  Zn163  1  0.05875962  0.31432979  0.06428867  1
  Zn  Zn164  1  0.06615491  0.31543212  0.56500216  1
  Zn  Zn165  1  0.06606143  0.81358709  0.05850238  1
  Zn  Zn166  1  0.06410012  0.81221642  0.54836933  1
  Zn  Zn167  1  0.55952895  0.30312750  0.06270440  1
  Zn  Zn168  1  0.56526853  0.31064176  0.56402469  1
  Zn  Zn169  1  0.56007670  0.80496698  0.05513204  1
  Zn  Zn170  1  0.56715837  0.81446460  0.69175942  1
  O  O171  1  0.11406605  0.12200038  0.12211148  1
  O  O172  1  0.12118172  0.12034958  0.61804881  1
  O  O173  1  0.11738518  0.61996905  0.12340813  1
  O  O174  1  0.12686740  0.61180742  0.62551394  1
  O  O175  1  0.61408216  0.13452137  0.11595386  1
  O  O176  1  0.61713901  0.11082545  0.62931494  1
  O  O177  1  0.61629833  0.62027207  0.11794360  1
  O  O178  1  0.61394334  0.62626119  0.61154266  1
  O  O179  1  0.36772718  0.38129286  0.38138396  1
  O  O180  1  0.38545891  0.37872625  0.87477885  1
  O  O181  1  0.38277719  0.88258079  0.37843349  1
  O  O182  1  0.37407397  0.88271604  0.88526829  1
  O  O183  1  0.89142787  0.36723108  0.39346427  1
  O  O184  1  0.88020718  0.38284337  0.88142144  1
  O  O185  1  0.88284967  0.88293330  0.37513487  1
  O  O186  1  0.87981919  0.88107476  0.88269620  1
  O  O187  1  0.25565484  0.00594114  0.36955535  1
  O  O188  1  0.26017746  0.00270958  0.87229040  1
  O  O189  1  0.26401740  0.50844042  0.37633434  1
  O  O190  1  0.25530861  0.50310836  0.86691752  1
  O  O191  1  0.75280315  0.00641772  0.36504477  1
  O  O192  1  0.75351845  0.00361296  0.86789120  1
  O  O193  1  0.76284799  0.45720573  0.35433872  1
  O  O194  1  0.76018137  0.51230481  0.87502517  1
  O  O195  1  0.24443718  0.49257124  0.12377643  1
  O  O196  1  0.25523875  0.49661968  0.63089508  1
  O  O197  1  0.24500623  0.99771294  0.13412070  1
  O  O198  1  0.24364853  0.99050130  0.62274678  1
  O  O199  1  0.74256009  0.50184177  0.13609224  1
  O  O200  1  0.75201757  0.48643072  0.62537309  1
  O  O201  1  0.75368683  0.99407375  0.13801829  1
  O  O202  1  0.73845273  0.99801502  0.62912038  1
  O  O203  1  0.00195605  0.37081050  0.26398609  1
  O  O204  1  0.00093455  0.36536806  0.75702650  1
  O  O205  1  0.00581318  0.87639881  0.25831575  1
  O  O206  1  -0.00658224  0.88414520  0.76734935  1
  O  O207  1  0.50659282  0.35633337  0.24724539  1
  O  O208  1  0.50925197  0.36955924  0.75629763  1
  O  O209  1  0.49759047  0.85978868  0.25403554  1
  O  O210  1  0.49113285  0.87396662  0.74594360  1
  O  O211  1  0.50466480  0.13609914  0.24198253  1
  O  O212  1  0.48972054  0.12949895  0.74276922  1
  O  O213  1  0.50263105  0.63404935  0.23774080  1
  O  O214  1  0.50809214  0.61653833  0.73068402  1
  O  O215  1  1.00209762  0.13566653  0.24303196  1
  O  O216  1  0.99382931  0.13072529  0.74640859  1
  O  O217  1  0.99436383  0.63091507  0.23756416  1
  O  O218  1  0.98736079  0.62802673  0.74937392  1
  O  O219  1  0.36560664  0.25121366  0.00752974  1
  O  O220  1  0.37375117  0.24600352  0.51398155  1
  O  O221  1  0.36161545  0.75906121  0.00176705  1
  O  O222  1  0.37025239  0.75636864  0.50141129  1
  O  O223  1  0.87548377  0.26063548  0.00972861  1
  O  O224  1  0.86565931  0.25820768  0.50519360  1
  O  O225  1  0.86395280  0.75344572  0.00754637  1
  O  O226  1  0.86453866  0.76552613  0.48541368  1
  O  O227  1  0.12706647  0.23910139  0.49695425  1
  O  O228  1  0.12844165  0.24656655  0.99539993  1
  O  O229  1  0.14141217  0.75509245  0.48386967  1
  O  O230  1  0.13842122  0.75135068  0.99336856  1
  O  O231  1  0.63481513  0.25509737  0.49233625  1
  O  O232  1  0.62638908  0.24214408  0.98823807  1
  O  O233  1  0.63415721  0.73628838  0.48301414  1
  O  O234  1  0.63860912  0.73618200  1.00590035  1
  O  O235  1  0.48831630  0.24051681  0.13096705  1
  O  O236  1  0.49555053  0.24274341  0.63032922  1
  O  O237  1  0.50220466  0.74153365  0.13630480  1
  O  O238  1  0.49278849  0.73913201  0.62477534  1
  O  O239  1  0.99391711  0.24523875  0.13440225  1
  O  O240  1  1.00204139  0.24555404  0.63817348  1
  O  O241  1  0.99385250  0.74561460  0.12337072  1
  O  O242  1  0.99959793  0.76243468  0.62391228  1
  O  O243  1  0.00568013  0.25220985  0.37121905  1
  O  O244  1  0.00409564  0.25226137  0.86676861  1
  O  O245  1  0.01180292  0.76104839  0.37231639  1
  O  O246  1  0.00195357  0.76833281  0.88298763  1
  O  O247  1  0.50725655  0.24101316  0.36828847  1
  O  O248  1  0.50649895  0.25506160  0.86871638  1
  O  O249  1  0.50580550  0.75467633  0.36217448  1
  O  O250  1  0.50102846  0.75180714  0.88071653  1
  O  O251  1  0.24257500  0.12660426  0.48978486  1
  O  O252  1  0.24165595  0.13390879  1.00018570  1
  O  O253  1  0.24801592  0.63419834  0.48883051  1
  O  O254  1  0.24829943  0.63339632  0.99534179  1
  O  O255  1  0.75425045  0.13829205  0.49344211  1
  O  O256  1  0.74232829  0.12765105  0.99397267  1
  O  O257  1  0.74260012  0.63353398  0.50391156  1
  O  O258  1  0.74693442  0.63161925  0.99342395  1
  O  O259  1  0.24796055  0.36602487  0.01166812  1
  O  O260  1  0.24980047  0.37364477  0.51416519  1
  O  O261  1  0.25631306  0.87097152  0.00807462  1
  O  O262  1  0.26030872  0.86691506  0.50610402  1
  O  O263  1  0.76300409  0.37293581  -0.00519363  1
  O  O264  1  0.75821428  0.36707421  0.50657365  1
  O  O265  1  0.75615139  0.86866953  0.00855740  1
  O  O266  1  0.75364387  0.86829918  0.50324933  1
  O  O267  1  0.12875509  0.49980787  0.23611228  1
  O  O268  1  0.13777678  0.49902975  0.73922100  1
  O  O269  1  0.13494689  0.99674129  0.24693671  1
  O  O270  1  0.12823116  1.00668247  0.73507915  1
  O  O271  1  0.62017835  0.47766757  0.25369955  1
  O  O272  1  0.63028798  0.48747523  0.75792556  1
  O  O273  1  0.63631515  1.00205219  0.25311740  1
  O  O274  1  0.63457848  1.00358981  0.74950872  1
  O  O275  1  0.36266420  -0.00414213  0.26034613  1
  O  O276  1  0.37170239  0.00948578  0.75591662  1
  O  O277  1  0.37680245  0.49220263  0.26800520  1
  O  O278  1  0.36579839  0.49378855  0.76115746  1
  O  O279  1  0.86755187  -0.00031755  0.26118480  1
  O  O280  1  0.86560782  0.00889780  0.75515167  1
  O  O281  1  0.87991411  0.51952558  0.24585113  1
  O  O282  1  0.87511538  0.50031941  0.76303285  1
  O  O283  1  0.11978945  0.36846263  0.37971376  1
  O  O284  1  0.11823312  0.36785097  0.87445621  1
  O  O285  1  0.11989157  0.87346612  0.37140986  1
  O  O286  1  0.10842579  0.88205226  0.88076670  1
  O  O287  1  0.62407579  0.35801016  0.36347884  1
  O  O288  1  0.62140073  0.36752752  0.86983554  1
  O  O289  1  0.61297065  0.86577784  0.37670875  1
  O  O290  1  0.61508937  0.86278373  0.89245818  1
  O  O291  1  0.37947921  0.13481419  0.12229602  1
  O  O292  1  0.38137045  0.12822055  0.63039078  1
  O  O293  1  0.38815260  0.61740433  0.12303543  1
  O  O294  1  0.38826968  0.63888264  0.61544007  1
  O  O295  1  0.88754944  0.13502895  0.11978272  1
  O  O296  1  0.88169233  0.12430493  0.63056835  1
  O  O297  1  0.88153520  0.63766579  0.12631116  1
  O  O298  1  0.87535807  0.62232886  0.64188414  1
  O  O299  1  0.25316025  0.25392852  0.12244543  1
  O  O300  1  0.25909740  0.25919718  0.62475919  1
  O  O301  1  0.24360679  0.76111842  0.11912427  1
  O  O302  1  0.26081700  0.75243519  0.61431886  1
  O  O303  1  0.76526162  0.23946571  0.12460190  1
  O  O304  1  0.74966977  0.25686445  0.61810495  1
  O  O305  1  0.75593797  0.75668633  0.12171472  1
  O  O306  1  0.74659731  0.76203166  0.60953794  1
  O  O307  1  0.24262908  0.24258212  0.37529772  1
  O  O308  1  0.24391645  0.25091036  0.88113462  1
  O  O309  1  0.25007521  0.74367738  0.37722531  1
  O  O310  1  0.25467462  0.74183333  0.88266202  1
  O  O311  1  0.74568543  0.24668147  0.38214249  1
  O  O312  1  0.74182920  0.24324574  0.87609586  1
  O  O313  1  0.73995683  0.75838286  0.38036807  1
  O  O314  1  0.75379811  0.73919042  0.88549178  1
  O  O315  1  0.00460371  0.12125446  0.00784157  1
  O  O316  1  0.00666979  0.12470573  0.50628867  1
  O  O317  1  0.00021322  0.62174544  0.00950465  1
  O  O318  1  0.00922207  0.63279306  0.50696064  1
  O  O319  1  0.50668219  0.12427892  0.00952100  1
  O  O320  1  0.49820542  0.12620748  0.51276206  1
  O  O321  1  0.50677639  0.63016125  0.01675554  1
  O  O322  1  0.50956097  0.61815544  0.50479951  1
  O  O323  1  0.50306058  0.39146593  0.51055338  1
  O  O324  1  0.50149322  0.36779638  0.98565089  1
  O  O325  1  0.48904644  0.87016604  0.48530332  1
  O  O326  1  0.48310279  0.87770389  1.01260747  1
  O  O327  1  0.98989243  0.37235327  0.49882275  1
  O  O328  1  0.99106922  0.38141193  0.99395617  1
  O  O329  1  0.99200362  0.88078068  0.48520774  1
  O  O330  1  0.99344231  0.88360231  0.99485094  1
  O  O331  1  0.48682612  0.49849898  0.38422910  1
  O  O332  1  0.49116937  0.49126332  0.86984295  1
  O  O333  1  0.49186779  0.99117500  0.36393990  1
  O  O334  1  0.48663880  0.99768945  0.87960874  1
  O  O335  1  1.01127936  0.49145160  0.37391968  1
  O  O336  1  0.99584925  0.49814542  0.87907543  1
  O  O337  1  0.99210416  0.99686894  0.37405374  1
  O  O338  1  0.99301858  0.99484405  0.88214857  1
  O  O339  1  0.00198608  0.00880753  0.12372721  1
  O  O340  1  0.00689477  0.00372815  0.62190554  1
  O  O341  1  0.00643360  0.50826280  0.12088546  1
  O  O342  1  0.01453029  0.49914365  0.63238811  1
  O  O343  1  0.49214136  0.01395757  0.12636529  1
  O  O344  1  0.51377911  0.00582260  0.62365301  1
  O  O345  1  0.50351716  0.50970494  0.13077184  1
  O  O346  1  0.49129775  0.51336310  0.61192453  1
  O  O347  1  0.24542552  0.37691807  0.23704724  1
  O  O348  1  0.24815925  0.38318299  0.74009878  1
  O  O349  1  0.24638182  0.88256460  0.24451381  1
  O  O350  1  0.26136310  0.87677363  0.73246062  1
  O  O351  1  0.72934413  0.35409407  0.23652837  1
  O  O352  1  0.74380188  0.37505148  0.74201549  1
  O  O353  1  0.75217350  0.88947577  0.24193062  1
  O  O354  1  0.76036159  0.88723369  0.73655322  1
  O  O355  1  0.24235177  0.11772061  0.26286041  1
  O  O356  1  0.26327183  0.12527888  0.74948385  1
  O  O357  1  0.25022957  0.62292055  0.26278571  1
  O  O358  1  0.25417488  0.61351864  0.75775375  1
  O  O359  1  0.75027133  0.11277505  0.25592475  1
  O  O360  1  0.75381377  0.11898035  0.75522343  1
  O  O361  1  0.76536610  0.62698104  0.25238451  1
  O  O362  1  0.76259520  0.62177631  0.75720123  1
  O  O363  1  0.36497368  0.11587206  0.37944619  1
  O  O364  1  0.37478111  0.11934254  0.86715719  1
  O  O365  1  0.36745570  0.62460438  0.37868449  1
  O  O366  1  0.36341364  0.61450550  0.88273391  1
  O  O367  1  0.86227502  0.11880863  0.37938746  1
  O  O368  1  0.86860887  0.11976764  0.87109004  1
  O  O369  1  0.88308408  0.63285937  0.36044183  1
  O  O370  1  0.87161959  0.62010015  0.86749859  1
  O  O371  1  0.13041283  0.38335995  0.12565727  1
  O  O372  1  0.13441193  0.38626343  0.62830671  1
  O  O373  1  0.13296476  0.88359100  0.12950226  1
  O  O374  1  0.13493016  0.88306164  0.61632031  1
  O  O375  1  0.61494057  0.37189123  0.13469042  1
  O  O376  1  0.63357246  0.36920965  0.63687420  1
  O  O377  1  0.63500377  0.87203978  0.11722492  1
  O  O378  1  0.63413146  0.89095912  0.62352988  1
  O  O379  1  0.11293991  0.25454675  0.25904089  1
  O  O380  1  0.11782692  0.25002558  0.75705070  1
  O  O381  1  0.12657610  0.75872957  0.25951190  1
  O  O382  1  0.13934523  0.75344629  0.75777508  1
  O  O383  1  0.61494619  0.25358713  0.25591953  1
  O  O384  1  0.62119321  0.25415529  0.76034218  1
  O  O385  1  0.62057908  0.74314030  0.25805486  1
  O  O386  1  0.64424740  0.75479086  0.74601844  1
  O  O387  1  0.37964292  0.24995752  0.24216983  1
  O  O388  1  0.38071835  0.24323015  0.74139254  1
  O  O389  1  0.38664544  0.74818966  0.24911064  1
  O  O390  1  0.37040899  0.74632731  0.73294073  1
  O  O391  1  0.88601180  0.26041039  0.24490889  1
  O  O392  1  0.88260025  0.24264012  0.74979959  1
  O  O393  1  0.87728438  0.74438292  0.24157920  1
  O  O394  1  0.87335816  0.74088653  0.75449443  1
  O  O395  1  0.38798647  0.50357333  0.48837905  1
  O  O396  1  0.36804874  0.48985955  0.98438386  1
  O  O397  1  0.37072679  0.99068008  0.48693679  1
  O  O398  1  0.37353346  0.99298111  0.99200757  1
  O  O399  1  0.87267568  0.48528318  0.50310733  1
  O  O400  1  0.87986927  0.49601641  0.99195816  1
  O  O401  1  0.87091062  0.98973687  0.48519691  1
  O  O402  1  0.87834241  0.99683234  0.99646533  1
  O  O403  1  0.11948879  0.00707297  0.00820100  1
  O  O404  1  0.12400941  0.01158717  0.50779989  1
  O  O405  1  0.11881227  0.50140447  0.01035960  1
  O  O406  1  0.13313915  0.50046611  0.51813634  1
  O  O407  1  0.62372159  0.01490015  -0.00299214  1
  O  O408  1  0.63005586  0.00139387  0.50773931  1
  O  O409  1  0.62766267  0.51232369  -0.00268305  1
  O  O410  1  0.61171947  0.50652759  0.48798799  1
  O  O411  1  0.36689219  0.36513210  0.12371872  1
  O  O412  1  0.36962288  0.36559043  0.63270206  1
  O  O413  1  0.36020892  0.88361783  0.12051950  1
  O  O414  1  0.37253552  0.86403906  0.61403873  1
  O  O415  1  0.88369137  0.36749663  0.11655930  1
  O  O416  1  0.86956141  0.37176466  0.61686323  1
  O  O417  1  0.87181331  0.86458778  0.12104572  1
  O  O418  1  0.86085120  0.88633889  0.60982466  1
  O  O419  1  0.13025152  0.12943410  0.38350983  1
  O  O420  1  0.12597246  0.13256855  0.88115767  1
  O  O421  1  0.13560057  0.63434653  0.37337875  1
  O  O422  1  0.13937598  0.62339622  0.87785279  1
  O  O423  1  0.63986496  0.13711011  0.37194635  1
  O  O424  1  0.62656130  0.13178775  0.87946421  1
  O  O425  1  0.61886647  0.62968116  0.37922373  1
  O  O426  1  0.63421551  0.62811335  0.88140339  1
