# generated using pymatgen
data_V85Zn86O256
_symmetry_space_group_name_H-M   'P 1'
_cell_length_a   16.89883703
_cell_length_b   16.89431172
_cell_length_c   16.90028848
_cell_angle_alpha   89.98527122
_cell_angle_beta   90.04626494
_cell_angle_gamma   90.03746743
_symmetry_Int_Tables_number   1
_chemical_formula_structural   V85Zn86O256
_chemical_formula_sum   'V85 Zn86 O256'
_cell_volume   4824.93192276
_cell_formula_units_Z   1
loop_
 _symmetry_equiv_pos_site_id
 _symmetry_equiv_pos_as_xyz
  1  'x, y, z'
loop_
 _atom_site_type_symbol
 _atom_site_label
 _atom_site_symmetry_multiplicity
 _atom_site_fract_x
 _atom_site_fract_y
 _atom_site_fract_z
 _atom_site_occupancy
  V  V0  1  0.12719109  0.25148616  0.36502383  1
  V  V1  1  0.11117012  0.62394690  0.50418651  1
  V  V2  1  0.62252805  0.87560966  0.75820191  1
  V  V3  1  0.63043994  0.37475588  0.75792441  1
  V  V4  1  0.11442396  0.50466405  0.62327105  1
  V  V5  1  0.62324532  0.00129137  0.12783482  1
  V  V6  1  0.49701302  0.37549363  0.87575859  1
  V  V7  1  0.62687758  0.12543942  0.49959885  1
  V  V8  1  0.00217406  0.24881785  0.75263286  1
  V  V9  1  0.25090336  0.37839514  0.62753343  1
  V  V10  1  0.62625325  0.51181644  0.12149167  1
  V  V11  1  0.62354460  0.75251022  0.37250806  1
  V  V12  1  0.87578004  0.87727622  -0.00932539  1
  V  V13  1  0.75047507  0.74970759  0.50094909  1
  V  V14  1  0.74644958  0.37690156  0.12644717  1
  V  V15  1  0.25379288  0.61837358  0.37638334  1
  V  V16  1  0.25400818  0.10652888  0.87295653  1
  V  V17  1  0.62486725  0.62488025  0.49783465  1
  V  V18  1  0.37446501  0.37817607  0.49576856  1
  V  V19  1  0.37602699  0.74972699  0.62613184  1
  V  V20  1  0.49410400  0.88204797  0.37241974  1
  V  V21  1  0.25124374  0.25126770  0.49994701  1
  V  V22  1  0.25475165  -0.00415107  0.25217492  1
  V  V23  1  0.87621200  0.37772924  -0.00108443  1
  V  V24  1  0.12413549  0.50018125  0.12978971  1
  V  V25  1  0.50135139  0.50842839  -0.00234654  1
  V  V26  1  0.49549512  0.50199407  0.49814485  1
  V  V27  1  0.87576740  0.25030307  0.12484118  1
  V  V28  1  0.13264607  0.12542931  -0.00074902  1
  V  V29  1  0.49825010  0.38046136  0.37221573  1
  V  V30  1  0.37669382  0.61573643  0.25144499  1
  V  V31  1  0.37081365  0.87151566  -0.02095837  1
  V  V32  1  0.24125365  0.73113119  -0.00026188  1
  V  V33  1  0.49439679  -0.00833255  -0.01413285  1
  V  V34  1  0.11853201  0.74898632  0.37212693  1
  V  V35  1  0.00044452  0.12229238  0.62474245  1
  V  V36  1  0.12921837  0.87517573  0.76194142  1
  V  V37  1  0.87757708  0.11951856  0.75527687  1
  V  V38  1  0.62585696  0.25350251  0.37166399  1
  V  V39  1  0.00029139  0.63014279  0.14355899  1
  V  V40  1  0.62561952  0.74898926  0.88349089  1
  V  V41  1  0.11966449  0.87165818  0.24914280  1
  V  V42  1  0.75179889  0.37539154  0.62688181  1
  V  V43  1  0.87820357  0.73116968  0.62705655  1
  V  V44  1  -0.00688771  0.74416948  0.75121613  1
  V  V45  1  0.11526846  0.73477997  0.88169916  1
  V  V46  1  0.87721088  0.74819780  0.14059525  1
  V  V47  1  0.49579653  0.62497080  0.62925486  1
  V  V48  1  -0.00312968  -0.00262636  -0.01207892  1
  V  V49  1  0.24888894  0.74989989  0.50193989  1
  V  V50  1  0.87291487  0.50482030  0.86412032  1
  V  V51  1  0.87762311  0.50556586  0.37049708  1
  V  V52  1  0.12818450  0.37631316  0.75065056  1
  V  V53  1  0.62441518  0.00007338  0.62497934  1
  V  V54  1  0.00233484  0.51443515  -0.00046241  1
  V  V55  1  0.37379375  0.74964865  0.12698612  1
  V  V56  1  0.87437680  -0.00048484  0.36677173  1
  V  V57  1  0.88178755  0.37702059  0.49929155  1
  V  V58  1  0.25070083  0.87410458  0.12100532  1
  V  V59  1  0.50184194  0.25171010  0.75109065  1
  V  V60  1  0.62849726  0.49961714  0.63131147  1
  V  V61  1  0.24484794  0.37279916  0.13134936  1
  V  V62  1  0.75085644  0.88002268  0.13094246  1
  V  V63  1  0.13982045  0.25187333  0.87854917  1
  V  V64  1  0.37417568  0.11223291  0.75186330  1
  V  V65  1  0.36421101  0.37717481  -0.00610376  1
  V  V66  1  0.75257702  0.12173992  0.87726127  1
  V  V67  1  0.37116655  0.24996335  0.11605942  1
  V  V68  1  0.75361224  0.00015223  0.75481713  1
  V  V69  1  0.37611813  0.12431783  0.24911978  1
  V  V70  1  0.74915077  0.12141751  0.36312348  1
  V  V71  1  0.75372954  0.87494874  0.62750951  1
  V  V72  1  0.50081428  0.74827812  0.75676541  1
  V  V73  1  0.75156359  0.74049058  0.00454071  1
  V  V74  1  0.00139155  0.12273321  0.12389572  1
  V  V75  1  0.61866225  0.12736481  -0.00628836  1
  V  V76  1  0.74323265  0.25154634  -0.00595964  1
  V  V77  1  0.87933430  0.87764452  0.50376710  1
  V  V78  1  0.00117045  0.37546860  0.87789266  1
  V  V79  1  0.25539482  0.51861770  0.75580896  1
  V  V80  1  0.75024402  0.62178010  0.86010002  1
  V  V81  1  0.00449220  0.37658394  0.37138861  1
  V  V82  1  0.12676847  0.12208481  0.50150166  1
  V  V83  1  0.25685395  0.11915114  0.37736992  1
  V  V84  1  0.37270936  0.88505188  0.49824331  1
  Zn  Zn85  1  -0.00183188  0.87422947  0.37044161  1
  Zn  Zn86  1  0.87460979  0.24845112  0.62399051  1
  Zn  Zn87  1  0.75251148  0.50911368  0.24745234  1
  Zn  Zn88  1  0.75294692  0.25097548  0.49796568  1
  Zn  Zn89  1  0.49684386  0.00384770  0.49705059  1
  Zn  Zn90  1  0.00092416  -0.00029023  0.49875328  1
  Zn  Zn91  1  0.49761589  0.25284181  0.24560105  1
  Zn  Zn92  1  0.50020102  0.12729645  0.62479653  1
  Zn  Zn93  1  0.24733271  0.49467539  0.25616516  1
  Zn  Zn94  1  0.62472182  0.88154029  0.25155517  1
  Zn  Zn95  1  0.62243322  0.37806514  0.24702418  1
  Zn  Zn96  1  0.12407430  -0.00217743  0.12268084  1
  Zn  Zn97  1  0.49603467  0.12457716  0.11981717  1
  Zn  Zn98  1  0.49918135  0.75213296  0.24824398  1
  Zn  Zn99  1  0.37178501  0.53236471  0.87262870  1
  Zn  Zn100  1  0.13016725  -0.00396834  0.63458649  1
  Zn  Zn101  1  0.00467492  0.25133332  0.24594215  1
  Zn  Zn102  1  0.87389847  0.12140837  0.24622902  1
  Zn  Zn103  1  0.37736406  0.24987127  0.62618962  1
  Zn  Zn104  1  0.75532188  0.62829853  0.36894659  1
  Zn  Zn105  1  0.25225882  0.87797439  0.64076652  1
  Zn  Zn106  1  0.50332611  0.62955775  0.12373155  1
  Zn  Zn107  1  0.19259656  0.18609152  0.18407069  1
  Zn  Zn108  1  0.19128504  0.18672726  0.68902170  1
  Zn  Zn109  1  0.18552899  0.68379938  0.18833994  1
  Zn  Zn110  1  0.18012942  0.69403694  0.68681371  1
  Zn  Zn111  1  0.68395672  0.18856494  0.18361816  1
  Zn  Zn112  1  0.68706647  0.19156148  0.68956721  1
  Zn  Zn113  1  0.69133907  0.68874650  0.19214072  1
  Zn  Zn114  1  0.68546083  0.68898704  0.68628994  1
  Zn  Zn115  1  0.31485890  0.31029944  0.31169015  1
  Zn  Zn116  1  0.31647465  0.31178960  0.81074526  1
  Zn  Zn117  1  0.30965253  0.80832901  0.31403138  1
  Zn  Zn118  1  0.31908125  0.74178096  0.82435573  1
  Zn  Zn119  1  0.81420106  0.31369275  0.31037420  1
  Zn  Zn120  1  0.81412848  0.30977030  0.81237136  1
  Zn  Zn121  1  0.80921742  0.81614625  0.31354207  1
  Zn  Zn122  1  0.81203417  0.80891303  0.81235065  1
  Zn  Zn123  1  0.18324858  0.43929537  0.43974866  1
  Zn  Zn124  1  0.18599387  0.44755247  0.93919685  1
  Zn  Zn125  1  0.18871563  0.93703396  0.43867248  1
  Zn  Zn126  1  0.18127214  0.92940922  0.93454086  1
  Zn  Zn127  1  0.69007846  0.43823937  0.43979222  1
  Zn  Zn128  1  0.68720489  0.44236519  0.93852453  1
  Zn  Zn129  1  0.68970121  0.93773453  0.43715249  1
  Zn  Zn130  1  0.68929227  0.93742612  0.94261719  1
  Zn  Zn131  1  0.31386205  0.05732259  0.05958548  1
  Zn  Zn132  1  0.31000594  0.06039990  0.57184698  1
  Zn  Zn133  1  0.31473192  0.55821473  0.06546892  1
  Zn  Zn134  1  0.31010607  0.56318890  0.56490295  1
  Zn  Zn135  1  0.81190890  0.06109677  0.06113808  1
  Zn  Zn136  1  0.81196127  0.06258210  0.56051494  1
  Zn  Zn137  1  0.81845530  0.56412396  0.06356301  1
  Zn  Zn138  1  0.81108624  0.55617212  0.55497978  1
  Zn  Zn139  1  0.43709280  0.43784559  0.18286870  1
  Zn  Zn140  1  0.43495278  0.43984152  0.68913568  1
  Zn  Zn141  1  0.43826531  0.93803608  0.18284435  1
  Zn  Zn142  1  0.44030007  0.93395847  0.68722853  1
  Zn  Zn143  1  0.94064961  0.43653467  0.19025018  1
  Zn  Zn144  1  0.93741810  0.43661061  0.68823385  1
  Zn  Zn145  1  0.93705020  0.93795002  0.18271377  1
  Zn  Zn146  1  0.94534329  0.93370552  0.69337613  1
  Zn  Zn147  1  0.06428782  0.06041719  0.31172768  1
  Zn  Zn148  1  0.06572204  0.06086603  0.81470056  1
  Zn  Zn149  1  0.06408228  0.55851686  0.31628159  1
  Zn  Zn150  1  0.05926755  0.56248675  0.80663372  1
  Zn  Zn151  1  0.56018921  0.06324266  0.31194534  1
  Zn  Zn152  1  0.56312498  0.06503301  0.81333994  1
  Zn  Zn153  1  0.56511001  0.56363236  0.30793097  1
  Zn  Zn154  1  0.56487137  0.56395146  0.81521431  1
  Zn  Zn155  1  0.43927354  0.19074330  0.43738834  1
  Zn  Zn156  1  0.43554159  0.19061078  0.93347092  1
  Zn  Zn157  1  0.43692464  0.69139663  0.43639831  1
  Zn  Zn158  1  0.43789687  0.69136044  0.94148078  1
  Zn  Zn159  1  0.93784054  0.18987971  0.43690229  1
  Zn  Zn160  1  0.93969986  0.18726371  0.93857177  1
  Zn  Zn161  1  0.93820242  0.69032979  0.43837041  1
  Zn  Zn162  1  0.93257186  0.69053578  0.93813375  1
  Zn  Zn163  1  0.06504000  0.31329504  0.05969085  1
  Zn  Zn164  1  0.06346119  0.31021646  0.56037684  1
  Zn  Zn165  1  0.05891281  0.81084099  0.06205406  1
  Zn  Zn166  1  0.06133728  0.81158193  0.57004226  1
  Zn  Zn167  1  0.55846690  0.31542120  0.06024248  1
  Zn  Zn168  1  0.56401396  0.31244616  0.56306034  1
  Zn  Zn169  1  0.56064454  0.81604029  0.06126489  1
  Zn  Zn170  1  0.56140622  0.81574485  0.56136128  1
  O  O171  1  0.12051314  0.12495001  0.11568607  1
  O  O172  1  0.12044380  0.12490578  0.61848010  1
  O  O173  1  0.10951653  0.61923842  0.12702321  1
  O  O174  1  0.13113260  0.61833927  0.61478114  1
  O  O175  1  0.62243480  0.11966902  0.11153687  1
  O  O176  1  0.62683348  0.11898069  0.61785216  1
  O  O177  1  0.62519215  0.61577040  0.12538755  1
  O  O178  1  0.61803898  0.61860149  0.61933078  1
  O  O179  1  0.38157816  0.37271003  0.38695921  1
  O  O180  1  0.38067004  0.37812321  0.88102562  1
  O  O181  1  0.38221776  0.86651688  0.38442896  1
  O  O182  1  0.36643965  0.85123270  0.88302215  1
  O  O183  1  0.88257503  0.37816178  0.38122438  1
  O  O184  1  0.87936317  0.38089537  0.88038849  1
  O  O185  1  0.87570819  0.88198320  0.38326232  1
  O  O186  1  0.86815972  0.87145754  0.89158552  1
  O  O187  1  0.24888337  0.00905181  0.36732220  1
  O  O188  1  0.24625043  0.00740083  0.87685704  1
  O  O189  1  0.24571262  0.51330022  0.37590932  1
  O  O190  1  0.25004863  0.50122085  0.85947033  1
  O  O191  1  0.75868425  0.00973260  0.37867973  1
  O  O192  1  0.74613071  0.01276693  0.87148052  1
  O  O193  1  0.76437230  0.49769331  0.37456967  1
  O  O194  1  0.75608619  0.51402220  0.87955395  1
  O  O195  1  0.24046932  0.49247391  0.12635397  1
  O  O196  1  0.24525968  0.49300360  0.63418506  1
  O  O197  1  0.24721494  0.99019817  0.13031992  1
  O  O198  1  0.24326626  0.98983272  0.62302935  1
  O  O199  1  0.74442073  0.49317543  0.12029556  1
  O  O200  1  0.74073632  0.48834826  0.62066638  1
  O  O201  1  0.73815953  0.99186155  0.11544370  1
  O  O202  1  0.74146866  0.99726001  0.63273277  1
  O  O203  1  -0.00175786  0.36875677  0.26438755  1
  O  O204  1  0.00807110  0.36958738  0.75732795  1
  O  O205  1  0.01612944  0.88162101  0.24750347  1
  O  O206  1  0.00950085  0.85764891  0.74898748  1
  O  O207  1  0.49822078  0.37513637  0.25889071  1
  O  O208  1  0.50437525  0.37192272  0.75603141  1
  O  O209  1  0.49984157  0.87320920  0.25715445  1
  O  O210  1  0.51424729  0.86381320  0.74455040  1
  O  O211  1  0.48567590  0.12547210  0.24821412  1
  O  O212  1  0.49318936  0.13393349  0.75247003  1
  O  O213  1  0.49082690  0.63028306  0.24835855  1
  O  O214  1  0.50905997  0.63662496  0.74089928  1
  O  O215  1  1.00109793  0.12639318  0.23547571  1
  O  O216  1  0.99546302  0.12707293  0.74597166  1
  O  O217  1  0.99974050  0.62352376  0.24218044  1
  O  O218  1  1.00111555  0.64232512  0.74989886  1
  O  O219  1  0.37751285  0.26166789  0.00476366  1
  O  O220  1  0.36976525  0.25917898  0.50328440  1
  O  O221  1  0.36358659  0.75507821  0.01183219  1
  O  O222  1  0.36977968  0.75597763  0.50971883  1
  O  O223  1  0.86843611  0.25526223  0.00812459  1
  O  O224  1  0.87317747  0.26073433  0.50231033  1
  O  O225  1  0.86919063  0.76015515  0.00924250  1
  O  O226  1  0.87078837  0.75683882  0.50794061  1
  O  O227  1  0.13225657  0.23867336  0.49283714  1
  O  O228  1  0.12020773  0.23831144  0.98948714  1
  O  O229  1  0.13213077  0.74442582  0.49732270  1
  O  O230  1  0.12583677  0.75047351  0.99094259  1
  O  O231  1  0.62582410  0.24421457  0.48826703  1
  O  O232  1  0.63164385  0.24191876  1.00465299  1
  O  O233  1  0.62927049  0.74731941  0.49306061  1
  O  O234  1  0.63423271  0.75775649  0.99074666  1
  O  O235  1  0.48670467  0.24811610  0.12468421  1
  O  O236  1  0.49981829  0.24912933  0.63440107  1
  O  O237  1  0.48912591  0.75016338  0.12419023  1
  O  O238  1  0.49745884  0.74305082  0.63007843  1
  O  O239  1  0.99271854  0.24372657  0.12258147  1
  O  O240  1  1.00232892  0.23871693  0.63363380  1
  O  O241  1  0.99404340  0.73766407  0.12504495  1
  O  O242  1  0.98878998  0.74852278  0.63606731  1
  O  O243  1  0.01070882  0.25280496  0.37104018  1
  O  O244  1  0.00834931  0.25490466  0.87013449  1
  O  O245  1  0.01353246  0.75304874  0.37755221  1
  O  O246  1  0.00475172  0.74748010  0.86888014  1
  O  O247  1  0.50692824  0.26345958  0.37406241  1
  O  O248  1  0.49854563  0.26689654  0.86938597  1
  O  O249  1  0.50810657  0.76152332  0.37571804  1
  O  O250  1  0.51278737  0.74653108  0.86753218  1
  O  O251  1  0.24753389  0.12873877  0.49373661  1
  O  O252  1  0.23978063  0.11882744  0.99278843  1
  O  O253  1  0.24926965  0.63551694  0.49486049  1
  O  O254  1  0.24788934  0.63241071  1.00746007  1
  O  O255  1  0.73943917  0.12826913  0.49231734  1
  O  O256  1  0.74370152  0.13102956  0.99399040  1
  O  O257  1  0.74169024  0.63087792  0.49474501  1
  O  O258  1  0.75456296  0.63809477  0.99778919  1
  O  O259  1  0.26022633  0.38341384  0.00655875  1
  O  O260  1  0.25751781  0.37487693  0.50603140  1
  O  O261  1  0.25412749  0.87030825  0.00677586  1
  O  O262  1  0.25645745  0.86172260  0.49629669  1
  O  O263  1  0.75353315  0.36876048  0.00586828  1
  O  O264  1  0.75734889  0.37219573  0.50917004  1
  O  O265  1  0.75931945  0.86806832  0.00860059  1
  O  O266  1  0.76046882  0.87032006  0.50625858  1
  O  O267  1  0.12587990  0.50125764  0.23636804  1
  O  O268  1  0.13544098  0.49553401  0.74473179  1
  O  O269  1  0.13816872  0.99341069  0.24747244  1
  O  O270  1  0.11907841  0.98129068  0.75520882  1
  O  O271  1  0.62853945  0.49684434  0.23758484  1
  O  O272  1  0.61924743  0.49270099  0.73787774  1
  O  O273  1  0.61879819  1.00323719  0.23276901  1
  O  O274  1  0.63020050  0.99400261  0.74563661  1
  O  O275  1  0.36301868  0.00673790  0.24269756  1
  O  O276  1  0.38608399  0.01333058  0.75041788  1
  O  O277  1  0.37180529  0.51234572  0.24487051  1
  O  O278  1  0.35933104  0.50124861  0.75074673  1
  O  O279  1  0.87757483  0.00023904  0.26169376  1
  O  O280  1  0.87096595  0.01130899  0.74602358  1
  O  O281  1  0.87344557  0.49248526  0.26631527  1
  O  O282  1  0.87852433  0.49677471  0.76471032  1
  O  O283  1  0.11843978  0.36453783  0.38202535  1
  O  O284  1  0.12271588  0.36925861  0.87300845  1
  O  O285  1  0.12581513  0.86722859  0.36773553  1
  O  O286  1  0.11760924  0.86152461  0.86770915  1
  O  O287  1  0.61920575  0.36907394  0.37407286  1
  O  O288  1  0.61818477  0.38427734  0.86362101  1
  O  O289  1  0.61870774  0.86954751  0.37469643  1
  O  O290  1  0.63522219  0.86549191  0.86664758  1
  O  O291  1  0.37175570  0.13223301  0.12915404  1
  O  O292  1  0.37828936  0.12801347  0.63799552  1
  O  O293  1  0.37551995  0.63261344  0.13295475  1
  O  O294  1  0.38826444  0.63193467  0.61971426  1
  O  O295  1  0.88217717  0.13188073  0.12247890  1
  O  O296  1  0.88325439  0.12624069  0.63083903  1
  O  O297  1  0.88875293  0.63351247  0.12397461  1
  O  O298  1  0.86768260  0.63245206  0.61914878  1
  O  O299  1  0.26006968  0.25785131  0.12376177  1
  O  O300  1  0.25036287  0.26268099  0.61912147  1
  O  O301  1  0.25202305  0.75496673  0.11886662  1
  O  O302  1  0.25935652  0.75143823  0.61890556  1
  O  O303  1  0.75493996  0.25535579  0.11451849  1
  O  O304  1  0.75071836  0.26243288  0.62321305  1
  O  O305  1  0.75620846  0.75687468  0.11952554  1
  O  O306  1  0.75617990  0.75544824  0.62076275  1
  O  O307  1  0.24538827  0.24397485  0.38083117  1
  O  O308  1  0.24178551  0.24535175  0.87179748  1
  O  O309  1  0.24043132  0.74063788  0.38310898  1
  O  O310  1  0.22750623  0.74980619  0.88914896  1
  O  O311  1  0.74220713  0.24448576  0.37462251  1
  O  O312  1  0.75355501  0.24236094  0.88775817  1
  O  O313  1  0.74173113  0.75294272  0.38385040  1
  O  O314  1  0.74626118  0.73953205  0.88142009  1
  O  O315  1  0.00732336  0.11941290  0.00740985  1
  O  O316  1  0.00861197  0.12682433  0.50842298  1
  O  O317  1  -0.00612857  0.61600223  0.00548477  1
  O  O318  1  0.01225454  0.62831167  0.50083809  1
  O  O319  1  0.50336525  0.11596950  -0.00434005  1
  O  O320  1  0.51257806  0.12420187  0.49956266  1
  O  O321  1  0.49690761  0.61297717  0.00201729  1
  O  O322  1  0.50428962  0.61909575  0.50524386  1
  O  O323  1  0.49369442  0.38220522  0.49603022  1
  O  O324  1  0.49073291  0.38475328  0.99197122  1
  O  O325  1  0.48991877  0.87708297  0.49342330  1
  O  O326  1  0.48827231  0.88379712  0.99902984  1
  O  O327  1  0.99301967  0.36730472  0.48854876  1
  O  O328  1  0.99435200  0.38248548  0.99460232  1
  O  O329  1  0.98889480  0.87496901  0.50086874  1
  O  O330  1  0.98552532  0.88209951  1.00590179  1
  O  O331  1  0.50735098  0.48924983  0.38334626  1
  O  O332  1  0.49501610  0.49494404  0.87869818  1
  O  O333  1  0.50428558  0.98714561  0.37786587  1
  O  O334  1  0.50600851  0.99663849  0.88700083  1
  O  O335  1  0.99098519  0.49043810  0.37440069  1
  O  O336  1  0.99504544  0.49682533  0.88163382  1
  O  O337  1  0.99141742  0.99849552  0.37813890  1
  O  O338  1  0.99537595  1.00849347  0.88865379  1
  O  O339  1  0.00221384  0.00873622  0.11611385  1
  O  O340  1  0.00555199  0.01175663  0.62411608  1
  O  O341  1  0.00228939  0.50906990  0.12119781  1
  O  O342  1  0.01508775  0.49618659  0.63078863  1
  O  O343  1  0.50575837  0.00231467  0.11172051  1
  O  O344  1  0.51431324  0.00187344  0.62344037  1
  O  O345  1  0.50811231  0.50143651  0.11569667  1
  O  O346  1  0.50489939  0.50721229  0.62040336  1
  O  O347  1  0.25818339  0.37729929  0.23649404  1
  O  O348  1  0.24603019  0.37745127  0.74145201  1
  O  O349  1  0.24563909  0.88027201  0.24395827  1
  O  O350  1  0.22970126  0.85696521  0.75628755  1
  O  O351  1  0.74906437  0.37515085  0.23440230  1
  O  O352  1  0.74111253  0.36929047  0.74441747  1
  O  O353  1  0.74599568  0.87521397  0.23584735  1
  O  O354  1  0.74329625  0.87929344  0.74679489  1
  O  O355  1  0.25799913  0.11739498  0.25578767  1
  O  O356  1  0.26531303  0.12703353  0.75621414  1
  O  O357  1  0.25647188  0.62318921  0.25939589  1
  O  O358  1  0.24747943  0.61772934  0.74522654  1
  O  O359  1  0.74985029  0.12803982  0.25936860  1
  O  O360  1  0.75661285  0.12359106  0.75812575  1
  O  O361  1  0.75341357  0.62322961  0.25583164  1
  O  O362  1  0.74922402  0.62771120  0.76120643  1
  O  O363  1  0.36479531  0.13202972  0.36744258  1
  O  O364  1  0.36733503  0.12858150  0.86316198  1
  O  O365  1  0.36595498  0.63361783  0.36558638  1
  O  O366  1  0.36771831  0.64578943  0.86856713  1
  O  O367  1  0.86706002  0.11899922  0.37354100  1
  O  O368  1  0.86645880  0.12926555  0.86781902  1
  O  O369  1  0.87785022  0.60869039  0.38459466  1
  O  O370  1  0.86074819  0.61941990  0.87865147  1
  O  O371  1  0.13481444  0.38096431  0.12099128  1
  O  O372  1  0.13320378  0.38116550  0.62740658  1
  O  O373  1  0.13498316  0.87243811  0.13047968  1
  O  O374  1  0.12654205  0.87142047  0.64113967  1
  O  O375  1  0.63216329  0.38175926  0.12383716  1
  O  O376  1  0.63114946  0.38137445  0.63273263  1
  O  O377  1  0.63180078  0.88355436  0.12368731  1
  O  O378  1  0.63252876  0.88173403  0.63145609  1
  O  O379  1  0.12917307  0.24477014  0.26167187  1
  O  O380  1  0.12193426  0.25542687  0.75789255  1
  O  O381  1  0.13342989  0.75885491  0.26041275  1
  O  O382  1  0.11403140  0.75085958  0.76237829  1
  O  O383  1  0.62012110  0.25161749  0.25938694  1
  O  O384  1  0.61307877  0.26003814  0.74890580  1
  O  O385  1  0.62270808  0.75442359  0.26257000  1
  O  O386  1  0.62135320  0.75713630  0.75838248  1
  O  O387  1  0.37464088  0.24063745  0.24025207  1
  O  O388  1  0.38789817  0.24574959  0.74803487  1
  O  O389  1  0.37144168  0.74386408  0.23797666  1
  O  O390  1  0.38778431  0.75747949  0.73464373  1
  O  O391  1  0.87509135  0.24697857  0.23448951  1
  O  O392  1  0.88306227  0.23820052  0.74846170  1
  O  O393  1  0.87540673  0.75784688  0.24010925  1
  O  O394  1  0.88336268  0.75322920  0.74212672  1
  O  O395  1  0.38729610  0.49534420  0.50453220  1
  O  O396  1  0.38135093  0.49484415  0.99399286  1
  O  O397  1  0.37549008  0.98856761  0.50311570  1
  O  O398  1  0.38523475  0.98962118  0.99742994  1
  O  O399  1  0.87441879  0.48507012  0.48954993  1
  O  O400  1  0.88288109  0.49429704  0.99301625  1
  O  O401  1  0.87651322  0.99278161  0.49256302  1
  O  O402  1  0.87980723  0.98600208  1.00453628  1
  O  O403  1  0.11581025  0.00595207  -0.00021446  1
  O  O404  1  0.12326732  0.01329781  0.49682521  1
  O  O405  1  0.11277924  0.49679949  0.01267237  1
  O  O406  1  0.13081165  0.51246931  0.51048271  1
  O  O407  1  0.61364952  0.00467923  0.00479489  1
  O  O408  1  0.62656571  0.00754946  0.50848535  1
  O  O409  1  0.61379890  0.49503186  0.00824132  1
  O  O410  1  0.61452406  0.50191689  0.51031481  1
  O  O411  1  0.36832209  0.36990623  0.11483234  1
  O  O412  1  0.36774734  0.37642099  0.61497126  1
  O  O413  1  0.36337969  0.86806618  0.12169761  1
  O  O414  1  0.37555144  0.86688800  0.61660919  1
  O  O415  1  0.86940252  0.36984822  0.11882300  1
  O  O416  1  0.86937647  0.37472418  0.61929427  1
  O  O417  1  0.86816646  0.86882141  0.11962614  1
  O  O418  1  0.87023780  0.87344725  0.61957453  1
  O  O419  1  0.13525987  0.13070741  0.38052357  1
  O  O420  1  0.13472468  0.13152919  0.87867941  1
  O  O421  1  0.13083626  0.63015270  0.38356017  1
  O  O422  1  0.11835424  0.63508501  0.87666502  1
  O  O423  1  0.62999578  0.13068180  0.37915576  1
  O  O424  1  0.63297313  0.12451038  0.88629617  1
  O  O425  1  0.62212251  0.63505785  0.38192299  1
  O  O426  1  0.63914645  0.63290820  0.87438297  1
