# generated using pymatgen
data_V85Zn86O256
_symmetry_space_group_name_H-M   'P 1'
_cell_length_a   16.95719662
_cell_length_b   16.95442238
_cell_length_c   16.94777739
_cell_angle_alpha   90.07922138
_cell_angle_beta   90.03021317
_cell_angle_gamma   89.99313451
_symmetry_Int_Tables_number   1
_chemical_formula_structural   V85Zn86O256
_chemical_formula_sum   'V85 Zn86 O256'
_cell_volume   4872.47171192
_cell_formula_units_Z   1
loop_
 _symmetry_equiv_pos_site_id
 _symmetry_equiv_pos_as_xyz
  1  'x, y, z'
loop_
 _atom_site_type_symbol
 _atom_site_label
 _atom_site_symmetry_multiplicity
 _atom_site_fract_x
 _atom_site_fract_y
 _atom_site_fract_z
 _atom_site_occupancy
  V  V0  1  0.62647231  0.48712803  0.62794366  1
  V  V1  1  0.50367590  0.61867286  0.12499416  1
  V  V2  1  0.24634401  0.49645422  0.25132870  1
  V  V3  1  0.74455969  0.49951397  0.24358950  1
  V  V4  1  0.76094092  0.74834402  0.01937771  1
  V  V5  1  0.86105333  0.62153255  0.75647424  1
  V  V6  1  0.63041363  0.61755114  0.00155529  1
  V  V7  1  -0.01045488  0.49519850  0.00056673  1
  V  V8  1  0.87587160  0.87544437  0.50115470  1
  V  V9  1  0.00015473  0.87623566  0.87632205  1
  V  V10  1  0.25230782  0.00963065  0.24913565  1
  V  V11  1  0.64182411  0.74922708  0.87875826  1
  V  V12  1  0.37255009  0.24382947  0.13161111  1
  V  V13  1  0.24888022  0.74820470  -0.00002040  1
  V  V14  1  0.75062081  0.48017965  0.74645624  1
  V  V15  1  0.74977575  0.74990307  0.50119318  1
  V  V16  1  0.49789113  0.50583391  0.50252417  1
  V  V17  1  0.50064484  0.37868917  0.36709453  1
  V  V18  1  0.63127154  0.25292613  0.37070130  1
  V  V19  1  0.00413630  0.37871705  0.37026393  1
  V  V20  1  0.12203738  0.37253618  0.75246551  1
  V  V21  1  0.24798351  0.75421977  0.50158397  1
  V  V22  1  0.62618872  0.00060685  0.62839379  1
  V  V23  1  0.49683532  0.75454111  0.24761303  1
  V  V24  1  0.37722485  0.87682573  0.50144212  1
  V  V25  1  0.50289789  0.13493040  0.62931438  1
  V  V26  1  0.12364392  0.75235752  0.37636122  1
  V  V27  1  0.50398913  0.86883675  0.87617261  1
  V  V28  1  0.38124147  0.61932418  0.74402955  1
  V  V29  1  0.12798813  0.87868979  0.25101677  1
  V  V30  1  0.87285218  0.37804534  0.50339303  1
  V  V31  1  0.62529636  0.37646455  0.23965490  1
  V  V32  1  0.62142010  0.62736468  0.51096450  1
  V  V33  1  0.25962531  0.61336987  0.87828372  1
  V  V34  1  0.74886714  0.62435320  0.37474741  1
  V  V35  1  0.00645334  0.25318491  0.24944799  1
  V  V36  1  0.62745568  0.12579174  -0.00398690  1
  V  V37  1  0.62868426  0.12671830  0.49853574  1
  V  V38  1  0.50142780  0.00192695  0.50130285  1
  V  V39  1  0.11987519  0.24395057  0.87195368  1
  V  V40  1  0.37672626  0.00965646  0.36916267  1
  V  V41  1  0.50271023  -0.00174148  0.00419417  1
  V  V42  1  0.25044594  0.87908204  0.62709536  1
  V  V43  1  0.24775973  0.24256740  -0.00165211  1
  V  V44  1  0.37497021  0.87133755  0.00169788  1
  V  V45  1  0.11868842  0.49796256  0.62539326  1
  V  V46  1  0.87923959  0.00519249  0.88073654  1
  V  V47  1  0.62545874  0.87513006  0.75535486  1
  V  V48  1  0.87387346  0.62772397  0.24784185  1
  V  V49  1  0.87674741  0.49980979  0.37540185  1
  V  V50  1  0.37199800  0.00126754  0.87666091  1
  V  V51  1  0.62263613  0.75085282  0.37576827  1
  V  V52  1  0.12563992  0.87433777  0.74669989  1
  V  V53  1  0.12232177  0.11688032  -0.00340658  1
  V  V54  1  0.00074870  0.74277421  0.74779136  1
  V  V55  1  0.87683869  0.25673427  0.12054655  1
  V  V56  1  0.37239037  0.36736241  0.49680349  1
  V  V57  1  0.24853246  0.37088874  0.61992521  1
  V  V58  1  0.86749474  0.12170750  0.24965867  1
  V  V59  1  0.24698277  0.37340827  0.12496292  1
  V  V60  1  0.24513320  0.00550782  0.75248677  1
  V  V61  1  0.87585054  0.13192812  0.74043145  1
  V  V62  1  0.75025270  0.37937186  0.10876426  1
  V  V63  1  0.87459907  0.74653726  0.62660447  1
  V  V64  1  0.37909262  0.12310432  0.75548845  1
  V  V65  1  -0.00439233  0.62923801  0.12335962  1
  V  V66  1  -0.00876029  0.37432277  0.87879131  1
  V  V67  1  0.00116175  0.88441223  0.37754293  1
  V  V68  1  0.12371266  0.62274009  -0.00193071  1
  V  V69  1  0.63993734  0.87676117  0.24280779  1
  V  V70  1  0.45320227  0.30943771  0.81191379  1
  V  V71  1  -0.00418943  0.75251570  0.24752081  1
  V  V72  1  -0.00082974  0.01248071  0.52060451  1
  V  V73  1  0.75324325  0.25609862  0.51246124  1
  V  V74  1  0.88056896  0.87435961  0.01177461  1
  V  V75  1  0.74999623  0.87733947  0.62696009  1
  V  V76  1  0.24754882  0.62640013  0.37599045  1
  V  V77  1  0.12141033  0.49504360  0.12965440  1
  V  V78  1  0.00091884  0.11698178  0.12244731  1
  V  V79  1  0.63031307  0.25154222  0.86225554  1
  V  V80  1  0.75356470  0.24718292  -0.00583248  1
  V  V81  1  0.11707299  0.62129747  0.50310191  1
  V  V82  1  0.75001735  0.00333342  0.76551317  1
  V  V83  1  0.49786191  0.12295447  0.13263924  1
  V  V84  1  0.37439326  0.50274068  0.37048766  1
  Zn  Zn85  1  0.02288491  0.18827113  0.66382053  1
  Zn  Zn86  1  0.38202129  0.74526864  0.62460723  1
  Zn  Zn87  1  0.50186756  0.87785383  0.37345846  1
  Zn  Zn88  1  0.25210789  0.49881240  0.75203848  1
  Zn  Zn89  1  0.24957606  0.87377227  0.12633507  1
  Zn  Zn90  1  0.38001642  0.25460819  0.62724921  1
  Zn  Zn91  1  0.12581675  -0.00251980  0.12077816  1
  Zn  Zn92  1  0.50203586  0.74548056  0.74363596  1
  Zn  Zn93  1  0.47853159  0.49825539  -0.02859119  1
  Zn  Zn94  1  0.64253275  0.00650321  0.13894851  1
  Zn  Zn95  1  0.85674258  0.49774640  0.88248950  1
  Zn  Zn96  1  0.12782341  0.13905846  0.51110668  1
  Zn  Zn97  1  0.37397702  0.74830346  0.12575540  1
  Zn  Zn98  1  0.37570806  0.37496783  -0.00805667  1
  Zn  Zn99  1  0.49920420  0.24603970  0.24989551  1
  Zn  Zn100  1  0.24982112  0.13641276  0.38602974  1
  Zn  Zn101  1  -0.00686252  0.61024423  0.62489566  1
  Zn  Zn102  1  0.37242767  0.62920006  0.24850404  1
  Zn  Zn103  1  0.74843201  0.12212664  0.37048121  1
  Zn  Zn104  1  0.86756784  -0.00200786  0.37122963  1
  Zn  Zn105  1  0.12597261  0.74569573  0.87268042  1
  Zn  Zn106  1  0.13376774  0.25201854  0.37811072  1
  Zn  Zn107  1  0.18462661  0.18635405  0.18943103  1
  Zn  Zn108  1  0.19471764  0.18798448  0.68465485  1
  Zn  Zn109  1  0.18379208  0.68615509  0.18658761  1
  Zn  Zn110  1  0.19170198  0.68669081  0.68806558  1
  Zn  Zn111  1  0.68707934  0.19162241  0.18049694  1
  Zn  Zn112  1  0.69608628  0.18315162  0.68757584  1
  Zn  Zn113  1  0.68487052  0.68991313  0.18794106  1
  Zn  Zn114  1  0.68410078  0.68956826  0.68848795  1
  Zn  Zn115  1  0.31184335  0.31430049  0.30851941  1
  Zn  Zn116  1  0.29144203  0.30775367  0.81246263  1
  Zn  Zn117  1  0.31234377  0.81863638  0.31638613  1
  Zn  Zn118  1  0.31404626  0.80625719  0.81451408  1
  Zn  Zn119  1  0.81386165  0.31257928  0.30777808  1
  Zn  Zn120  1  0.80926681  0.31231649  0.81542199  1
  Zn  Zn121  1  0.81451851  0.81176214  0.31415122  1
  Zn  Zn122  1  0.81632691  0.81583514  0.81392293  1
  Zn  Zn123  1  0.18555026  0.43603436  0.43997234  1
  Zn  Zn124  1  0.18395209  0.43432206  0.94271231  1
  Zn  Zn125  1  0.20049841  0.97757296  0.45794958  1
  Zn  Zn126  1  0.18815371  0.93474361  0.93353311  1
  Zn  Zn127  1  0.68737308  0.43904292  0.43492123  1
  Zn  Zn128  1  0.65142395  0.45196829  0.91403784  1
  Zn  Zn129  1  0.68908207  0.93801715  0.43363318  1
  Zn  Zn130  1  0.70843931  0.95135727  0.97284801  1
  Zn  Zn131  1  0.31070314  0.06130398  0.06475964  1
  Zn  Zn132  1  0.31561424  0.06618817  0.56873783  1
  Zn  Zn133  1  0.31837396  0.55952006  0.06449092  1
  Zn  Zn134  1  0.30572554  0.55878833  0.56231207  1
  Zn  Zn135  1  0.81624629  0.06388569  0.06394317  1
  Zn  Zn136  1  0.81223970  0.06258533  0.55987589  1
  Zn  Zn137  1  0.81026409  0.56530647  0.06217311  1
  Zn  Zn138  1  0.81076164  0.55843550  0.56481834  1
  Zn  Zn139  1  0.45878852  0.41661613  0.14706169  1
  Zn  Zn140  1  0.43662558  0.44704288  0.68268668  1
  Zn  Zn141  1  0.43968266  0.93617953  0.18693773  1
  Zn  Zn142  1  0.43913920  0.93740207  0.68809834  1
  Zn  Zn143  1  0.93261775  0.43774585  0.18865054  1
  Zn  Zn144  1  0.95205553  0.39166910  0.67174972  1
  Zn  Zn145  1  0.93919462  0.94077904  0.18952068  1
  Zn  Zn146  1  0.93400739  0.93650655  0.69348744  1
  Zn  Zn147  1  0.06479901  0.06801572  0.31585209  1
  Zn  Zn148  1  0.05895027  0.06144339  0.80958601  1
  Zn  Zn149  1  0.06169936  0.56321966  0.31250668  1
  Zn  Zn150  1  0.06183190  0.55927675  0.81279900  1
  Zn  Zn151  1  0.56697459  0.06031916  0.31413541  1
  Zn  Zn152  1  0.56064216  0.06211392  0.81769656  1
  Zn  Zn153  1  0.56245489  0.56511708  0.30931591  1
  Zn  Zn154  1  0.56682170  0.56575197  0.81078080  1
  Zn  Zn155  1  0.44310159  0.18896044  0.43465970  1
  Zn  Zn156  1  0.43515733  0.18338774  0.94725231  1
  Zn  Zn157  1  0.43632116  0.68928359  0.43744651  1
  Zn  Zn158  1  0.44052340  0.68499382  0.93841980  1
  Zn  Zn159  1  0.93869868  0.19192449  0.43669117  1
  Zn  Zn160  1  0.93951496  0.18724040  0.93748545  1
  Zn  Zn161  1  0.93854401  0.68910917  0.43622347  1
  Zn  Zn162  1  0.93443578  0.68555220  0.93333980  1
  Zn  Zn163  1  0.06317628  0.31020673  0.06092064  1
  Zn  Zn164  1  0.05781647  0.31438123  0.55343760  1
  Zn  Zn165  1  0.06283466  0.81119625  0.06339168  1
  Zn  Zn166  1  0.06269640  0.81537618  0.56522981  1
  Zn  Zn167  1  0.56245372  0.31034444  0.05367831  1
  Zn  Zn168  1  0.56101967  0.31543152  0.55632726  1
  Zn  Zn169  1  0.56654929  0.80840741  0.06413608  1
  Zn  Zn170  1  0.55983992  0.81336005  0.56683707  1
  O  O171  1  0.11645546  0.12434498  0.11687672  1
  O  O172  1  0.11567140  0.13647538  0.62723585  1
  O  O173  1  0.11364524  0.61716268  0.11976512  1
  O  O174  1  0.12525212  0.61655207  0.61996411  1
  O  O175  1  0.61804644  0.12359014  0.11421260  1
  O  O176  1  0.62118199  0.11909927  0.61975806  1
  O  O177  1  0.61229883  0.63813826  0.11596685  1
  O  O178  1  0.62607362  0.62249887  0.61273888  1
  O  O179  1  0.38129002  0.38438263  0.37803419  1
  O  O180  1  0.38376446  0.36040330  0.86808245  1
  O  O181  1  0.37749079  0.88470378  0.38951424  1
  O  O182  1  0.38163073  0.87738308  0.88535819  1
  O  O183  1  0.87654634  0.38462567  0.37578891  1
  O  O184  1  0.88744408  0.37910450  0.86989382  1
  O  O185  1  0.88352358  0.87434348  0.38269805  1
  O  O186  1  0.88569137  0.88048464  0.87953868  1
  O  O187  1  0.26268012  -0.00481721  0.36279914  1
  O  O188  1  0.26482410  -0.00679766  0.86805885  1
  O  O189  1  0.25306617  0.50417450  0.36940844  1
  O  O190  1  0.24335168  0.51182265  0.87710920  1
  O  O191  1  0.75565499  0.00954675  0.38382425  1
  O  O192  1  0.76168919  -0.00891794  0.87300596  1
  O  O193  1  0.75402886  0.50710710  0.36506641  1
  O  O194  1  0.74279529  0.49201143  0.85255369  1
  O  O195  1  0.24212059  0.49505533  0.13152893  1
  O  O196  1  0.24066581  0.48872235  0.62767152  1
  O  O197  1  0.24823413  0.99453450  0.13412476  1
  O  O198  1  0.25915020  0.98690078  0.64026710  1
  O  O199  1  0.75840125  0.49141316  0.13332378  1
  O  O200  1  0.73446657  0.50369004  0.63040305  1
  O  O201  1  0.73563248  0.99102149  0.08041906  1
  O  O202  1  0.74377880  0.99485160  0.63199646  1
  O  O203  1  -0.00955255  0.36585098  0.25713679  1
  O  O204  1  0.01516024  0.38435795  0.76552648  1
  O  O205  1  0.00369640  0.86984143  0.25666099  1
  O  O206  1  0.00783220  0.86734576  0.75492946  1
  O  O207  1  0.50990633  0.37406644  0.24648429  1
  O  O208  1  0.49706145  0.36941749  0.74637950  1
  O  O209  1  0.50649279  0.86479102  0.25240918  1
  O  O210  1  0.50660874  0.87557332  0.76054280  1
  O  O211  1  0.50833003  0.12369162  0.23655267  1
  O  O212  1  0.48981157  0.11546137  0.74155678  1
  O  O213  1  0.50206539  0.63995679  0.24398425  1
  O  O214  1  0.48424055  0.62512220  0.75767991  1
  O  O215  1  0.99178460  0.13357018  0.24148672  1
  O  O216  1  0.98247294  0.12183828  0.75001246  1
  O  O217  1  0.99665530  0.63361235  0.24369293  1
  O  O218  1  0.99368990  0.62961767  0.74638965  1
  O  O219  1  0.36449667  0.25220736  0.00849289  1
  O  O220  1  0.38496004  0.26509558  0.49992639  1
  O  O221  1  0.36867412  0.75621470  -0.00035941  1
  O  O222  1  0.36752074  0.76041524  0.49949002  1
  O  O223  1  0.86566176  0.24492231  0.00728946  1
  O  O224  1  0.86129556  0.26309878  0.49292385  1
  O  O225  1  0.86841940  0.75443915  -0.00124143  1
  O  O226  1  0.87004636  0.75462653  0.50599817  1
  O  O227  1  0.12328460  0.25347344  0.49254058  1
  O  O228  1  0.12994112  0.23920198  0.99537266  1
  O  O229  1  0.13027840  0.74683970  0.49705224  1
  O  O230  1  0.13255140  0.74183029  0.99855601  1
  O  O231  1  0.63533079  0.25032437  0.49093764  1
  O  O232  1  0.63166649  0.24195036  0.99327141  1
  O  O233  1  0.62745427  0.74538985  0.49356922  1
  O  O234  1  0.64275289  0.74990256  0.99715056  1
  O  O235  1  0.49085445  0.23935477  0.12290829  1
  O  O236  1  0.50263360  0.23848422  0.61993093  1
  O  O237  1  0.49669398  0.74476970  0.13264418  1
  O  O238  1  0.49611697  0.74974727  0.62909244  1
  O  O239  1  0.99252560  0.24617085  0.12960469  1
  O  O240  1  0.98482237  0.28635165  0.63251121  1
  O  O241  1  1.00559943  0.74022556  0.13531136  1
  O  O242  1  0.99394677  0.75072756  0.63700434  1
  O  O243  1  -0.00425509  0.26196257  0.36402774  1
  O  O244  1  0.00991948  0.26112797  0.88295678  1
  O  O245  1  0.00560687  0.75969681  0.36911968  1
  O  O246  1  0.00000062  0.75593764  0.86178488  1
  O  O247  1  0.51238774  0.25879250  0.37180057  1
  O  O248  1  0.50782393  0.24825670  0.87707925  1
  O  O249  1  0.50745087  0.75208233  0.36857082  1
  O  O250  1  0.50657188  0.76096666  0.87830955  1
  O  O251  1  0.23656195  0.08736163  0.49428482  1
  O  O252  1  0.24148018  0.13558881  1.00726842  1
  O  O253  1  0.24052835  0.63256090  0.49511880  1
  O  O254  1  0.24780407  0.62880119  0.99284450  1
  O  O255  1  0.74625085  0.14033840  0.49906958  1
  O  O256  1  0.74100378  0.13853984  1.00348660  1
  O  O257  1  0.74064823  0.63047763  0.49481131  1
  O  O258  1  0.74906223  0.64175270  1.00270930  1
  O  O259  1  0.24707269  0.36094019  0.00790246  1
  O  O260  1  0.26167277  0.38258532  0.50684850  1
  O  O261  1  0.25703473  0.86583236  -0.00018392  1
  O  O262  1  0.25659048  0.87998569  0.50985005  1
  O  O263  1  0.74184808  0.36726327  0.00786491  1
  O  O264  1  0.75617457  0.36336473  0.48904799  1
  O  O265  1  0.77140822  0.85710189  -0.00585659  1
  O  O266  1  0.75606253  0.86885036  0.50604379  1
  O  O267  1  0.12976426  0.50596299  0.23739485  1
  O  O268  1  0.12963168  0.49373857  0.74298012  1
  O  O269  1  0.13290485  0.99281139  0.25039493  1
  O  O270  1  0.13909107  0.99274441  0.75873210  1
  O  O271  1  0.63688267  0.49335468  0.25427976  1
  O  O272  1  0.63520255  0.50659080  0.73343620  1
  O  O273  1  0.62487258  0.98256638  0.25240324  1
  O  O274  1  0.63238329  0.99553436  0.75158495  1
  O  O275  1  0.36853927  -0.00825596  0.25919067  1
  O  O276  1  0.36989919  0.00450175  0.75836157  1
  O  O277  1  0.36522035  0.50487146  0.26356598  1
  O  O278  1  0.37100334  0.51357824  0.75068178  1
  O  O279  1  0.87644481  0.01747576  0.24714433  1
  O  O280  1  0.86676722  0.00271580  0.76110468  1
  O  O281  1  0.86356542  0.50698312  0.25669696  1
  O  O282  1  0.85624288  0.50558314  0.74511065  1
  O  O283  1  0.10669131  0.38287597  0.37657490  1
  O  O284  1  0.12089453  0.36733386  0.86971931  1
  O  O285  1  0.11598186  0.87076008  0.36407431  1
  O  O286  1  0.11913196  0.86974989  0.86520749  1
  O  O287  1  0.62088426  0.37151015  0.36289434  1
  O  O288  1  0.62558157  0.34973507  0.86989009  1
  O  O289  1  0.62443355  0.86305436  0.36970372  1
  O  O290  1  0.61849179  0.86739444  0.87404614  1
  O  O291  1  0.38403816  0.13159292  0.11933077  1
  O  O292  1  0.38490138  0.13069415  0.63403600  1
  O  O293  1  0.38812786  0.62859572  0.12798551  1
  O  O294  1  0.36406491  0.62457230  0.64047770  1
  O  O295  1  0.88200109  0.13256351  0.13015082  1
  O  O296  1  0.86869827  0.12332196  0.64027690  1
  O  O297  1  0.88866143  0.61962504  0.13199345  1
  O  O298  1  0.87635046  0.62962523  0.63023582  1
  O  O299  1  0.25241453  0.25447806  0.12270751  1
  O  O300  1  0.26124316  0.26676677  0.63248911  1
  O  O301  1  0.25113600  0.74854468  0.11292599  1
  O  O302  1  0.25389013  0.76302242  0.62011316  1
  O  O303  1  0.75795951  0.25819461  0.11585136  1
  O  O304  1  0.74539460  0.25338295  0.61068412  1
  O  O305  1  0.75538238  0.75047787  0.11791055  1
  O  O306  1  0.75325039  0.75664447  0.61997848  1
  O  O307  1  0.24915042  0.24791177  0.36701480  1
  O  O308  1  0.23393895  0.24693000  0.88665250  1
  O  O309  1  0.24260301  0.74779009  0.38136648  1
  O  O310  1  0.24861515  0.73993600  0.88713772  1
  O  O311  1  0.73943855  0.24843632  0.37436511  1
  O  O312  1  0.74137965  0.24810625  0.88264955  1
  O  O313  1  0.74311992  0.74402064  0.38124554  1
  O  O314  1  0.74350825  0.75316420  0.87719337  1
  O  O315  1  0.00933035  0.12976881  0.01101274  1
  O  O316  1  -0.00808700  0.11493461  0.50264344  1
  O  O317  1  0.00293233  0.61963567  0.00649046  1
  O  O318  1  0.01281379  0.63222341  0.50468736  1
  O  O319  1  0.50517664  0.11604569  0.01047114  1
  O  O320  1  0.50774793  0.11959781  0.50735809  1
  O  O321  1  0.50800199  0.61996804  0.01023623  1
  O  O322  1  0.50753310  0.61380750  0.49030231  1
  O  O323  1  0.49468113  0.38928193  0.48984153  1
  O  O324  1  0.48861736  0.39081828  1.03430512  1
  O  O325  1  0.49420232  0.88473138  0.49926408  1
  O  O326  1  0.49555005  0.87924800  0.99680440  1
  O  O327  1  0.97854607  0.37747064  0.48497109  1
  O  O328  1  1.00582787  0.38472982  0.99330945  1
  O  O329  1  0.99148324  0.87563785  0.49409907  1
  O  O330  1  0.99064051  0.86252427  0.98933520  1
  O  O331  1  0.49208709  0.49793179  0.37643094  1
  O  O332  1  0.54535332  0.48836862  0.88581040  1
  O  O333  1  0.49575558  0.99905049  0.38335522  1
  O  O334  1  0.48971962  0.98721616  0.88080593  1
  O  O335  1  0.98610241  0.49491128  0.36481748  1
  O  O336  1  1.00423682  0.49163530  0.88812842  1
  O  O337  1  0.99297631  0.98928810  0.37275155  1
  O  O338  1  0.99486434  0.98375606  0.86943417  1
  O  O339  1  0.00448482  0.01345673  0.12805172  1
  O  O340  1  -0.00605806  -0.00156374  0.61909565  1
  O  O341  1  0.00465057  0.50333442  0.12135797  1
  O  O342  1  0.01488594  0.49240561  0.62806981  1
  O  O343  1  0.50417179  0.00431819  0.11743343  1
  O  O344  1  0.50603765  0.00813390  0.61909904  1
  O  O345  1  0.50530891  0.52154959  0.14391376  1
  O  O346  1  0.51266627  0.50224946  0.61407344  1
  O  O347  1  0.24955831  0.39046380  0.24346892  1
  O  O348  1  0.23851875  0.37981575  0.74416864  1
  O  O349  1  0.24061893  0.87881586  0.24821742  1
  O  O350  1  0.24479282  0.87786268  0.74750350  1
  O  O351  1  0.74481632  0.38258369  0.24101539  1
  O  O352  1  0.75414011  0.38173236  0.74080568  1
  O  O353  1  0.73876915  0.86867338  0.25122773  1
  O  O354  1  0.74589967  0.88409213  0.74690937  1
  O  O355  1  0.24713422  0.11140791  0.25070744  1
  O  O356  1  0.26648052  0.11635755  0.74645946  1
  O  O357  1  0.24827111  0.61621413  0.25606781  1
  O  O358  1  0.25697556  0.62489167  0.76492512  1
  O  O359  1  0.76412317  0.13092026  0.24379598  1
  O  O360  1  0.75805117  0.10893563  0.75158413  1
  O  O361  1  0.75236214  0.61981600  0.25274325  1
  O  O362  1  0.75962175  0.62557970  0.74631478  1
  O  O363  1  0.37540256  0.11278622  0.38150386  1
  O  O364  1  0.38389784  0.11298638  0.86956503  1
  O  O365  1  0.36589568  0.61938538  0.37481133  1
  O  O366  1  0.36401152  0.62675753  0.87037284  1
  O  O367  1  0.87541144  0.12998959  0.35665365  1
  O  O368  1  0.88310755  0.10830099  0.87400462  1
  O  O369  1  0.87006255  0.61954867  0.36958484  1
  O  O370  1  0.88036993  0.61397031  0.86176668  1
  O  O371  1  0.13516828  0.38174954  0.12223659  1
  O  O372  1  0.13212174  0.38022521  0.63158626  1
  O  O373  1  0.12328791  0.87635235  0.13782863  1
  O  O374  1  0.13355179  0.87319402  0.63866277  1
  O  O375  1  0.63486761  0.36826309  0.13416117  1
  O  O376  1  0.62353258  0.38896096  0.61817886  1
  O  O377  1  0.62370094  0.87309908  0.14115011  1
  O  O378  1  0.63045639  0.88208859  0.63354544  1
  O  O379  1  0.10913539  0.24887865  0.25018460  1
  O  O380  1  0.12976737  0.25760622  0.76077295  1
  O  O381  1  0.11575723  0.75554688  0.25565742  1
  O  O382  1  0.11806810  0.75522374  0.75001159  1
  O  O383  1  0.62499457  0.25839385  0.25448844  1
  O  O384  1  0.62809292  0.23286725  0.76370194  1
  O  O385  1  0.61947942  0.75832059  0.25798304  1
  O  O386  1  0.62412215  0.75610601  0.76130741  1
  O  O387  1  0.37975115  0.25273089  0.23539539  1
  O  O388  1  0.38360840  0.24601198  0.75781460  1
  O  O389  1  0.38263397  0.75122302  0.25101341  1
  O  O390  1  0.37652271  0.73605647  0.75008569  1
  O  O391  1  0.88046343  0.24196396  0.23832155  1
  O  O392  1  0.86453971  0.22941434  0.75905950  1
  O  O393  1  0.88831493  0.74432224  0.25608068  1
  O  O394  1  0.88043345  0.74105738  0.74669262  1
  O  O395  1  0.38131085  0.49853422  0.49038328  1
  O  O396  1  0.37007840  0.49074215  0.99532689  1
  O  O397  1  0.38844449  0.99625299  0.49795463  1
  O  O398  1  0.38237467  0.99354892  0.99493999  1
  O  O399  1  0.86191697  0.49302535  0.48321446  1
  O  O400  1  0.88535768  0.50312247  0.99872053  1
  O  O401  1  0.88512557  0.99188320  0.50025231  1
  O  O402  1  0.87809354  0.98324651  0.99348587  1
  O  O403  1  0.13351462  0.01239849  -0.00181486  1
  O  O404  1  0.09649109  -0.00849209  0.50007451  1
  O  O405  1  0.11791574  0.50480902  0.01306460  1
  O  O406  1  0.12956837  0.51134089  0.50942421  1
  O  O407  1  0.60749015  0.00705777  -0.01297245  1
  O  O408  1  0.61544698  0.00319886  0.50474651  1
  O  O409  1  0.65042695  0.52021543  0.00915934  1
  O  O410  1  0.61963272  0.50768815  0.50466843  1
  O  O411  1  0.35629800  0.36538972  0.12680902  1
  O  O412  1  0.37035433  0.37850914  0.61404513  1
  O  O413  1  0.37465148  0.87293078  0.11136562  1
  O  O414  1  0.37047194  0.87601937  0.61500041  1
  O  O415  1  0.86642134  0.36431437  0.12681302  1
  O  O416  1  0.86383405  0.39702927  0.60072912  1
  O  O417  1  0.88736906  0.87552895  0.11055307  1
  O  O418  1  0.86875639  0.86726336  0.62236442  1
  O  O419  1  0.12670990  0.12904925  0.38493786  1
  O  O420  1  0.11419603  0.13286363  0.88213290  1
  O  O421  1  0.12759429  0.63034259  0.38345083  1
  O  O422  1  0.13435753  0.62558802  0.88145821  1
  O  O423  1  0.62471565  0.13579066  0.38106193  1
  O  O424  1  0.61721892  0.13147456  0.88959165  1
  O  O425  1  0.62877116  0.63575600  0.38027385  1
  O  O426  1  0.61959794  0.64210107  0.88778039  1
