# generated using pymatgen
data_V85Zn86O256
_symmetry_space_group_name_H-M   'P 1'
_cell_length_a   16.92073578
_cell_length_b   16.91784003
_cell_length_c   16.92111459
_cell_angle_alpha   89.96208393
_cell_angle_beta   90.03512067
_cell_angle_gamma   89.98878332
_symmetry_Int_Tables_number   1
_chemical_formula_structural   V85Zn86O256
_chemical_formula_sum   'V85 Zn86 O256'
_cell_volume   4843.87513461
_cell_formula_units_Z   1
loop_
 _symmetry_equiv_pos_site_id
 _symmetry_equiv_pos_as_xyz
  1  'x, y, z'
loop_
 _atom_site_type_symbol
 _atom_site_label
 _atom_site_symmetry_multiplicity
 _atom_site_fract_x
 _atom_site_fract_y
 _atom_site_fract_z
 _atom_site_occupancy
  V  V0  1  0.13069414  0.37429150  0.24833190  1
  V  V1  1  0.87315837  0.25480013  0.12015033  1
  V  V2  1  0.12126185  0.62122982  0.49661102  1
  V  V3  1  0.37569270  0.49799107  0.37296699  1
  V  V4  1  0.12958970  0.24847172  0.37929542  1
  V  V5  1  -0.00155076  0.00615530  -0.00467756  1
  V  V6  1  0.12647134  0.87303372  0.24621074  1
  V  V7  1  0.74319534  0.12229201  0.86108239  1
  V  V8  1  0.37655953  0.62069310  0.74981971  1
  V  V9  1  0.74799952  0.75556416  0.49001137  1
  V  V10  1  0.62529007  0.00214066  0.12613789  1
  V  V11  1  0.20608178  0.31548977  0.06657255  1
  V  V12  1  0.00632471  0.00502251  0.52173528  1
  V  V13  1  0.25031972  0.49823463  0.24358286  1
  V  V14  1  0.62750478  0.87496146  0.75722185  1
  V  V15  1  0.00084804  0.12535909  0.12121956  1
  V  V16  1  0.50634433  0.61627785  0.62602647  1
  V  V17  1  0.74183337  0.62627841  0.86869437  1
  V  V18  1  0.38310658  0.37695613  0.00939869  1
  V  V19  1  0.88858291  0.11834963  0.74349981  1
  V  V20  1  -0.00194477  0.74898944  0.25016761  1
  V  V21  1  0.62539674  0.00278469  0.63069853  1
  V  V22  1  0.37511072  -0.00459458  0.87277194  1
  V  V23  1  0.74309567  0.49440061  0.25075126  1
  V  V24  1  0.62274787  0.12920616  0.50059930  1
  V  V25  1  0.73834795  0.74932093  -0.00718762  1
  V  V26  1  0.49492725  0.12397792  0.13242142  1
  V  V27  1  0.50617398  0.74949373  0.75691919  1
  V  V28  1  0.25249487  0.87487769  0.11852927  1
  V  V29  1  0.25269087  0.49409418  0.74828244  1
  V  V30  1  -0.00450548  0.37215968  0.87590086  1
  V  V31  1  0.24686923  0.01031562  0.74898957  1
  V  V32  1  0.24306783  0.87298924  0.63108952  1
  V  V33  1  0.38716984  0.49925595  0.88336461  1
  V  V34  1  0.51495451  0.37335700  0.37254625  1
  V  V35  1  0.12207330  0.74593145  0.88077746  1
  V  V36  1  0.49509249  -0.00601968  0.00084954  1
  V  V37  1  0.62487968  0.63248363  0.49439990  1
  V  V38  1  0.37767355  0.75065774  0.62668546  1
  V  V39  1  0.87291582  0.62134610  0.24874982  1
  V  V40  1  0.25164617  0.74602924  -0.00158043  1
  V  V41  1  0.37563835  0.62559478  0.24970270  1
  V  V42  1  0.00056226  0.74691251  0.74709774  1
  V  V43  1  0.87238297  0.87512652  -0.00205015  1
  V  V44  1  0.24983496  0.12949142  0.89435901  1
  V  V45  1  0.00289260  0.88851894  0.37293970  1
  V  V46  1  0.74782219  0.13281501  0.37700316  1
  V  V47  1  0.50085702  0.87347609  0.37900407  1
  V  V48  1  0.12708902  0.37219567  0.75236437  1
  V  V49  1  0.37484540  0.25015347  0.13162887  1
  V  V50  1  0.49065348  0.00105821  0.50271155  1
  V  V51  1  0.51414974  0.25112681  0.25706958  1
  V  V52  1  0.62838445  0.87240616  0.25789310  1
  V  V53  1  0.74314442  0.37262577  0.12695664  1
  V  V54  1  -0.00106265  0.38285248  0.37958121  1
  V  V55  1  -0.00132234  0.61786511  0.61971692  1
  V  V56  1  0.87273462  0.74924429  0.12231429  1
  V  V57  1  0.74965085  0.87623966  0.12494622  1
  V  V58  1  0.62352862  0.13024445  -0.00471857  1
  V  V59  1  0.74825508  0.25264132  0.50601896  1
  V  V60  1  0.48021405  0.13239872  0.62884436  1
  V  V61  1  0.50492611  0.74821410  0.25582059  1
  V  V62  1  0.75117222  0.25349316  -0.00818599  1
  V  V63  1  0.12866678  0.49572552  0.62243785  1
  V  V64  1  -0.00383488  0.50754336  -0.00405389  1
  V  V65  1  0.62749393  0.38064099  0.75897556  1
  V  V66  1  0.12473688  0.00184508  0.11604422  1
  V  V67  1  0.50875200  0.49942653  0.50235696  1
  V  V68  1  0.37346920  0.37660586  0.50709747  1
  V  V69  1  0.87859396  0.38188730  0.50474543  1
  V  V70  1  0.50378079  0.61866738  0.11846185  1
  V  V71  1  0.86556556  0.49385245  0.87468768  1
  V  V72  1  0.86967604  0.61763976  0.74736834  1
  V  V73  1  -0.00134011  0.87365571  0.87486470  1
  V  V74  1  0.25322675  0.25600139  0.51317822  1
  V  V75  1  0.75079247  0.00287712  0.25336027  1
  V  V76  1  0.87780250  0.12607097  0.25222225  1
  V  V77  1  0.12792156  0.50861256  0.11616011  1
  V  V78  1  0.24471548  0.62180430  0.87682242  1
  V  V79  1  0.50603353  0.35953281  0.88246418  1
  V  V80  1  0.74282933  0.38983978  0.62974056  1
  V  V81  1  0.75031329  0.87712738  0.62710727  1
  V  V82  1  -0.00143815  0.25152706  0.25285914  1
  V  V83  1  0.37792260  0.75386205  0.12032173  1
  V  V84  1  0.25080983  0.74833306  0.49839548  1
  Zn  Zn85  1  0.26505139  0.12487553  0.37255526  1
  Zn  Zn86  1  0.00476712  0.24606902  0.74629022  1
  Zn  Zn87  1  0.00063430  0.62635325  0.11880158  1
  Zn  Zn88  1  0.61775355  0.61904282  -0.01147619  1
  Zn  Zn89  1  0.87754868  0.87596239  0.50005213  1
  Zn  Zn90  1  0.49916226  0.86829861  0.88161921  1
  Zn  Zn91  1  0.86692013  -0.00298226  0.86970616  1
  Zn  Zn92  1  0.24918166  0.62578958  0.37290157  1
  Zn  Zn93  1  0.38055378  0.00951535  0.35864489  1
  Zn  Zn94  1  0.11535628  0.12884755  0.51790529  1
  Zn  Zn95  1  0.12632837  0.74955728  0.37376221  1
  Zn  Zn96  1  0.87586397  0.50355915  0.37770154  1
  Zn  Zn97  1  0.62013824  0.49224596  0.12155227  1
  Zn  Zn98  1  0.49570056  0.24432201  0.75275717  1
  Zn  Zn99  1  0.37047884  0.87683564  0.49747131  1
  Zn  Zn100  1  0.12306265  0.87829342  0.74900590  1
  Zn  Zn101  1  0.12683841  0.24661407  0.88871717  1
  Zn  Zn102  1  0.88281898  0.24736618  0.62526878  1
  Zn  Zn103  1  0.87414596  0.74933944  0.62090041  1
  Zn  Zn104  1  0.74517526  0.62826545  0.37108437  1
  Zn  Zn105  1  0.25548126  0.00244602  0.25306347  1
  Zn  Zn106  1  0.87828696  0.00447339  0.38004471  1
  Zn  Zn107  1  0.18341577  0.17948438  0.19222553  1
  Zn  Zn108  1  0.19056920  0.19093459  0.69084825  1
  Zn  Zn109  1  0.18801234  0.68582813  0.18593762  1
  Zn  Zn110  1  0.18659108  0.68470094  0.68841632  1
  Zn  Zn111  1  0.68700296  0.18735790  0.18556175  1
  Zn  Zn112  1  0.67933971  0.19750871  0.68605430  1
  Zn  Zn113  1  0.68786099  0.68820893  0.18722310  1
  Zn  Zn114  1  0.68694722  0.69010486  0.68147688  1
  Zn  Zn115  1  0.31710478  0.31225702  0.31371740  1
  Zn  Zn116  1  0.31544435  0.30606655  0.82036795  1
  Zn  Zn117  1  0.31492295  0.81650796  0.31123251  1
  Zn  Zn118  1  0.31622989  0.81447723  0.81352592  1
  Zn  Zn119  1  0.81169123  0.31306230  0.31535982  1
  Zn  Zn120  1  0.81222793  0.30613623  0.80750113  1
  Zn  Zn121  1  0.81722302  0.81434039  0.31499809  1
  Zn  Zn122  1  0.81282476  0.80905025  0.80899449  1
  Zn  Zn123  1  0.18889351  0.43828189  0.43445474  1
  Zn  Zn124  1  0.18512893  0.44122793  0.93292774  1
  Zn  Zn125  1  0.18838710  0.94075409  0.43823227  1
  Zn  Zn126  1  0.18757244  0.93426802  0.93522734  1
  Zn  Zn127  1  0.69170833  0.44183069  0.44000180  1
  Zn  Zn128  1  0.68580332  0.43917585  0.94227631  1
  Zn  Zn129  1  0.68525960  0.94409619  0.44065211  1
  Zn  Zn130  1  0.68410482  0.94228004  0.93736509  1
  Zn  Zn131  1  0.31772140  0.05883624  0.06694168  1
  Zn  Zn132  1  0.27768005  0.08296406  0.58242682  1
  Zn  Zn133  1  0.31378635  0.56368014  0.06263500  1
  Zn  Zn134  1  0.31460469  0.56143609  0.56270727  1
  Zn  Zn135  1  0.81230692  0.06605596  0.05941836  1
  Zn  Zn136  1  0.81497664  0.05825379  0.56260446  1
  Zn  Zn137  1  0.80782856  0.55998758  0.05828077  1
  Zn  Zn138  1  0.81044664  0.56449780  0.55943708  1
  Zn  Zn139  1  0.44055867  0.43319941  0.19130850  1
  Zn  Zn140  1  0.41570073  0.39750636  0.70987578  1
  Zn  Zn141  1  0.43828137  0.93429183  0.18795707  1
  Zn  Zn142  1  0.43604326  0.93819613  0.68946138  1
  Zn  Zn143  1  0.93632913  0.43756931  0.18601119  1
  Zn  Zn144  1  0.93840524  0.43525609  0.68737535  1
  Zn  Zn145  1  0.93705555  0.93932006  0.18708914  1
  Zn  Zn146  1  0.93264538  0.93582728  0.69111407  1
  Zn  Zn147  1  0.08663382  0.07093269  0.30649688  1
  Zn  Zn148  1  0.06960147  0.06299346  0.81716772  1
  Zn  Zn149  1  0.06310994  0.56242148  0.30856797  1
  Zn  Zn150  1  0.06043720  0.55999402  0.81037906  1
  Zn  Zn151  1  0.56038159  0.06448988  0.31612422  1
  Zn  Zn152  1  0.55944575  0.06348902  0.80998948  1
  Zn  Zn153  1  0.56443429  0.56107724  0.31151012  1
  Zn  Zn154  1  0.56540481  0.55256397  0.80531230  1
  Zn  Zn155  1  0.43433168  0.18868276  0.43936269  1
  Zn  Zn156  1  0.42888153  0.18385690  0.94488182  1
  Zn  Zn157  1  0.43735019  0.68696016  0.43725058  1
  Zn  Zn158  1  0.43326238  0.68694020  0.93720140  1
  Zn  Zn159  1  0.93903005  0.18989375  0.44285911  1
  Zn  Zn160  1  0.93145023  0.18726845  0.92919059  1
  Zn  Zn161  1  0.93648102  0.69117468  0.43460295  1
  Zn  Zn162  1  0.92976184  0.68471222  0.93467721  1
  Zn  Zn163  1  0.04127078  0.32203849  0.06165508  1
  Zn  Zn164  1  0.06111409  0.31424728  0.56552693  1
  Zn  Zn165  1  0.06152008  0.81155722  0.05938784  1
  Zn  Zn166  1  0.06238746  0.81131096  0.55963571  1
  Zn  Zn167  1  0.56286383  0.30933590  0.06373843  1
  Zn  Zn168  1  0.56390683  0.31241631  0.56514289  1
  Zn  Zn169  1  0.56465505  0.81137665  0.06684716  1
  Zn  Zn170  1  0.56447536  0.81143666  0.56673252  1
  O  O171  1  0.11499785  0.11268783  0.12266567  1
  O  O172  1  0.16856917  0.11333169  0.61577499  1
  O  O173  1  0.12016939  0.61258873  0.12696384  1
  O  O174  1  0.11855476  0.61696379  0.61887398  1
  O  O175  1  0.61663467  0.12003962  0.11870713  1
  O  O176  1  0.62426458  0.11796953  0.61636715  1
  O  O177  1  0.60831815  0.62970879  0.12650651  1
  O  O178  1  0.61543485  0.62902319  0.61277808  1
  O  O179  1  0.38518438  0.38641071  0.37956548  1
  O  O180  1  0.38508308  0.38132224  0.89091045  1
  O  O181  1  0.39100899  0.87552903  0.37646934  1
  O  O182  1  0.37769618  0.88884416  0.87865341  1
  O  O183  1  0.88272892  0.37608491  0.38359150  1
  O  O184  1  0.88074166  0.38363538  0.86257788  1
  O  O185  1  0.88806650  0.88204909  0.37485633  1
  O  O186  1  0.87990789  0.87584936  0.87893544  1
  O  O187  1  0.26025173  -0.00246449  0.37496323  1
  O  O188  1  0.25736821  0.00265741  0.87098745  1
  O  O189  1  0.25933292  0.50222179  0.36532997  1
  O  O190  1  0.25713742  0.50792998  0.87044846  1
  O  O191  1  0.75275302  0.01351126  0.37213730  1
  O  O192  1  0.74957016  0.01795484  0.88015170  1
  O  O193  1  0.75374233  0.50351893  0.36537239  1
  O  O194  1  0.76029604  0.50660194  0.87709090  1
  O  O195  1  0.24107565  0.50378592  0.12973806  1
  O  O196  1  0.24259089  0.50853858  0.63726503  1
  O  O197  1  0.24130769  0.99021637  0.12198666  1
  O  O198  1  0.26678854  0.98567232  0.64429946  1
  O  O199  1  0.75613553  0.48673569  0.13168966  1
  O  O200  1  0.75091617  0.48810692  0.62355303  1
  O  O201  1  0.74558212  0.99637676  0.13089726  1
  O  O202  1  0.73987260  0.98663395  0.61734050  1
  O  O203  1  0.00994795  0.37009530  0.25236980  1
  O  O204  1  0.00999032  0.37825867  0.76064306  1
  O  O205  1  0.00481672  0.86747893  0.25231271  1
  O  O206  1  0.00058976  0.86446602  0.75574805  1
  O  O207  1  0.50332292  0.36359344  0.25816197  1
  O  O208  1  0.51362997  0.38594036  0.77062757  1
  O  O209  1  0.50932388  0.86755570  0.25581016  1
  O  O210  1  0.50662299  0.86546378  0.75066006  1
  O  O211  1  0.50685714  0.13596827  0.24231014  1
  O  O212  1  0.50008245  0.12653081  0.73385624  1
  O  O213  1  0.49641147  0.63247654  0.24407709  1
  O  O214  1  0.49753164  0.62839618  0.74325959  1
  O  O215  1  0.99850384  0.13233718  0.24401544  1
  O  O216  1  0.99176213  0.12229715  0.75477053  1
  O  O217  1  0.99295371  0.63298886  0.24580256  1
  O  O218  1  0.99400024  0.62927288  0.74190858  1
  O  O219  1  0.37795658  0.26056098  0.01781329  1
  O  O220  1  0.36965362  0.26902404  0.49659613  1
  O  O221  1  0.36580257  0.74843155  0.00804164  1
  O  O222  1  0.36856410  0.75011095  0.50818482  1
  O  O223  1  0.86464212  0.24099477  0.00854844  1
  O  O224  1  0.86662608  0.26201990  0.50219321  1
  O  O225  1  0.86750971  0.75654115  0.00457020  1
  O  O226  1  0.86567431  0.75409869  0.50091058  1
  O  O227  1  0.14082831  0.26267460  0.49594287  1
  O  O228  1  0.13319444  0.26672260  1.01013303  1
  O  O229  1  0.13245329  0.73844922  0.49859152  1
  O  O230  1  0.12968651  0.74831272  0.98776082  1
  O  O231  1  0.63356377  0.24108598  0.50407429  1
  O  O232  1  0.63238083  0.23656455  1.00505010  1
  O  O233  1  0.63275341  0.74446652  0.50180792  1
  O  O234  1  0.63527507  0.74587615  1.00135160  1
  O  O235  1  0.49614967  0.24348519  0.13597513  1
  O  O236  1  0.49805957  0.23374927  0.61796510  1
  O  O237  1  0.49390603  0.74581498  0.13432803  1
  O  O238  1  0.49289154  0.74181859  0.63288976  1
  O  O239  1  0.99143582  0.24522356  0.12934969  1
  O  O240  1  0.99767181  0.25334530  0.63175638  1
  O  O241  1  0.99319491  0.75016844  0.13330089  1
  O  O242  1  1.00103086  0.73945340  0.63184052  1
  O  O243  1  0.00446684  0.26262203  0.37157513  1
  O  O244  1  0.00479227  0.25755686  0.87310581  1
  O  O245  1  0.00107600  0.75927475  0.36154104  1
  O  O246  1  0.00547083  0.74983474  0.86976384  1
  O  O247  1  0.49837605  0.25742364  0.36359964  1
  O  O248  1  0.49620149  0.25713698  0.87995986  1
  O  O249  1  0.49776445  0.75534023  0.36367642  1
  O  O250  1  0.49399967  0.74906479  0.86205964  1
  O  O251  1  0.25921507  0.15113395  0.49063578  1
  O  O252  1  0.24998115  0.11783799  0.99307305  1
  O  O253  1  0.24489041  0.63505319  0.49986421  1
  O  O254  1  0.25300950  0.63608560  0.99191784  1
  O  O255  1  0.74596686  0.13163013  0.49627318  1
  O  O256  1  0.74177599  0.13287981  0.99351584  1
  O  O257  1  0.74214933  0.63507768  0.49854486  1
  O  O258  1  0.75180397  0.63510921  0.98812248  1
  O  O259  1  0.25863815  0.37661907  0.00069462  1
  O  O260  1  0.26527246  0.37139103  0.49044917  1
  O  O261  1  0.24434828  0.86228620  0.01047944  1
  O  O262  1  0.24970906  0.86356367  0.50924159  1
  O  O263  1  0.74789170  0.35953058  0.00703915  1
  O  O264  1  0.75350838  0.37048340  0.50992360  1
  O  O265  1  0.75187061  0.86946253  0.00244355  1
  O  O266  1  0.74939479  0.87069035  0.50398791  1
  O  O267  1  0.12768320  0.49189181  0.23835712  1
  O  O268  1  0.13267240  0.49375114  0.74471493  1
  O  O269  1  0.11791463  0.98117522  0.23189259  1
  O  O270  1  0.14307005  0.99585338  0.75679351  1
  O  O271  1  0.63900857  0.50529894  0.24231132  1
  O  O272  1  0.63003926  0.48189692  0.74444537  1
  O  O273  1  0.63069224  0.99482677  0.24599494  1
  O  O274  1  0.61891922  0.99263685  0.73769846  1
  O  O275  1  0.36873825  -0.00169610  0.24289265  1
  O  O276  1  0.36764857  -0.00382324  0.76574899  1
  O  O277  1  0.37118571  0.50318385  0.25465168  1
  O  O278  1  0.36839316  0.49859948  0.75975281  1
  O  O279  1  0.86802228  0.00972492  0.25002326  1
  O  O280  1  0.87360914  0.01280664  0.75242627  1
  O  O281  1  0.86762595  0.50804331  0.24885840  1
  O  O282  1  0.88050070  0.51154897  0.75678664  1
  O  O283  1  0.11844668  0.37089395  0.36794352  1
  O  O284  1  0.11688397  0.37303350  0.86821022  1
  O  O285  1  0.12028485  0.87146208  0.36292778  1
  O  O286  1  0.11721932  0.86317274  0.87277938  1
  O  O287  1  0.61392694  0.37898989  0.38296787  1
  O  O288  1  0.62233331  0.37543016  0.86885381  1
  O  O289  1  0.61711035  0.88140326  0.36508068  1
  O  O290  1  0.62200138  0.88196650  0.86126182  1
  O  O291  1  0.38731368  0.13341872  0.12183941  1
  O  O292  1  0.38237938  0.12244037  0.62118448  1
  O  O293  1  0.38511830  0.63404950  0.12920531  1
  O  O294  1  0.38121969  0.63318560  0.63072418  1
  O  O295  1  0.87964186  0.13319529  0.13208992  1
  O  O296  1  0.86695365  0.12385180  0.64173050  1
  O  O297  1  0.87479281  0.63057521  0.13305700  1
  O  O298  1  0.88176448  0.62505229  0.62930754  1
  O  O299  1  0.25525599  0.24586967  0.13123234  1
  O  O300  1  0.25245242  0.26028769  0.61157565  1
  O  O301  1  0.25659447  0.75184386  0.11700008  1
  O  O302  1  0.25796278  0.75230177  0.62153783  1
  O  O303  1  0.75611801  0.25315655  0.11917323  1
  O  O304  1  0.75387918  0.25648189  0.61464921  1
  O  O305  1  0.75389932  0.75673828  0.11673574  1
  O  O306  1  0.74963747  0.76201791  0.61268501  1
  O  O307  1  0.24110630  0.25335358  0.37612802  1
  O  O308  1  0.25187586  0.23477709  0.88098507  1
  O  O309  1  0.25070244  0.74921097  0.38422706  1
  O  O310  1  0.24450945  0.74420038  0.87989890  1
  O  O311  1  0.75288807  0.23992645  0.38569578  1
  O  O312  1  0.75343275  0.23724341  0.88274363  1
  O  O313  1  0.75134279  0.75066934  0.38513495  1
  O  O314  1  0.75487309  0.74022664  0.88214210  1
  O  O315  1  -0.00847988  0.11210743  0.00065879  1
  O  O316  1  -0.00266332  0.11088261  0.50667740  1
  O  O317  1  -0.00425641  0.61350035  -0.00155014  1
  O  O318  1  0.00839441  0.63028268  0.50677185  1
  O  O319  1  0.50648625  0.11793376  0.00834811  1
  O  O320  1  0.50577969  0.11933370  0.50840992  1
  O  O321  1  0.49960330  0.63277281  0.01474815  1
  O  O322  1  0.50508222  0.62053281  0.50529778  1
  O  O323  1  0.49320627  0.38194747  0.49551345  1
  O  O324  1  0.49625063  0.37507996  0.99629464  1
  O  O325  1  0.50254992  0.87998299  0.49341292  1
  O  O326  1  0.51245459  0.88893438  0.99967437  1
  O  O327  1  0.99147820  0.37473598  0.49173855  1
  O  O328  1  0.99517317  0.38768531  0.98327566  1
  O  O329  1  1.00210769  0.88381404  0.49049342  1
  O  O330  1  0.99178205  0.88129810  0.99455731  1
  O  O331  1  0.49546190  0.49408521  0.38007374  1
  O  O332  1  0.48919239  0.50146132  0.87724303  1
  O  O333  1  0.50141497  0.99127140  0.38453021  1
  O  O334  1  0.48918084  1.00187014  0.88172529  1
  O  O335  1  0.99839879  0.48678753  0.36660710  1
  O  O336  1  0.99169674  0.49611813  0.87910723  1
  O  O337  1  1.00604806  0.99195019  0.36375438  1
  O  O338  1  0.99990743  0.99283907  0.88145314  1
  O  O339  1  0.00436926  0.00348577  0.11539282  1
  O  O340  1  0.00507266  -0.00835455  0.61979731  1
  O  O341  1  0.00606150  0.49763546  0.11341762  1
  O  O342  1  0.00922479  0.51158616  0.62910670  1
  O  O343  1  0.50454312  0.00659703  0.11991812  1
  O  O344  1  0.50447735  0.00835225  0.62076230  1
  O  O345  1  0.49929985  0.51586149  0.13290317  1
  O  O346  1  0.49193177  0.51390431  0.61589526  1
  O  O347  1  0.23751255  0.38005661  0.25414713  1
  O  O348  1  0.24224922  0.38779657  0.76271442  1
  O  O349  1  0.24119772  0.86972750  0.23564072  1
  O  O350  1  0.24842635  0.87923846  0.74630531  1
  O  O351  1  0.75599223  0.38234524  0.24195147  1
  O  O352  1  0.74168403  0.36824465  0.73833425  1
  O  O353  1  0.74454374  0.88025295  0.24832471  1
  O  O354  1  0.74090948  0.86771251  0.74043439  1
  O  O355  1  0.20230979  0.10616455  0.27345429  1
  O  O356  1  0.25458359  0.11185122  0.76054851  1
  O  O357  1  0.25824474  0.61946659  0.25037563  1
  O  O358  1  0.25670787  0.61700297  0.75741028  1
  O  O359  1  0.75427535  0.12420780  0.25870346  1
  O  O360  1  0.74328841  0.13075071  0.75996509  1
  O  O361  1  0.75674647  0.61905401  0.24940902  1
  O  O362  1  0.75958630  0.63394418  0.75314898  1
  O  O363  1  0.37982145  0.12434056  0.36922640  1
  O  O364  1  0.36262339  0.11156608  0.88241376  1
  O  O365  1  0.37680867  0.61360532  0.36864121  1
  O  O366  1  0.36625978  0.61749490  0.86999188  1
  O  O367  1  0.86915975  0.12635049  0.36904079  1
  O  O368  1  0.86163472  0.12151287  0.86104984  1
  O  O369  1  0.87475969  0.62520383  0.36044876  1
  O  O370  1  0.86538440  0.61693782  0.86469977  1
  O  O371  1  0.13203716  0.37502879  0.12774608  1
  O  O372  1  0.12275597  0.39041545  0.63283728  1
  O  O373  1  0.13204318  0.87629028  0.12697512  1
  O  O374  1  0.13934796  0.86497955  0.62919031  1
  O  O375  1  0.63876738  0.37142988  0.12555820  1
  O  O376  1  0.63765212  0.37662845  0.62777252  1
  O  O377  1  0.63070131  0.88141069  0.13657912  1
  O  O378  1  0.62897185  0.88309139  0.63317730  1
  O  O379  1  0.11873310  0.25843575  0.25779225  1
  O  O380  1  0.12977383  0.26374665  0.75327894  1
  O  O381  1  0.11670954  0.75710409  0.24652030  1
  O  O382  1  0.11436366  0.74579145  0.76009322  1
  O  O383  1  0.61322954  0.24900821  0.24911887  1
  O  O384  1  0.61192577  0.27142024  0.74066341  1
  O  O385  1  0.61773103  0.76031145  0.24645023  1
  O  O386  1  0.61519584  0.75964123  0.74267332  1
  O  O387  1  0.38536716  0.25928524  0.23692033  1
  O  O388  1  0.39103810  0.28923474  0.74289361  1
  O  O389  1  0.38306812  0.74548326  0.24274080  1
  O  O390  1  0.38086815  0.74201723  0.74409478  1
  O  O391  1  0.87897771  0.24397302  0.24402727  1
  O  O392  1  0.87791118  0.23252276  0.74900637  1
  O  O393  1  0.88014641  0.74450438  0.24321855  1
  O  O394  1  0.88761244  0.73875621  0.74835104  1
  O  O395  1  0.38329013  0.49782622  0.48950502  1
  O  O396  1  0.37147158  0.49185756  0.99466785  1
  O  O397  1  0.38868950  0.99554341  0.50450054  1
  O  O398  1  0.38567477  1.00027912  0.99315124  1
  O  O399  1  0.86963496  0.48745304  0.49681134  1
  O  O400  1  0.88150975  0.50224510  0.98699117  1
  O  O401  1  0.89112579  0.99659539  0.49887867  1
  O  O402  1  0.88061407  0.99227623  0.99784426  1
  O  O403  1  0.11397080  -0.01049091  0.00860531  1
  O  O404  1  0.10795623  0.00102415  0.49581154  1
  O  O405  1  0.11493344  0.49458520  0.00719828  1
  O  O406  1  0.13439568  0.51186415  0.50715004  1
  O  O407  1  0.61933650  0.01147896  0.00683129  1
  O  O408  1  0.61458584  0.00642139  0.51158613  1
  O  O409  1  0.63457602  0.50927353  0.01086240  1
  O  O410  1  0.61304289  0.50719112  0.49969032  1
  O  O411  1  0.37761953  0.37112260  0.11722685  1
  O  O412  1  0.37376888  0.39530189  0.60385674  1
  O  O413  1  0.36808789  0.86163106  0.12614280  1
  O  O414  1  0.37009681  0.86091885  0.62609427  1
  O  O415  1  0.86905180  0.35993182  0.12764516  1
  O  O416  1  0.86418325  0.37529353  0.62124015  1
  O  O417  1  0.86762096  0.87051613  0.11956591  1
  O  O418  1  0.86439200  0.87139752  0.62450817  1
  O  O419  1  0.11147365  0.14693016  0.39481856  1
  O  O420  1  0.14260553  0.12758489  0.87702339  1
  O  O421  1  0.12606204  0.62646210  0.38208319  1
  O  O422  1  0.13716078  0.62841975  0.86925277  1
  O  O423  1  0.63258994  0.11917486  0.39095808  1
  O  O424  1  0.63231190  0.12213532  0.88107607  1
  O  O425  1  0.62404202  0.62269335  0.38871396  1
  O  O426  1  0.63759929  0.61956356  0.86829106  1
