# generated using pymatgen
data_V85Zn86O256
_symmetry_space_group_name_H-M   'P 1'
_cell_length_a   16.98393787
_cell_length_b   17.00307415
_cell_length_c   16.98108462
_cell_angle_alpha   90.00058462
_cell_angle_beta   90.01443226
_cell_angle_gamma   90.07982634
_symmetry_Int_Tables_number   1
_chemical_formula_structural   V85Zn86O256
_chemical_formula_sum   'V85 Zn86 O256'
_cell_volume   4903.77835293
_cell_formula_units_Z   1
loop_
 _symmetry_equiv_pos_site_id
 _symmetry_equiv_pos_as_xyz
  1  'x, y, z'
loop_
 _atom_site_type_symbol
 _atom_site_label
 _atom_site_symmetry_multiplicity
 _atom_site_fract_x
 _atom_site_fract_y
 _atom_site_fract_z
 _atom_site_occupancy
  V  V0  1  0.49517879  0.37912789  0.38576672  1
  V  V1  1  0.25412827  0.38161742  0.62074584  1
  V  V2  1  0.11771822  0.37900410  0.24984879  1
  V  V3  1  0.37534313  0.50017868  0.39002609  1
  V  V4  1  0.62611890  0.87709592  0.24582831  1
  V  V5  1  0.62599915  0.38432361  0.25198253  1
  V  V6  1  0.87599183  0.13399071  0.25250454  1
  V  V7  1  0.12549771  -0.00383526  0.62622217  1
  V  V8  1  0.43618113  0.57271298  0.80444178  1
  V  V9  1  0.25233022  0.25480306  0.50186706  1
  V  V10  1  0.74292392  0.12789111  0.37587977  1
  V  V11  1  0.63412740  0.87485865  0.74084863  1
  V  V12  1  0.25709049  0.12713351  0.37248033  1
  V  V13  1  0.12486080  0.24469317  0.86861799  1
  V  V14  1  0.24978526  0.50858691  0.76143180  1
  V  V15  1  0.48548783  0.24764892  0.25177726  1
  V  V16  1  0.00273607  0.76180881  0.75337324  1
  V  V17  1  0.89201748  -0.00561000  0.87976368  1
  V  V18  1  0.37759969  0.87845124  -0.00150617  1
  V  V19  1  0.00299518  0.86546896  0.37250049  1
  V  V20  1  0.49745166  0.12361630  0.61942050  1
  V  V21  1  -0.00528140  0.62571921  0.63230765  1
  V  V22  1  0.62794951  0.37152105  0.76436682  1
  V  V23  1  0.87215123  0.25151528  0.12421864  1
  V  V24  1  0.75008494  0.74004470  0.00050124  1
  V  V25  1  0.11705931  0.62191576  -0.00179848  1
  V  V26  1  0.50530785  0.87961643  0.87350524  1
  V  V27  1  0.88519227  0.74584304  0.13560341  1
  V  V28  1  0.86314022  0.75469422  0.62886860  1
  V  V29  1  0.37366501  0.87310001  0.49720645  1
  V  V30  1  0.87740636  0.12078455  0.75026902  1
  V  V31  1  0.87374327  0.00133998  0.37487498  1
  V  V32  1  0.37286860  0.74574769  0.62441937  1
  V  V33  1  0.74818435  0.61814565  0.36846258  1
  V  V34  1  0.24800053  0.50110583  0.24319944  1
  V  V35  1  0.24710881  -0.00468494  0.74830502  1
  V  V36  1  0.47497856  0.12371806  0.12526424  1
  V  V37  1  0.63022608  0.74618336  0.87950608  1
  V  V38  1  0.62215385  0.62478691  0.50205829  1
  V  V39  1  0.37490808  0.25542323  0.62055595  1
  V  V40  1  0.86628640  0.87643100  0.50444475  1
  V  V41  1  0.89293377  0.87679745  0.00114629  1
  V  V42  1  0.86347560  0.63035543  0.76259678  1
  V  V43  1  0.49859029  0.25145875  0.75563879  1
  V  V44  1  0.75359362  0.87901335  0.11959771  1
  V  V45  1  0.62645507  0.25101742  0.37171105  1
  V  V46  1  0.12118479  0.76308879  0.87236322  1
  V  V47  1  0.38606674  0.75077509  0.12285292  1
  V  V48  1  0.24136957  0.62742556  0.37352070  1
  V  V49  1  0.75139049  0.00183536  0.24629103  1
  V  V50  1  -0.00561301  0.36935702  0.38065573  1
  V  V51  1  0.62687507  0.50927534  0.11418254  1
  V  V52  1  0.24735326  0.87428473  0.62398476  1
  V  V53  1  0.50311831  0.74550772  0.24685306  1
  V  V54  1  0.49963518  0.87466498  0.37259065  1
  V  V55  1  0.24347536  0.37540439  0.12487033  1
  V  V56  1  0.37891453  0.62324996  0.25230470  1
  V  V57  1  0.74785427  0.23780946  0.00017026  1
  V  V58  1  0.37704109  0.00391942  0.36747716  1
  V  V59  1  0.62552820  0.75033671  0.37410567  1
  V  V60  1  0.12579080  0.12627522  0.49904523  1
  V  V61  1  0.44264712  0.56497252  0.06768912  1
  V  V62  1  0.62914166  0.01467558  0.12037992  1
  V  V63  1  0.49436940  0.75526500  0.74808164  1
  V  V64  1  0.24899304  0.87697236  0.12938957  1
  V  V65  1  0.50624821  0.00789708  -0.00135620  1
  V  V66  1  -0.00097752  0.25081801  0.74405131  1
  V  V67  1  0.75535845  0.38249186  0.12642725  1
  V  V68  1  0.24950120  0.25829178  -0.00438500  1
  V  V69  1  0.12397166  0.25122636  0.37812319  1
  V  V70  1  -0.00754228  0.49670299  0.50838008  1
  V  V71  1  0.85928391  0.36939911  0.51462664  1
  V  V72  1  0.25357785  0.74588706  -0.00321239  1
  V  V73  1  0.37607626  -0.00057458  0.87040386  1
  V  V74  1  0.24752840  0.12145265  0.87694640  1
  V  V75  1  0.12158260  0.50244047  0.62844129  1
  V  V76  1  0.23719999  0.74934810  0.49776319  1
  V  V77  1  0.00026434  0.00011838  0.49857235  1
  V  V78  1  0.49636303  0.61413899  0.62000167  1
  V  V79  1  0.04559192  0.19854292  0.20217745  1
  V  V80  1  0.68203740  0.18179493  0.55375296  1
  V  V81  1  0.41045083  0.30749769  0.07146047  1
  V  V82  1  0.50584257  0.00146692  0.49828697  1
  V  V83  1  0.62823732  0.49114637  0.62281795  1
  V  V84  1  0.12700144  0.37830158  0.75267336  1
  Zn  Zn85  1  0.85981750  0.24721943  0.62648229  1
  Zn  Zn86  1  0.08387321  0.06089009  0.06526958  1
  Zn  Zn87  1  -0.01692932  0.37682507  0.87765277  1
  Zn  Zn88  1  0.37411801  0.12315215  0.74418508  1
  Zn  Zn89  1  0.75975333  -0.01026766  0.74815739  1
  Zn  Zn90  1  0.06367126  0.70819188  0.30887627  1
  Zn  Zn91  1  0.25325553  0.63319269  0.86423760  1
  Zn  Zn92  1  0.88228125  0.61924130  0.25408964  1
  Zn  Zn93  1  0.75574423  0.48638048  0.74866857  1
  Zn  Zn94  1  0.86395116  0.49209102  0.37557296  1
  Zn  Zn95  1  0.63509176  -0.00659098  0.61759039  1
  Zn  Zn96  1  0.01835986  0.61141692  0.14032543  1
  Zn  Zn97  1  0.61756909  0.24257822  0.88681956  1
  Zn  Zn98  1  0.24801812  0.00676309  0.24636882  1
  Zn  Zn99  1  0.74559377  0.75379728  0.50227638  1
  Zn  Zn100  1  -0.02703322  0.47664387  0.01129662  1
  Zn  Zn101  1  0.11417481  0.62742107  0.49466247  1
  Zn  Zn102  1  -0.00009038  0.12675815  0.62199851  1
  Zn  Zn103  1  0.74773159  0.10875206  0.88595811  1
  Zn  Zn104  1  0.44059152  0.42705012  -0.07120533  1
  Zn  Zn105  1  0.12257876  0.87533543  0.24698039  1
  Zn  Zn106  1  0.86404215  0.50202964  0.88183372  1
  Zn  Zn107  1  0.21749410  0.19372127  0.18574781  1
  Zn  Zn108  1  0.18879724  0.18387058  0.68635150  1
  Zn  Zn109  1  0.19363218  0.69231905  0.18267100  1
  Zn  Zn110  1  0.18148661  0.68864503  0.68731924  1
  Zn  Zn111  1  0.68603151  0.19150564  0.19040415  1
  Zn  Zn112  1  0.67471189  0.16850715  0.72868962  1
  Zn  Zn113  1  0.69122965  0.68904231  0.18501829  1
  Zn  Zn114  1  0.68162630  0.68911098  0.68867443  1
  Zn  Zn115  1  0.31123851  0.31847938  0.31656501  1
  Zn  Zn116  1  0.31176596  0.31377864  0.81146430  1
  Zn  Zn117  1  0.31217736  0.80750198  0.31227560  1
  Zn  Zn118  1  0.31185658  0.81587741  0.81106109  1
  Zn  Zn119  1  0.80989632  0.31597427  0.31374945  1
  Zn  Zn120  1  0.81039632  0.30986670  0.81226874  1
  Zn  Zn121  1  0.81139751  0.81253638  0.31435428  1
  Zn  Zn122  1  0.81610559  0.81419919  0.82016363  1
  Zn  Zn123  1  0.18428650  0.44257065  0.43937541  1
  Zn  Zn124  1  0.13080854  0.40976031  0.97000819  1
  Zn  Zn125  1  0.18660364  0.93883561  0.43368073  1
  Zn  Zn126  1  0.18316435  0.93785104  0.94479517  1
  Zn  Zn127  1  0.68061214  0.43813376  0.44369112  1
  Zn  Zn128  1  0.70631258  0.43591914  0.94688439  1
  Zn  Zn129  1  0.68701675  0.93881506  0.43401766  1
  Zn  Zn130  1  0.69376347  0.93617948  0.93539698  1
  Zn  Zn131  1  0.28450609  0.05217203  0.04638104  1
  Zn  Zn132  1  0.31522257  0.06266862  0.55627610  1
  Zn  Zn133  1  0.26626307  0.52200917  0.01871994  1
  Zn  Zn134  1  0.30694065  0.56603953  0.56551135  1
  Zn  Zn135  1  0.92323428  0.07172470  0.06098503  1
  Zn  Zn136  1  0.81614694  0.05551094  0.57230841  1
  Zn  Zn137  1  0.81534745  0.56187351  0.06591871  1
  Zn  Zn138  1  0.80814282  0.56483440  0.56369291  1
  Zn  Zn139  1  0.43946853  0.43891368  0.20455726  1
  Zn  Zn140  1  0.41956740  0.41511254  0.72865847  1
  Zn  Zn141  1  0.43750701  0.93786723  0.18576318  1
  Zn  Zn142  1  0.43741915  0.93637722  0.68358789  1
  Zn  Zn143  1  0.93609467  0.44671802  0.19235854  1
  Zn  Zn144  1  0.92421728  0.42972372  0.70907433  1
  Zn  Zn145  1  0.94436346  0.94237491  0.18722084  1
  Zn  Zn146  1  0.93913279  0.93749125  0.68564000  1
  Zn  Zn147  1  0.06939558  0.05233805  0.31454055  1
  Zn  Zn148  1  0.06329142  0.06103530  0.80979549  1
  Zn  Zn149  1  0.05588628  0.54600600  0.31595065  1
  Zn  Zn150  1  0.05524117  0.56420799  0.82487037  1
  Zn  Zn151  1  0.56072226  0.06642294  0.30593378  1
  Zn  Zn152  1  0.56395849  0.06202738  0.80874461  1
  Zn  Zn153  1  0.56155191  0.56135731  0.31393378  1
  Zn  Zn154  1  0.62144393  0.53942508  0.84588192  1
  Zn  Zn155  1  0.43967848  0.18963861  0.44026041  1
  Zn  Zn156  1  0.43319348  0.18071601  0.93332011  1
  Zn  Zn157  1  0.43513615  0.68658842  0.43823198  1
  Zn  Zn158  1  0.44623828  0.69606501  0.93853228  1
  Zn  Zn159  1  0.93280154  0.19058801  0.44219055  1
  Zn  Zn160  1  0.93531768  0.18550925  0.93103326  1
  Zn  Zn161  1  0.92846024  0.68574086  0.44595117  1
  Zn  Zn162  1  0.93892207  0.69147677  0.94020360  1
  Zn  Zn163  1  0.03663445  0.26208715  0.03375472  1
  Zn  Zn164  1  0.06298965  0.31575484  0.56554105  1
  Zn  Zn165  1  0.06786726  0.80477406  0.06647749  1
  Zn  Zn166  1  0.05545591  0.81481498  0.56463203  1
  Zn  Zn167  1  0.57774515  0.31436796  0.06342902  1
  Zn  Zn168  1  0.55452474  0.31674754  0.56680229  1
  Zn  Zn169  1  0.56699245  0.81833656  0.06064214  1
  Zn  Zn170  1  0.55895989  0.80916347  0.56128868  1
  O  O171  1  0.11787302  0.14842675  0.14396332  1
  O  O172  1  0.12538420  0.11354397  0.61617922  1
  O  O173  1  0.12960016  0.63782909  0.10391965  1
  O  O174  1  0.10799208  0.62062353  0.62526880  1
  O  O175  1  0.61945689  0.11524404  0.13056808  1
  O  O176  1  0.62131953  0.12576060  0.62163908  1
  O  O177  1  0.63120190  0.60749068  0.13102243  1
  O  O178  1  0.61630802  0.62338808  0.61905620  1
  O  O179  1  0.38238417  0.38775100  0.37218371  1
  O  O180  1  0.38861387  0.38743329  0.84017196  1
  O  O181  1  0.38018134  0.88033828  0.37899790  1
  O  O182  1  0.38423896  0.88074598  0.87853255  1
  O  O183  1  0.88040893  0.37179825  0.38783965  1
  O  O184  1  0.88000464  0.39571895  0.82755357  1
  O  O185  1  0.88138100  0.88142751  0.38180381  1
  O  O186  1  0.87948250  0.88447642  0.88557233  1
  O  O187  1  0.26114094  0.00937732  0.37938841  1
  O  O188  1  0.25281799  0.00463657  0.86468851  1
  O  O189  1  0.25317799  0.51084556  0.36942953  1
  O  O190  1  0.25574311  0.50807125  0.86086189  1
  O  O191  1  0.75375550  0.00886736  0.36834391  1
  O  O192  1  0.76514185  -0.00518646  0.86807209  1
  O  O193  1  0.74287066  0.51528391  0.38235969  1
  O  O194  1  0.73244129  0.50379303  0.86298957  1
  O  O195  1  0.25352931  0.49199159  0.13681838  1
  O  O196  1  0.24292606  0.49616619  0.63149471  1
  O  O197  1  0.27076022  0.97927887  0.13307818  1
  O  O198  1  0.24492777  0.99665152  0.62773169  1
  O  O199  1  0.74010947  0.48931125  0.12651094  1
  O  O200  1  0.73087851  0.51164174  0.63316524  1
  O  O201  1  0.74240971  0.99377991  0.13158602  1
  O  O202  1  0.74623265  0.99781624  0.63445108  1
  O  O203  1  0.01086105  0.38202247  0.26590465  1
  O  O204  1  0.01428381  0.36647955  0.74603495  1
  O  O205  1  -0.00326174  0.87840215  0.26942669  1
  O  O206  1  0.00017013  0.86048693  0.74401757  1
  O  O207  1  0.50761080  0.36480093  0.25908960  1
  O  O208  1  0.51698853  0.35975350  0.73468737  1
  O  O209  1  0.50488433  0.86798592  0.25395254  1
  O  O210  1  0.50698467  0.86977335  0.75272614  1
  O  O211  1  0.49997504  0.13585177  0.23696453  1
  O  O212  1  0.50047147  0.13029804  0.73359247  1
  O  O213  1  0.49357004  0.63552258  0.25705871  1
  O  O214  1  0.49436903  0.63419243  0.74355246  1
  O  O215  1  0.99425106  0.12985020  0.26527552  1
  O  O216  1  0.99346531  0.13213161  0.74871234  1
  O  O217  1  1.00242492  0.62615129  0.25544900  1
  O  O218  1  0.99034038  0.63374155  0.74617532  1
  O  O219  1  0.36581790  0.26132510  -0.01434780  1
  O  O220  1  0.36921168  0.24924416  0.51239799  1
  O  O221  1  0.37357186  0.75736294  0.00425874  1
  O  O222  1  0.36489995  0.75586559  0.50414475  1
  O  O223  1  0.86709603  0.24997388  0.01728535  1
  O  O224  1  0.87469008  0.26420910  0.50864542  1
  O  O225  1  0.86693310  0.75689090  0.00805924  1
  O  O226  1  0.87087566  0.75990748  0.51223844  1
  O  O227  1  0.13192349  0.24617164  0.49830513  1
  O  O228  1  0.14252573  0.25137723  0.98355346  1
  O  O229  1  0.13454436  0.74978356  0.50652048  1
  O  O230  1  0.13434609  0.74424122  0.99000047  1
  O  O231  1  0.62437133  0.24653701  0.49737960  1
  O  O232  1  0.63968838  0.24500462  1.00129977  1
  O  O233  1  0.62531901  0.74525355  0.49234983  1
  O  O234  1  0.64037932  0.76030078  0.99453957  1
  O  O235  1  0.48711106  0.24586520  0.12711448  1
  O  O236  1  0.49171914  0.24208644  0.62670090  1
  O  O237  1  0.49302555  0.75677012  0.12737289  1
  O  O238  1  0.49451340  0.74231425  0.63288098  1
  O  O239  1  0.98848428  0.26310187  0.14018781  1
  O  O240  1  1.00455478  0.24694625  0.63673837  1
  O  O241  1  0.98684561  0.74530058  0.12466985  1
  O  O242  1  0.99325408  0.74240273  0.63282509  1
  O  O243  1  0.00620550  0.26260645  0.38576751  1
  O  O244  1  0.00804481  0.25238813  0.86159233  1
  O  O245  1  -0.00699753  0.76134723  0.38399473  1
  O  O246  1  0.01317342  0.74912517  0.86941111  1
  O  O247  1  0.50838287  0.25266007  0.36991290  1
  O  O248  1  0.49995216  0.23930737  0.85951521  1
  O  O249  1  0.50590589  0.75583762  0.36905425  1
  O  O250  1  0.50634984  0.76210201  0.86726077  1
  O  O251  1  0.24535997  0.13227173  0.49201044  1
  O  O252  1  0.26494666  0.14398762  0.97931291  1
  O  O253  1  0.24166545  0.63256932  0.49187911  1
  O  O254  1  0.25448719  0.63998546  0.99271343  1
  O  O255  1  0.74524205  0.12233958  0.49623912  1
  O  O256  1  0.75483447  0.13912191  1.00185488  1
  O  O257  1  0.73623252  0.62978107  0.49480509  1
  O  O258  1  0.75050851  0.64261625  1.00709834  1
  O  O259  1  0.24056904  0.37723706  0.01142403  1
  O  O260  1  0.24322570  0.37349935  0.51400052  1
  O  O261  1  0.25920463  0.86328847  0.00732020  1
  O  O262  1  0.25333585  0.86763790  0.50145603  1
  O  O263  1  0.74437660  0.36249382  0.02302004  1
  O  O264  1  0.76183259  0.37809885  0.49894566  1
  O  O265  1  0.75970396  0.87362293  0.01240550  1
  O  O266  1  0.76263031  0.87583714  0.49276318  1
  O  O267  1  0.13603297  0.48931611  0.25625810  1
  O  O268  1  0.13008130  0.49480011  0.74946434  1
  O  O269  1  0.13659074  0.98738967  0.25727865  1
  O  O270  1  0.13296759  1.00316765  0.73754291  1
  O  O271  1  0.61604447  0.48752293  0.24330281  1
  O  O272  1  0.62086955  0.48128156  0.74139853  1
  O  O273  1  0.62962219  0.99550987  0.24163349  1
  O  O274  1  0.62333509  0.98079251  0.74767075  1
  O  O275  1  0.37659463  -0.00324435  0.26525610  1
  O  O276  1  0.36759403  -0.00067782  0.75249433  1
  O  O277  1  0.36501917  0.50746886  0.25954406  1
  O  O278  1  0.37210553  0.51950455  0.74268045  1
  O  O279  1  0.87120861  0.01325281  0.25704710  1
  O  O280  1  0.88319399  0.00279937  0.76043031  1
  O  O281  1  0.87559641  0.50556194  0.26465465  1
  O  O282  1  0.86773285  0.52551768  0.74204913  1
  O  O283  1  0.12020713  0.36915668  0.37126924  1
  O  O284  1  0.13402223  0.36167207  0.85938634  1
  O  O285  1  0.10479255  0.87527363  0.38332791  1
  O  O286  1  0.12813591  0.86210484  0.88176445  1
  O  O287  1  0.61957601  0.36964126  0.37042782  1
  O  O288  1  0.62346477  0.36796681  0.86625209  1
  O  O289  1  0.61980099  0.87037828  0.36583833  1
  O  O290  1  0.62100505  0.86853639  0.86635878  1
  O  O291  1  0.37727934  0.11577213  0.11846953  1
  O  O292  1  0.38212116  0.13101739  0.62336935  1
  O  O293  1  0.38406002  0.62897308  0.12815667  1
  O  O294  1  0.38373967  0.63534432  0.61461814  1
  O  O295  1  0.87367936  0.13905626  0.14083096  1
  O  O296  1  0.88234910  0.12771623  0.63307538  1
  O  O297  1  0.87070262  0.64050643  0.13041571  1
  O  O298  1  0.88045286  0.63660828  0.62963674  1
  O  O299  1  0.26485699  0.26055620  0.10822280  1
  O  O300  1  0.25624230  0.25798072  0.62207704  1
  O  O301  1  0.26828979  0.75674139  0.11596399  1
  O  O302  1  0.25261326  0.75395173  0.61814480  1
  O  O303  1  0.75422746  0.25561120  0.12138683  1
  O  O304  1  0.73807950  0.23163629  0.61908874  1
  O  O305  1  0.75553724  0.75976877  0.11689418  1
  O  O306  1  0.76044166  0.74862225  0.62491259  1
  O  O307  1  0.24680780  0.24637093  0.38312468  1
  O  O308  1  0.24422924  0.24405488  0.87160779  1
  O  O309  1  0.25537258  0.73628772  0.38348656  1
  O  O310  1  0.24267507  0.75280766  0.87885074  1
  O  O311  1  0.73478025  0.24476553  0.37284227  1
  O  O312  1  0.75598359  0.25273534  0.89510399  1
  O  O313  1  0.73990115  0.74343616  0.37769870  1
  O  O314  1  0.74591831  0.75720170  0.89233029  1
  O  O315  1  0.00322435  0.14702749  0.01299506  1
  O  O316  1  0.00540498  0.11627994  0.49817974  1
  O  O317  1  0.01474482  0.62661882  0.00013984  1
  O  O318  1  -0.00516838  0.61565296  0.51059174  1
  O  O319  1  0.49525372  0.11464909  0.00648129  1
  O  O320  1  0.49910721  0.11676027  0.50992335  1
  O  O321  1  0.49801734  0.62290121  0.00977326  1
  O  O322  1  0.51197089  0.63194749  0.50654974  1
  O  O323  1  0.50041036  0.37127532  0.48463331  1
  O  O324  1  0.48435920  0.36422712  1.01617845  1
  O  O325  1  0.49406772  0.87996548  0.49207268  1
  O  O326  1  0.49681419  0.88830496  0.99506731  1
  O  O327  1  0.99095866  0.38087642  0.50089230  1
  O  O328  1  1.02430630  0.36861764  0.98931677  1
  O  O329  1  0.98884435  0.88194456  0.49339733  1
  O  O330  1  0.99140609  0.86651805  1.00696535  1
  O  O331  1  0.48841616  0.49153999  0.37105678  1
  O  O332  1  0.50019152  0.51611873  0.86190564  1
  O  O333  1  0.49598995  0.99784669  0.37934778  1
  O  O334  1  0.49873964  0.99965246  0.88082371  1
  O  O335  1  0.99823996  0.48573951  0.39521709  1
  O  O336  1  0.99684954  0.49446112  0.89008504  1
  O  O337  1  0.99329856  0.99379270  0.38641888  1
  O  O338  1  0.99200274  1.00156957  0.87633836  1
  O  O339  1  -0.00144363  0.00762858  0.11721161  1
  O  O340  1  0.00798386  0.00005687  0.61340041  1
  O  O341  1  -0.00144433  0.50172288  0.11832059  1
  O  O342  1  -0.00155510  0.50541359  0.62231691  1
  O  O343  1  0.50520364  0.00795612  0.11804052  1
  O  O344  1  0.50294276  0.00675642  0.61591002  1
  O  O345  1  0.50314174  0.50426669  0.12687757  1
  O  O346  1  0.51033321  0.51441555  0.63133358  1
  O  O347  1  0.24204898  0.38285496  0.24920994  1
  O  O348  1  0.24419365  0.38558033  0.73875957  1
  O  O349  1  0.25948075  0.87100568  0.23458250  1
  O  O350  1  0.25294574  0.88774581  0.74076607  1
  O  O351  1  0.73640882  0.36755517  0.24002041  1
  O  O352  1  0.73033913  0.36756787  0.74557269  1
  O  O353  1  0.74773303  0.88133777  0.24053882  1
  O  O354  1  0.73599849  0.86616580  0.75291707  1
  O  O355  1  0.25443499  0.12615910  0.26722870  1
  O  O356  1  0.25163385  0.11342036  0.75577567  1
  O  O357  1  0.25517102  0.61857554  0.25495014  1
  O  O358  1  0.24568172  0.61705853  0.74693087  1
  O  O359  1  0.75611849  0.12210800  0.25864002  1
  O  O360  1  0.77229102  0.11974582  0.75306278  1
  O  O361  1  0.74654979  0.62962111  0.26739338  1
  O  O362  1  0.76342210  0.63870955  0.75160306  1
  O  O363  1  0.36892300  0.11599117  0.38552759  1
  O  O364  1  0.36694266  0.11552649  0.86503884  1
  O  O365  1  0.36672329  0.61927915  0.37094490  1
  O  O366  1  0.38042426  0.63173411  0.86596510  1
  O  O367  1  0.86171974  0.12453968  0.37401554  1
  O  O368  1  0.87519308  0.11067793  0.87019589  1
  O  O369  1  0.85557268  0.62645160  0.38089053  1
  O  O370  1  0.87702588  0.62743460  0.86478979  1
  O  O371  1  0.13989778  0.36540388  0.14120599  1
  O  O372  1  0.13231085  0.38217679  0.63547536  1
  O  O373  1  0.14655940  0.86990315  0.11949877  1
  O  O374  1  0.13111774  0.88859617  0.61550747  1
  O  O375  1  0.63177073  0.38429770  0.13530808  1
  O  O376  1  0.62410955  0.39030523  0.61880817  1
  O  O377  1  0.63421080  0.88467620  0.12942976  1
  O  O378  1  0.61950766  0.87072449  0.63810074  1
  O  O379  1  0.12320319  0.25593378  0.25836632  1
  O  O380  1  0.12199501  0.25553168  0.75107620  1
  O  O381  1  0.13605137  0.76250469  0.24748561  1
  O  O382  1  0.11881808  0.74885371  0.76411641  1
  O  O383  1  0.61458291  0.25799313  0.25758912  1
  O  O384  1  0.61434535  0.26196588  0.74453788  1
  O  O385  1  0.62081087  0.75647924  0.25227018  1
  O  O386  1  0.61418971  0.75951591  0.75438411  1
  O  O387  1  0.38593003  0.25266297  0.25864061  1
  O  O388  1  0.38148693  0.24569908  0.73655625  1
  O  O389  1  0.38143100  0.74276189  0.23997399  1
  O  O390  1  0.38711658  0.75915423  0.74277001  1
  O  O391  1  0.86944178  0.24016971  0.24836258  1
  O  O392  1  0.88359103  0.24109582  0.74654792  1
  O  O393  1  0.87023114  0.74906254  0.23746480  1
  O  O394  1  0.88151732  0.74596612  0.74765564  1
  O  O395  1  0.36691604  0.50536061  0.48884174  1
  O  O396  1  0.38157487  0.50707895  1.00577848  1
  O  O397  1  0.38614763  0.99240207  0.49218849  1
  O  O398  1  0.38010168  0.99502073  0.98937268  1
  O  O399  1  0.87732545  0.48968768  0.50212747  1
  O  O400  1  0.85947962  0.49026768  0.99514840  1
  O  O401  1  0.88268873  0.99551666  0.49581365  1
  O  O402  1  0.87773476  0.99221027  0.98789896  1
  O  O403  1  0.17241994  0.02478871  0.00985425  1
  O  O404  1  0.11795919  0.00606668  0.50272774  1
  O  O405  1  0.14996221  0.52178616  -0.00393821  1
  O  O406  1  0.11260106  0.50155296  0.51165822  1
  O  O407  1  0.61707727  -0.00426559  0.00726997  1
  O  O408  1  0.61034677  -0.00755133  0.49947120  1
  O  O409  1  0.62402869  0.49460165  0.01512741  1
  O  O410  1  0.62287932  0.50888651  0.51437263  1
  O  O411  1  0.36518317  0.37709235  0.13551321  1
  O  O412  1  0.36558433  0.36771741  0.63287693  1
  O  O413  1  0.37487402  0.86618050  0.11748729  1
  O  O414  1  0.36840756  0.86765441  0.61615265  1
  O  O415  1  0.85909139  0.36747474  0.14137137  1
  O  O416  1  0.87164335  0.37136799  0.61903477  1
  O  O417  1  0.87076316  0.86646886  0.12268271  1
  O  O418  1  0.88047206  0.86700226  0.61620580  1
  O  O419  1  0.13348757  0.13207581  0.38198595  1
  O  O420  1  0.13366700  0.13652326  0.86451130  1
  O  O421  1  0.12922180  0.62454243  0.37537625  1
  O  O422  1  0.12900835  0.63770068  0.88523619  1
  O  O423  1  0.63485960  0.13200759  0.36941058  1
  O  O424  1  0.64171323  0.13580582  0.84404914  1
  O  O425  1  0.62985004  0.62931168  0.38203256  1
  O  O426  1  0.61718672  0.64778087  0.87303391  1
