# generated using pymatgen
data_V85Zn86O256
_symmetry_space_group_name_H-M   'P 1'
_cell_length_a   16.92948678
_cell_length_b   16.93022102
_cell_length_c   16.94176828
_cell_angle_alpha   89.98310413
_cell_angle_beta   90.04102607
_cell_angle_gamma   90.03082991
_symmetry_Int_Tables_number   1
_chemical_formula_structural   V85Zn86O256
_chemical_formula_sum   'V85 Zn86 O256'
_cell_volume   4855.84666729
_cell_formula_units_Z   1
loop_
 _symmetry_equiv_pos_site_id
 _symmetry_equiv_pos_as_xyz
  1  'x, y, z'
loop_
 _atom_site_type_symbol
 _atom_site_label
 _atom_site_symmetry_multiplicity
 _atom_site_fract_x
 _atom_site_fract_y
 _atom_site_fract_z
 _atom_site_occupancy
  V  V0  1  0.36707492  -0.00318597  0.37781681  1
  V  V1  1  0.62638171  0.49966845  0.12634036  1
  V  V2  1  0.35534330  0.37263743  0.00272038  1
  V  V3  1  -0.00182003  0.00349295  0.50364423  1
  V  V4  1  0.62530371  0.76109941  0.87553520  1
  V  V5  1  0.87602811  0.25036525  0.12399184  1
  V  V6  1  -0.00193116  0.63077507  0.12302687  1
  V  V7  1  0.75203719  0.37495193  0.12614528  1
  V  V8  1  0.88002490  0.85755877  0.00751902  1
  V  V9  1  0.62613892  0.37394980  0.75479456  1
  V  V10  1  0.62265484  0.12519435  0.49962585  1
  V  V11  1  0.74589052  0.25086715  0.49655796  1
  V  V12  1  0.62475179  0.87731398  0.24578480  1
  V  V13  1  0.74290094  0.12671329  0.37260957  1
  V  V14  1  0.50190671  0.49361586  -0.00063280  1
  V  V15  1  -0.00229048  0.87521974  0.37221053  1
  V  V16  1  0.11787201  0.12314799  -0.00361526  1
  V  V17  1  0.62768114  -0.00474630  0.62945788  1
  V  V18  1  0.88037500  0.12608342  0.75295406  1
  V  V19  1  0.13230781  0.62696834  0.00795033  1
  V  V20  1  0.62642689  0.63082958  0.00148045  1
  V  V21  1  0.47838218  0.87917412  0.87266300  1
  V  V22  1  0.75174004  0.62613468  0.37655950  1
  V  V23  1  0.62153489  0.62624560  0.50496380  1
  V  V24  1  0.13625406  0.88201737  0.24964779  1
  V  V25  1  0.12015587  -0.00012308  0.12165621  1
  V  V26  1  0.49915013  0.87862330  0.38013439  1
  V  V27  1  0.87579150  0.87305684  0.51008636  1
  V  V28  1  0.25164578  0.37649426  0.64028996  1
  V  V29  1  0.36733938  0.11964506  0.24792766  1
  V  V30  1  0.49096739  0.74796372  0.24747789  1
  V  V31  1  0.88185069  0.00252745  0.89152455  1
  V  V32  1  0.25930595  -0.00128532  0.75659436  1
  V  V33  1  0.75171502  0.49968526  0.25071328  1
  V  V34  1  0.88207537  0.50230126  0.87282337  1
  V  V35  1  0.74238468  0.12396851  0.87857297  1
  V  V36  1  0.25142789  0.61818297  0.87658032  1
  V  V37  1  0.87403524  0.63565720  0.24493944  1
  V  V38  1  0.75066122  -0.00770723  0.75408822  1
  V  V39  1  0.13059915  0.75138033  0.88043783  1
  V  V40  1  0.00109526  0.25000426  0.24834631  1
  V  V41  1  0.75468370  0.75083066  0.50941615  1
  V  V42  1  0.49854748  0.74886441  0.74853590  1
  V  V43  1  0.36267221  0.25183572  0.12205990  1
  V  V44  1  0.50290211  0.36875813  0.37551747  1
  V  V45  1  -0.00434419  0.63511363  0.62107696  1
  V  V46  1  0.00636300  0.50019594  0.00278009  1
  V  V47  1  0.12584176  0.50163285  0.62487684  1
  V  V48  1  0.13168099  -0.00112961  0.62716241  1
  V  V49  1  0.87983141  0.37681096  -0.00522858  1
  V  V50  1  0.62168669  0.50180610  0.62581292  1
  V  V51  1  0.24801990  0.50069378  0.23544393  1
  V  V52  1  0.25587526  0.87667574  0.10953233  1
  V  V53  1  0.12701391  0.74698593  0.37427093  1
  V  V54  1  0.62641426  0.00048835  0.11186715  1
  V  V55  1  0.49061276  0.62226170  0.13150142  1
  V  V56  1  0.49862731  0.50074193  0.50118158  1
  V  V57  1  0.12970945  0.37625421  0.23114518  1
  V  V58  1  0.62513788  0.37146707  0.25362654  1
  V  V59  1  0.48375540  0.00074384  -0.00589788  1
  V  V60  1  0.74372503  0.24792395  0.00034831  1
  V  V61  1  0.12413106  0.87709777  0.75187977  1
  V  V62  1  0.37486170  0.23927721  0.62685361  1
  V  V63  1  0.10958586  0.25224633  0.87348396  1
  V  V64  1  0.24642332  0.62304103  0.37259239  1
  V  V65  1  0.74917139  0.86102680  0.12033447  1
  V  V66  1  0.10320336  0.37286359  0.75161302  1
  V  V67  1  0.87632556  0.37587284  0.49812175  1
  V  V68  1  0.88073417  0.25157769  0.63076660  1
  V  V69  1  0.75020184  0.50318276  0.75152741  1
  V  V70  1  0.37120263  0.49999393  0.36775891  1
  V  V71  1  0.50167337  0.24638584  0.25120316  1
  V  V72  1  0.25578685  0.13364286  0.87999008  1
  V  V73  1  0.37386813  0.37326877  0.50176813  1
  V  V74  1  0.50176685  0.12428316  0.11743545  1
  V  V75  1  0.75058997  0.63121978  0.87938209  1
  V  V76  1  0.50095037  0.24892866  0.75188906  1
  V  V77  1  0.87805687  0.50173400  0.37344608  1
  V  V78  1  0.00689203  0.37692132  0.37419719  1
  V  V79  1  0.24798858  0.25034289  0.49880773  1
  V  V80  1  0.75078443  0.37541731  0.62538513  1
  V  V81  1  0.37501177  0.61795748  0.74412917  1
  V  V82  1  0.12779064  0.12634780  0.49991659  1
  V  V83  1  0.62582091  0.75175305  0.37546819  1
  V  V84  1  0.87593389  0.12408796  0.25187628  1
  Zn  Zn85  1  0.62289680  0.24697940  0.87988375  1
  Zn  Zn86  1  0.00327431  0.13155972  0.63013751  1
  Zn  Zn87  1  0.24585257  0.12193288  0.36975871  1
  Zn  Zn88  1  0.49781739  0.37360254  0.87838766  1
  Zn  Zn89  1  0.87176222  0.00072825  0.37692144  1
  Zn  Zn90  1  0.49749862  -0.00414363  0.50585560  1
  Zn  Zn91  1  -0.00395391  0.75378568  0.75047905  1
  Zn  Zn92  1  0.00467831  0.87730464  0.88402661  1
  Zn  Zn93  1  0.17427706  0.67286130  0.53866924  1
  Zn  Zn94  1  0.31040528  0.80312153  0.56022775  1
  Zn  Zn95  1  0.12654153  0.24937254  0.37244670  1
  Zn  Zn96  1  0.50403531  0.12287212  0.62811318  1
  Zn  Zn97  1  0.87292165  0.63760650  0.74529199  1
  Zn  Zn98  1  0.74988705  -0.00046360  0.24831005  1
  Zn  Zn99  1  -0.00334535  0.11965818  0.11946543  1
  Zn  Zn100  1  0.38018147  0.12042297  0.75735083  1
  Zn  Zn101  1  0.00723576  0.50743096  0.49726084  1
  Zn  Zn102  1  0.37237821  0.49499498  0.87275634  1
  Zn  Zn103  1  -0.00353759  0.75681525  0.24373849  1
  Zn  Zn104  1  0.75427624  0.86923583  0.63676391  1
  Zn  Zn105  1  0.35710709  0.74248878  0.11785423  1
  Zn  Zn106  1  0.44437590  0.68481898  0.58179402  1
  Zn  Zn107  1  0.18453337  0.18697426  0.18449341  1
  Zn  Zn108  1  0.18824080  0.18629578  0.69084549  1
  Zn  Zn109  1  0.18374718  0.69104546  0.18927763  1
  Zn  Zn110  1  0.19071888  0.68973478  0.70119941  1
  Zn  Zn111  1  0.68465408  0.18624594  0.18634429  1
  Zn  Zn112  1  0.69236526  0.18452911  0.68844093  1
  Zn  Zn113  1  0.68117238  0.68766787  0.18858217  1
  Zn  Zn114  1  0.68346001  0.68809909  0.69174221  1
  Zn  Zn115  1  0.31297980  0.31291666  0.30975079  1
  Zn  Zn116  1  0.31320399  0.30795052  0.81800921  1
  Zn  Zn117  1  0.31262876  0.81214183  0.31328491  1
  Zn  Zn118  1  0.30917129  0.80610077  0.80479839  1
  Zn  Zn119  1  0.81424511  0.31032752  0.31453152  1
  Zn  Zn120  1  0.81488618  0.31319538  0.81433822  1
  Zn  Zn121  1  0.81063490  0.81569157  0.31673302  1
  Zn  Zn122  1  0.81742003  0.81218489  0.82084901  1
  Zn  Zn123  1  0.18886177  0.43774219  0.43933761  1
  Zn  Zn124  1  0.18197446  0.43833027  0.93037322  1
  Zn  Zn125  1  0.18566858  0.93491797  0.43540593  1
  Zn  Zn126  1  0.19027722  0.94293253  0.93716787  1
  Zn  Zn127  1  0.68662133  0.43798757  0.43649029  1
  Zn  Zn128  1  0.69114121  0.44015655  0.93773505  1
  Zn  Zn129  1  0.68835428  0.94020893  0.43810239  1
  Zn  Zn130  1  0.69048880  0.93700511  0.94233331  1
  Zn  Zn131  1  0.30410687  0.06188815  0.06404686  1
  Zn  Zn132  1  0.31319223  -0.03426245  0.56398093  1
  Zn  Zn133  1  0.31397446  0.55966723  0.05859051  1
  Zn  Zn134  1  0.30909052  0.55669292  0.56162193  1
  Zn  Zn135  1  0.80835015  0.06400587  0.06598542  1
  Zn  Zn136  1  0.81181369  0.06365447  0.56553762  1
  Zn  Zn137  1  0.81389777  0.56500127  0.06131183  1
  Zn  Zn138  1  0.81508594  0.56292509  0.56234830  1
  Zn  Zn139  1  0.43448012  0.43435461  0.18516660  1
  Zn  Zn140  1  0.43828456  0.43622337  0.68731594  1
  Zn  Zn141  1  0.43656801  0.93902322  0.18793092  1
  Zn  Zn142  1  0.44162078  0.93057747  0.68787927  1
  Zn  Zn143  1  0.94076388  0.44150345  0.18482439  1
  Zn  Zn144  1  0.93669339  0.44670467  0.68449007  1
  Zn  Zn145  1  0.93714715  0.93913378  0.18442675  1
  Zn  Zn146  1  0.93977740  0.94092251  0.69178407  1
  Zn  Zn147  1  0.06241467  0.06028747  0.31273949  1
  Zn  Zn148  1  0.06146855  0.06261301  0.81418287  1
  Zn  Zn149  1  0.06441500  0.56195238  0.30537757  1
  Zn  Zn150  1  0.06370071  0.56411831  0.80867844  1
  Zn  Zn151  1  0.56059945  0.06128869  0.30995454  1
  Zn  Zn152  1  0.56324167  0.05853554  0.81304355  1
  Zn  Zn153  1  0.56262156  0.56078952  0.31500714  1
  Zn  Zn154  1  0.56009509  0.56459997  0.81542870  1
  Zn  Zn155  1  0.43425299  0.18340443  0.43672063  1
  Zn  Zn156  1  0.43834953  0.19161852  0.94068063  1
  Zn  Zn157  1  0.43137134  0.68539435  0.41828856  1
  Zn  Zn158  1  0.43350577  0.68440329  0.93682265  1
  Zn  Zn159  1  0.93636475  0.18956896  0.43708974  1
  Zn  Zn160  1  0.93533953  0.18831507  0.93748408  1
  Zn  Zn161  1  0.94080521  0.68996125  0.43949750  1
  Zn  Zn162  1  0.94326939  0.68775056  0.93245915  1
  Zn  Zn163  1  0.06126342  0.30774432  0.05552620  1
  Zn  Zn164  1  0.06309138  0.31648903  0.56229617  1
  Zn  Zn165  1  0.06513267  0.81036712  0.06352409  1
  Zn  Zn166  1  0.06973373  0.81862366  0.56209815  1
  Zn  Zn167  1  0.56128681  0.31086160  0.06781502  1
  Zn  Zn168  1  0.56301154  0.31210678  0.56528040  1
  Zn  Zn169  1  0.51783272  0.79504571  0.04276254  1
  Zn  Zn170  1  0.56721605  0.81725518  0.56441349  1
  O  O171  1  0.12525204  0.11874756  0.11460580  1
  O  O172  1  0.12150671  0.11977176  0.61965228  1
  O  O173  1  0.11819366  0.62697522  0.11556604  1
  O  O174  1  0.11872110  0.61486842  0.62820372  1
  O  O175  1  0.61331850  0.11347526  0.13185608  1
  O  O176  1  0.62933026  0.11708538  0.61618131  1
  O  O177  1  0.62190106  0.61607335  0.11896386  1
  O  O178  1  0.62952773  0.61905642  0.61211633  1
  O  O179  1  0.38262319  0.38128724  0.37939059  1
  O  O180  1  0.37536876  0.37421510  0.88981683  1
  O  O181  1  0.38323237  0.88861786  0.36583147  1
  O  O182  1  0.38038613  0.87157835  0.87309209  1
  O  O183  1  0.88624694  0.38159364  0.37531421  1
  O  O184  1  0.86913762  0.38696606  0.88472418  1
  O  O185  1  0.88238042  0.87929895  0.38393787  1
  O  O186  1  0.87288656  0.88576165  0.89515914  1
  O  O187  1  0.26378759  0.00163965  0.37407350  1
  O  O188  1  0.24293095  0.01576608  0.86336731  1
  O  O189  1  0.25466764  0.49883060  0.36437257  1
  O  O190  1  0.25079690  0.51269070  0.87630914  1
  O  O191  1  0.75179710  0.01096576  0.37028550  1
  O  O192  1  0.75809016  0.00649642  0.87369523  1
  O  O193  1  0.75663238  0.50543680  0.36969942  1
  O  O194  1  0.75777210  0.51044665  0.87123550  1
  O  O195  1  0.25274427  0.50050139  0.13690252  1
  O  O196  1  0.24105179  0.48775078  0.62489570  1
  O  O197  1  0.23654630  0.98813584  0.12295236  1
  O  O198  1  0.23985189  1.01186342  0.64364289  1
  O  O199  1  0.74713344  0.49432706  0.13161921  1
  O  O200  1  0.74425089  0.49472271  0.62999122  1
  O  O201  1  0.73989285  0.99617279  0.12829935  1
  O  O202  1  0.74796785  1.00003432  0.63798717  1
  O  O203  1  0.01092695  0.37348709  0.25352924  1
  O  O204  1  0.00500790  0.37276854  0.74561219  1
  O  O205  1  0.00283803  0.87682903  0.25813080  1
  O  O206  1  0.01294793  0.87961577  0.75697941  1
  O  O207  1  0.50281582  0.36739216  0.25615156  1
  O  O208  1  0.50877078  0.36586079  0.75215323  1
  O  O209  1  0.50813761  0.86797531  0.25335575  1
  O  O210  1  0.49867519  0.86629235  0.76486063  1
  O  O211  1  0.49225746  0.13130440  0.24190389  1
  O  O212  1  0.50023273  0.13614145  0.75093982  1
  O  O213  1  0.50734684  0.63261782  0.24414300  1
  O  O214  1  0.48833970  0.63560026  0.75769235  1
  O  O215  1  0.99204950  0.13235630  0.25080569  1
  O  O216  1  0.98503963  0.12088080  0.74916231  1
  O  O217  1  0.99085260  0.62475497  0.24081579  1
  O  O218  1  0.99905060  0.62629249  0.73591208  1
  O  O219  1  0.37731758  0.26472562  0.00717482  1
  O  O220  1  0.36860493  0.25272207  0.50781147  1
  O  O221  1  0.41185623  0.75158888  0.02051968  1
  O  O222  1  0.38596016  0.73801729  0.50288322  1
  O  O223  1  0.86830148  0.25956588  0.00291695  1
  O  O224  1  0.86474469  0.25571658  0.50575623  1
  O  O225  1  0.87444336  0.75959801  -0.00275243  1
  O  O226  1  0.86579488  0.75971449  0.49592584  1
  O  O227  1  0.13138960  0.24613254  0.49978402  1
  O  O228  1  0.12348701  0.24691326  0.98149725  1
  O  O229  1  0.11919548  0.75538703  0.47997415  1
  O  O230  1  0.12325713  0.73801989  0.99392389  1
  O  O231  1  0.63856451  0.24443435  0.50776737  1
  O  O232  1  0.63970788  0.25821423  1.00050879  1
  O  O233  1  0.62990613  0.74323512  0.49506090  1
  O  O234  1  0.61235844  0.73559309  0.99285217  1
  O  O235  1  0.49304566  0.24076197  0.13035892  1
  O  O236  1  0.49284415  0.25009446  0.63378743  1
  O  O237  1  0.51838833  0.73435242  0.13983765  1
  O  O238  1  0.51375679  0.75302309  0.64279989  1
  O  O239  1  0.99283065  0.24783557  0.13067745  1
  O  O240  1  0.98438021  0.25088948  0.61744332  1
  O  O241  1  1.00060171  0.73667095  0.12637447  1
  O  O242  1  1.01106110  0.73779090  0.62436328  1
  O  O243  1  -0.00056687  0.26025945  0.36659643  1
  O  O244  1  0.01006459  0.24827577  0.87142506  1
  O  O245  1  0.00408709  0.76259485  0.37185503  1
  O  O246  1  0.01620248  0.75309932  0.87397644  1
  O  O247  1  0.49217588  0.25826337  0.36569170  1
  O  O248  1  0.50486247  0.25335151  0.86810575  1
  O  O249  1  0.50665187  0.75659329  0.36372930  1
  O  O250  1  0.50491409  0.76237310  0.87010673  1
  O  O251  1  0.23485495  0.13437821  0.49780274  1
  O  O252  1  0.23900206  0.12138567  0.98508071  1
  O  O253  1  0.24757264  0.60789337  0.47827421  1
  O  O254  1  0.24186348  0.62164559  0.99497335  1
  O  O255  1  0.74319434  0.13121340  0.49321305  1
  O  O256  1  0.75648222  0.13667763  0.99235475  1
  O  O257  1  0.74603852  0.63194093  0.49550635  1
  O  O258  1  0.73841162  0.61919487  0.99299615  1
  O  O259  1  0.25717032  0.38062896  -0.00041612  1
  O  O260  1  0.25499645  0.36696915  0.50881123  1
  O  O261  1  0.24942637  0.87598407  0.01040783  1
  O  O262  1  0.24772579  0.88773095  0.51111067  1
  O  O263  1  0.76035762  0.37162104  0.00612251  1
  O  O264  1  0.75433981  0.36829408  0.50244145  1
  O  O265  1  0.75969767  0.87667121  0.01425506  1
  O  O266  1  0.75913424  0.86757636  0.49913011  1
  O  O267  1  0.13447408  0.48556199  0.24920486  1
  O  O268  1  0.11919232  0.48190614  0.74313404  1
  O  O269  1  0.12170199  0.99153042  0.24189435  1
  O  O270  1  0.13014893  0.99767456  0.74530319  1
  O  O271  1  0.63237913  0.49302855  0.24731236  1
  O  O272  1  0.62799961  0.49460460  0.74622367  1
  O  O273  1  0.62201361  0.98764900  0.24129382  1
  O  O274  1  0.63804575  1.00795509  0.74206025  1
  O  O275  1  0.38241926  0.01122179  0.26078092  1
  O  O276  1  0.36186748  0.00156266  0.74928060  1
  O  O277  1  0.35814968  0.48574231  0.25505569  1
  O  O278  1  0.38649251  0.51288211  0.75597688  1
  O  O279  1  0.87446191  0.01400067  0.25110816  1
  O  O280  1  0.86870721  0.00643769  0.76133277  1
  O  O281  1  0.87052569  0.50629694  0.25706402  1
  O  O282  1  0.86790021  0.50334373  0.75850741  1
  O  O283  1  0.11444933  0.37417343  0.37169768  1
  O  O284  1  0.12460870  0.36481274  0.86189128  1
  O  O285  1  0.11719188  0.87342212  0.36585742  1
  O  O286  1  0.12582328  0.86974270  0.87270760  1
  O  O287  1  0.61120089  0.37886403  0.37047032  1
  O  O288  1  0.62858854  0.37417768  0.86306405  1
  O  O289  1  0.62023710  0.87384971  0.36554062  1
  O  O290  1  0.63013256  0.86212577  0.87972683  1
  O  O291  1  0.38024452  0.12934081  0.13001950  1
  O  O292  1  0.37861740  0.13763324  0.62935028  1
  O  O293  1  0.38732321  0.62144474  0.12632586  1
  O  O294  1  0.37570275  0.61212894  0.63898420  1
  O  O295  1  0.87508305  0.13191643  0.13368593  1
  O  O296  1  0.87446932  0.13422988  0.63461822  1
  O  O297  1  0.88063975  0.62204560  0.13491482  1
  O  O298  1  0.89029481  0.62099862  0.62612295  1
  O  O299  1  0.26338018  0.24710785  0.12645545  1
  O  O300  1  0.25616373  0.25447232  0.61766696  1
  O  O301  1  0.24576566  0.76862758  0.13097641  1
  O  O302  1  0.23932686  0.73081147  0.61136125  1
  O  O303  1  0.75547810  0.25401598  0.11910911  1
  O  O304  1  0.75936902  0.25622122  0.61871340  1
  O  O305  1  0.74499783  0.76253076  0.12678333  1
  O  O306  1  0.74228191  0.75170266  0.61367904  1
  O  O307  1  0.25142662  0.25106113  0.38833086  1
  O  O308  1  0.23761348  0.23648529  0.86919116  1
  O  O309  1  0.24281929  0.73594597  0.36453140  1
  O  O310  1  0.23873257  0.73809445  0.86938052  1
  O  O311  1  0.75281213  0.24230534  0.38540595  1
  O  O312  1  0.75039899  0.24227892  0.88345782  1
  O  O313  1  0.74369873  0.74555792  0.38498943  1
  O  O314  1  0.74129546  0.73795575  0.87355637  1
  O  O315  1  0.01184391  0.13074216  0.00068419  1
  O  O316  1  0.00815878  0.12002645  0.49969205  1
  O  O317  1  0.00596906  0.61898491  0.00573455  1
  O  O318  1  -0.00003724  0.62435385  0.51272755  1
  O  O319  1  0.49864150  0.12043800  0.00964606  1
  O  O320  1  0.51530230  0.12998884  0.50057989  1
  O  O321  1  0.50772702  0.60897798  0.00953307  1
  O  O322  1  0.50764466  0.61892288  0.49712736  1
  O  O323  1  0.49566073  0.37663158  0.49201518  1
  O  O324  1  0.50292966  0.38511971  1.00212815  1
  O  O325  1  0.50991296  0.87556635  0.48299725  1
  O  O326  1  0.50472241  0.88806481  0.97974840  1
  O  O327  1  0.99343884  0.37706697  0.48986251  1
  O  O328  1  0.98825896  0.38375903  1.00503806  1
  O  O329  1  0.99428443  0.88315153  0.49526778  1
  O  O330  1  0.98428400  0.87205789  1.00492777  1
  O  O331  1  0.49171676  0.49195791  0.37951682  1
  O  O332  1  0.49902881  0.49555113  0.88681775  1
  O  O333  1  0.49410511  0.99224627  0.37535034  1
  O  O334  1  0.49869378  0.98881903  0.87704262  1
  O  O335  1  0.99620365  0.49460874  0.37481645  1
  O  O336  1  0.98774626  0.50854256  0.88220772  1
  O  O337  1  0.99969302  0.99134470  0.38698829  1
  O  O338  1  0.98460160  0.99890195  0.87536579  1
  O  O339  1  0.01371379  0.00203695  0.12690918  1
  O  O340  1  0.00608289  0.00463089  0.61524830  1
  O  O341  1  -0.00458580  0.51258284  0.11275099  1
  O  O342  1  0.00841973  0.50946116  0.62129230  1
  O  O343  1  0.50458962  0.00474320  0.11592978  1
  O  O344  1  0.51199401  0.00410010  0.62530655  1
  O  O345  1  0.50643219  0.50445623  0.12401205  1
  O  O346  1  0.50818734  0.49108796  0.61200019  1
  O  O347  1  0.23583171  0.38029807  0.25142943  1
  O  O348  1  0.25028799  0.36982991  0.74144515  1
  O  O349  1  0.23764541  0.87622553  0.25068138  1
  O  O350  1  0.23982330  0.88995795  0.75889679  1
  O  O351  1  0.74585725  0.37749092  0.24724851  1
  O  O352  1  0.74428529  0.38188136  0.74633140  1
  O  O353  1  0.74521978  0.87673399  0.24032224  1
  O  O354  1  0.75588010  0.88835120  0.75524981  1
  O  O355  1  0.26318154  0.13297692  0.25124648  1
  O  O356  1  0.25187492  0.11797582  0.76183580  1
  O  O357  1  0.24155136  0.60712965  0.25443340  1
  O  O358  1  0.26719348  0.62509849  0.75972630  1
  O  O359  1  0.75568984  0.12749966  0.25764308  1
  O  O360  1  0.76080642  0.11826517  0.76049863  1
  O  O361  1  0.75513974  0.62113062  0.25538024  1
  O  O362  1  0.75005036  0.61847731  0.75840239  1
  O  O363  1  0.37394559  0.11568027  0.36497340  1
  O  O364  1  0.35997587  0.13455787  0.87599303  1
  O  O365  1  0.36719173  0.60679221  0.36549359  1
  O  O366  1  0.36804746  0.62092230  0.87056197  1
  O  O367  1  0.86514786  0.12588219  0.36816216  1
  O  O368  1  0.86855276  0.11688769  0.87278687  1
  O  O369  1  0.87175353  0.61963946  0.36926937  1
  O  O370  1  0.86621167  0.61893525  0.87733897  1
  O  O371  1  0.12153926  0.37161664  0.13313861  1
  O  O372  1  0.13007795  0.37549070  0.63823234  1
  O  O373  1  0.12985362  0.88092038  0.13089111  1
  O  O374  1  0.12033999  0.89066023  0.63561034  1
  O  O375  1  0.63201129  0.38011910  0.13344179  1
  O  O376  1  0.63149076  0.37966518  0.63571184  1
  O  O377  1  0.63693157  0.88125181  0.12948997  1
  O  O378  1  0.63489873  0.89095391  0.62054920  1
  O  O379  1  0.12133912  0.26114260  0.25057733  1
  O  O380  1  0.12477818  0.26199049  0.75745099  1
  O  O381  1  0.11844918  0.76188237  0.25830366  1
  O  O382  1  0.12249343  0.76215750  0.75914003  1
  O  O383  1  0.61020820  0.25495335  0.24480575  1
  O  O384  1  0.62086460  0.25766018  0.74943342  1
  O  O385  1  0.62270854  0.76137812  0.25788022  1
  O  O386  1  0.61169131  0.74021815  0.76491141  1
  O  O387  1  0.38421977  0.24629272  0.24204723  1
  O  O388  1  0.38477438  0.25112019  0.74410485  1
  O  O389  1  0.38805914  0.75348354  0.24272410  1
  O  O390  1  0.38667784  0.73708694  0.75189721  1
  O  O391  1  0.87946522  0.24162912  0.24538461  1
  O  O392  1  0.86804376  0.24186741  0.74212354  1
  O  O393  1  0.87469398  0.73859247  0.25667482  1
  O  O394  1  0.88158578  0.75098414  0.75562431  1
  O  O395  1  0.38011126  0.49193162  0.49128674  1
  O  O396  1  0.38302560  0.48602690  1.00087501  1
  O  O397  1  0.38254320  1.01273702  0.48103651  1
  O  O398  1  0.38478592  1.00574918  1.00303577  1
  O  O399  1  0.87508116  0.49308148  0.48888290  1
  O  O400  1  0.88168840  0.49466640  0.99331385  1
  O  O401  1  0.88272042  0.99699738  0.49945891  1
  O  O402  1  0.87267955  1.00047993  0.99296356  1
  O  O403  1  0.12502045  0.01084686  0.00575834  1
  O  O404  1  0.11839943  0.00886447  0.50759967  1
  O  O405  1  0.11230475  0.50713917  -0.00772971  1
  O  O406  1  0.12327935  0.48850575  0.51843666  1
  O  O407  1  0.61790126  -0.00122181  0.00929595  1
  O  O408  1  0.62515046  0.01000657  0.50736792  1
  O  O409  1  0.62028585  0.50454992  0.00632401  1
  O  O410  1  0.61961832  0.50731076  0.50273926  1
  O  O411  1  0.37762863  0.36664692  0.11112755  1
  O  O412  1  0.36806742  0.36787306  0.62105485  1
  O  O413  1  0.35713410  0.87958468  0.13048231  1
  O  O414  1  0.37539348  0.88442274  0.61401487  1
  O  O415  1  0.87005591  0.37091798  0.11962458  1
  O  O416  1  0.86917846  0.37208393  0.61994498  1
  O  O417  1  0.86325604  0.87831466  0.11652429  1
  O  O418  1  0.87469512  0.88147679  0.61383915  1
  O  O419  1  0.12643443  0.12839039  0.38221789  1
  O  O420  1  0.12749251  0.13531070  0.87692808  1
  O  O421  1  0.13057213  0.63402327  0.36717279  1
  O  O422  1  0.13207180  0.62990836  0.88076789  1
  O  O423  1  0.63474638  0.12187413  0.38031641  1
  O  O424  1  0.63890577  0.12588841  0.87272283  1
  O  O425  1  0.63152110  0.62793792  0.38587603  1
  O  O426  1  0.63129682  0.62922587  0.88431846  1
