# generated using pymatgen
data_V85Zn86O256
_symmetry_space_group_name_H-M   'P 1'
_cell_length_a   16.96456771
_cell_length_b   16.97651505
_cell_length_c   16.96534605
_cell_angle_alpha   90.07961984
_cell_angle_beta   90.10761134
_cell_angle_gamma   90.06144316
_symmetry_Int_Tables_number   1
_chemical_formula_structural   V85Zn86O256
_chemical_formula_sum   'V85 Zn86 O256'
_cell_volume   4885.99059713
_cell_formula_units_Z   1
loop_
 _symmetry_equiv_pos_site_id
 _symmetry_equiv_pos_as_xyz
  1  'x, y, z'
loop_
 _atom_site_type_symbol
 _atom_site_label
 _atom_site_symmetry_multiplicity
 _atom_site_fract_x
 _atom_site_fract_y
 _atom_site_fract_z
 _atom_site_occupancy
  V  V0  1  0.13184715  0.38536403  0.75517339  1
  V  V1  1  0.37606536  0.87600307  0.00173215  1
  V  V2  1  0.75311973  0.49865684  0.74711952  1
  V  V3  1  0.00199972  0.62224944  0.12946505  1
  V  V4  1  0.12585714  0.63218309  0.49636198  1
  V  V5  1  0.49627947  0.48129895  0.49349937  1
  V  V6  1  0.49964894  0.37268991  0.87637973  1
  V  V7  1  0.12820262  0.87205356  0.25489463  1
  V  V8  1  0.63445893  0.50025789  0.13365463  1
  V  V9  1  0.61653142  0.50270121  0.62628020  1
  V  V10  1  0.07763284  0.20600350  0.83029834  1
  V  V11  1  0.37486405  0.61825492  0.24794210  1
  V  V12  1  0.86675021  0.37101670  -0.00197004  1
  V  V13  1  0.11466777  0.12389937  0.00524084  1
  V  V14  1  0.37535576  0.37608851  0.00294038  1
  V  V15  1  -0.00054698  0.49733029  0.00370573  1
  V  V16  1  0.63482600  0.13024480  0.00353263  1
  V  V17  1  0.49981771  0.87530488  0.37404314  1
  V  V18  1  0.75077565  0.75091747  -0.00208848  1
  V  V19  1  0.75122032  0.74637794  0.50782180  1
  V  V20  1  0.86978110  0.62540422  0.25110063  1
  V  V21  1  0.25122252  0.74986007  0.00085966  1
  V  V22  1  0.00466601  0.50153846  0.49739384  1
  V  V23  1  0.63523505  0.88045933  0.75854077  1
  V  V24  1  0.75055337  0.87364890  0.12681357  1
  V  V25  1  0.50339175  0.13108677  0.13558777  1
  V  V26  1  0.63470511  0.25118988  0.87744244  1
  V  V27  1  0.62517067  0.37278761  0.74920525  1
  V  V28  1  0.62067750  0.25385918  0.37010114  1
  V  V29  1  0.87240320  0.49778936  0.37198396  1
  V  V30  1  0.37490196  0.75007064  0.12162611  1
  V  V31  1  0.01275334  0.36275877  0.36489170  1
  V  V32  1  0.25479396  0.12875486  0.86923035  1
  V  V33  1  0.12810422  0.12696370  0.49254338  1
  V  V34  1  0.60149340  0.72652962  0.85449291  1
  V  V35  1  0.50196547  0.00573603  0.00333902  1
  V  V36  1  -0.00243791  0.00580163  0.50622822  1
  V  V37  1  0.62897597  0.00112548  0.62991784  1
  V  V38  1  0.62590768  0.87406063  0.25051886  1
  V  V39  1  0.75274464  0.37134538  0.13670395  1
  V  V40  1  0.25363892  0.37886676  0.62658579  1
  V  V41  1  0.10446594  0.00186188  0.12473935  1
  V  V42  1  0.25089332  0.88914401  0.12680666  1
  V  V43  1  0.75114048  0.24972545  0.50426526  1
  V  V44  1  0.74719018  0.61992770  0.37724547  1
  V  V45  1  0.38246124  0.25692254  0.13314187  1
  V  V46  1  0.61118064  0.62682913  0.50425477  1
  V  V47  1  0.37419046  0.00549659  0.87435724  1
  V  V48  1  0.12474786  0.62318588  0.00555796  1
  V  V49  1  0.75169322  0.12435026  0.37466147  1
  V  V50  1  -0.00702426  0.75073616  0.74832601  1
  V  V51  1  0.49370440  0.24432861  0.75132716  1
  V  V52  1  0.88213663  0.24491235  0.12772985  1
  V  V53  1  0.37029162  0.00356050  0.36620583  1
  V  V54  1  0.00440441  0.37695834  0.87191772  1
  V  V55  1  0.00017230  0.87514982  0.88901070  1
  V  V56  1  0.12266121  0.00320508  0.62553957  1
  V  V57  1  0.50490145  0.87892457  0.87541954  1
  V  V58  1  0.25230201  0.25532587  0.48913859  1
  V  V59  1  0.75713176  0.62629537  0.87383315  1
  V  V60  1  0.25332666  0.87274251  0.62478735  1
  V  V61  1  0.25671732  0.00291629  0.74835601  1
  V  V62  1  0.25409082  0.75237864  0.49407502  1
  V  V63  1  0.75419607  0.87499782  0.63017331  1
  V  V64  1  0.20472411  0.35512581  0.13624746  1
  V  V65  1  0.49032304  0.11981689  0.62981802  1
  V  V66  1  0.24457872  0.62627610  0.36961468  1
  V  V67  1  0.87654995  -0.00368947  0.37655577  1
  V  V68  1  0.87804527  0.37323586  0.50223340  1
  V  V69  1  0.87830213  0.86809128  0.50334557  1
  V  V70  1  0.23270268  0.49986174  0.23638581  1
  V  V71  1  0.24987283  0.24806822  -0.00363212  1
  V  V72  1  0.62520367  0.12479980  0.50140962  1
  V  V73  1  0.88902580  0.12722948  0.24985595  1
  V  V74  1  0.36884234  0.25145394  0.62365180  1
  V  V75  1  0.12516783  0.74708793  0.86875889  1
  V  V76  1  0.74935333  0.11417518  0.86567291  1
  V  V77  1  0.25049859  0.61747894  0.86864354  1
  V  V78  1  0.62716964  0.62240458  0.00362525  1
  V  V79  1  0.49969098  0.74909188  0.24905209  1
  V  V80  1  0.49827154  -0.00028394  0.50155022  1
  V  V81  1  -0.00193201  0.62882690  0.62454471  1
  V  V82  1  0.50360936  0.62538594  0.12311759  1
  V  V83  1  0.37139377  0.50009040  0.86439842  1
  V  V84  1  0.75176449  -0.00082777  0.25161402  1
  Zn  Zn85  1  0.36654596  0.12831782  0.24645370  1
  Zn  Zn86  1  0.87654872  0.49686805  0.87076329  1
  Zn  Zn87  1  0.75310930  0.37191158  0.62755841  1
  Zn  Zn88  1  0.62679121  0.00245884  0.12715881  1
  Zn  Zn89  1  0.37167705  0.48882847  0.37519343  1
  Zn  Zn90  1  0.12345460  0.87514839  0.74915149  1
  Zn  Zn91  1  0.87999422  0.88385882  0.00845158  1
  Zn  Zn92  1  0.13165632  0.50191816  0.62580870  1
  Zn  Zn93  1  0.87574872  0.74809509  0.12575309  1
  Zn  Zn94  1  0.37973695  0.86923312  0.50481146  1
  Zn  Zn95  1  0.87781482  0.00115540  0.87963992  1
  Zn  Zn96  1  0.24066586  0.12424443  0.36381682  1
  Zn  Zn97  1  0.89617581  0.23933838  0.62635351  1
  Zn  Zn98  1  0.62455016  0.74804407  0.37664072  1
  Zn  Zn99  1  0.50163568  0.49959941  -0.00071448  1
  Zn  Zn100  1  0.00678355  0.86769441  0.38000465  1
  Zn  Zn101  1  0.46681371  0.33960463  0.33823149  1
  Zn  Zn102  1  0.62516934  0.38028268  0.25585030  1
  Zn  Zn103  1  0.87483993  0.62498196  0.74240164  1
  Zn  Zn104  1  0.87376384  0.12524804  0.74096847  1
  Zn  Zn105  1  0.40503582  0.70526147  0.63415348  1
  Zn  Zn106  1  0.00491710  0.74673801  0.25885564  1
  Zn  Zn107  1  0.18417041  0.18558525  0.18585565  1
  Zn  Zn108  1  0.07059346  0.19340777  0.66301359  1
  Zn  Zn109  1  0.18836608  0.69048390  0.18469930  1
  Zn  Zn110  1  0.22348150  0.66531914  0.66755933  1
  Zn  Zn111  1  0.69602423  0.18894086  0.18847989  1
  Zn  Zn112  1  0.68776398  0.18764570  0.68912303  1
  Zn  Zn113  1  0.69055304  0.68896278  0.19150375  1
  Zn  Zn114  1  0.68442437  0.68720438  0.68669622  1
  Zn  Zn115  1  0.29844286  0.31657845  0.30778240  1
  Zn  Zn116  1  0.31274678  0.31346558  0.81044204  1
  Zn  Zn117  1  0.31225716  0.81333811  0.31000947  1
  Zn  Zn118  1  0.30383406  0.81968931  0.81740082  1
  Zn  Zn119  1  0.81516774  0.31023196  0.31505156  1
  Zn  Zn120  1  0.81822276  0.30787340  0.80826680  1
  Zn  Zn121  1  0.81388226  0.80675777  0.31803936  1
  Zn  Zn122  1  0.81481295  0.81106113  0.81458840  1
  Zn  Zn123  1  0.19090436  0.43916603  0.43186357  1
  Zn  Zn124  1  0.18529625  0.43516461  0.94927495  1
  Zn  Zn125  1  0.18914417  0.93954361  0.43937118  1
  Zn  Zn126  1  0.18310211  0.93951784  0.94068146  1
  Zn  Zn127  1  0.68735331  0.43667820  0.44197554  1
  Zn  Zn128  1  0.68978431  0.43907559  0.93798945  1
  Zn  Zn129  1  0.68796518  0.93583952  0.44011270  1
  Zn  Zn130  1  0.69015876  0.94065856  0.94340656  1
  Zn  Zn131  1  0.31419293  0.06949207  0.06215311  1
  Zn  Zn132  1  0.31090742  0.06320324  0.55964791  1
  Zn  Zn133  1  0.31328248  0.55946542  0.05855648  1
  Zn  Zn134  1  0.31690698  0.55984700  0.55665011  1
  Zn  Zn135  1  0.81642173  0.06047104  0.06169069  1
  Zn  Zn136  1  0.81382782  0.06220704  0.56538594  1
  Zn  Zn137  1  0.81487558  0.55805439  0.06353308  1
  Zn  Zn138  1  0.81318774  0.56013823  0.56233852  1
  Zn  Zn139  1  0.44456248  0.44113783  0.18513114  1
  Zn  Zn140  1  0.43892911  0.43441763  0.68478539  1
  Zn  Zn141  1  0.43951030  0.93951420  0.18661608  1
  Zn  Zn142  1  0.43603910  0.85014353  0.69592624  1
  Zn  Zn143  1  0.93675972  0.43978525  0.18942854  1
  Zn  Zn144  1  0.94294671  0.43457050  0.68489747  1
  Zn  Zn145  1  0.93718422  0.93296122  0.19241776  1
  Zn  Zn146  1  0.93393495  0.93735261  0.69091073  1
  Zn  Zn147  1  0.06287269  0.05123129  0.31286021  1
  Zn  Zn148  1  0.03133911  0.03321447  0.78972177  1
  Zn  Zn149  1  0.06021913  0.56153092  0.31428947  1
  Zn  Zn150  1  0.06380215  0.56273653  0.81423486  1
  Zn  Zn151  1  0.56440595  0.06273481  0.31403241  1
  Zn  Zn152  1  0.56447604  0.06206485  0.81170019  1
  Zn  Zn153  1  0.56237455  0.55970583  0.31422987  1
  Zn  Zn154  1  0.56325167  0.55441681  0.81617291  1
  Zn  Zn155  1  0.43519473  0.18388047  0.44109662  1
  Zn  Zn156  1  0.44030785  0.18881268  0.94168724  1
  Zn  Zn157  1  0.43167753  0.68626362  0.43231340  1
  Zn  Zn158  1  0.42953575  0.69330341  0.82494046  1
  Zn  Zn159  1  0.93966491  0.18758042  0.43989865  1
  Zn  Zn160  1  0.92714541  0.18676939  0.94617798  1
  Zn  Zn161  1  0.93788359  0.69009055  0.43571907  1
  Zn  Zn162  1  0.93727987  0.68922167  0.93979250  1
  Zn  Zn163  1  0.06183680  0.30794954  0.06616695  1
  Zn  Zn164  1  0.07517688  0.32434616  0.54963664  1
  Zn  Zn165  1  0.06655644  0.80523645  0.06978466  1
  Zn  Zn166  1  0.06724273  0.81188949  0.56332045  1
  Zn  Zn167  1  0.56573615  0.31416817  0.06393464  1
  Zn  Zn168  1  0.56440285  0.30893321  0.56545650  1
  Zn  Zn169  1  0.56656245  0.81047351  0.05770294  1
  Zn  Zn170  1  0.56657027  0.81432329  0.56254406  1
  O  O171  1  0.12321769  0.10883372  0.12030653  1
  O  O172  1  0.12678536  0.11043833  0.61068150  1
  O  O173  1  0.11598899  0.62872950  0.11668479  1
  O  O174  1  0.12366231  0.62015300  0.61315304  1
  O  O175  1  0.62185311  0.12864476  0.11921211  1
  O  O176  1  0.61940837  0.11776205  0.62088428  1
  O  O177  1  0.62817622  0.61923385  0.12081541  1
  O  O178  1  0.62637182  0.61457525  0.61762541  1
  O  O179  1  0.36941759  0.37521990  0.37254128  1
  O  O180  1  0.37982375  0.37847095  0.88415379  1
  O  O181  1  0.38550836  0.88445331  0.37496589  1
  O  O182  1  0.38346773  0.88775778  0.88372381  1
  O  O183  1  0.87652064  0.38236539  0.38452225  1
  O  O184  1  0.88190707  0.37246790  0.88286447  1
  O  O185  1  0.87101123  0.88066231  0.38730371  1
  O  O186  1  0.89146205  0.87264825  0.87693004  1
  O  O187  1  0.26878704  0.00076472  0.38150853  1
  O  O188  1  0.25610456  0.00385300  0.87238009  1
  O  O189  1  0.25170189  0.50719442  0.35865353  1
  O  O190  1  0.25901286  0.50686174  0.88708877  1
  O  O191  1  0.75635192  0.00389955  0.37282097  1
  O  O192  1  0.74837040  0.01176810  0.87357183  1
  O  O193  1  0.75696390  0.51127013  0.38598734  1
  O  O194  1  0.75072796  0.50637432  0.86237690  1
  O  O195  1  0.25133893  0.49839422  0.13530358  1
  O  O196  1  0.25098537  0.48088527  0.61110833  1
  O  O197  1  0.25435870  0.98997900  0.12111361  1
  O  O198  1  0.24412390  0.99898838  0.63252715  1
  O  O199  1  0.74676413  0.48563293  0.12230027  1
  O  O200  1  0.74118553  0.50006844  0.63484940  1
  O  O201  1  0.74850043  0.99040210  0.13309414  1
  O  O202  1  0.73548676  0.99060030  0.61432202  1
  O  O203  1  -0.00614724  0.38170224  0.26722427  1
  O  O204  1  0.00652600  0.37985008  0.76537052  1
  O  O205  1  0.01452949  0.87108983  0.24962170  1
  O  O206  1  0.00425199  0.86524960  0.75984356  1
  O  O207  1  0.51252172  0.37749015  0.24575608  1
  O  O208  1  0.50680525  0.36523947  0.75572056  1
  O  O209  1  0.50549531  0.87053165  0.25509370  1
  O  O210  1  0.51401357  0.88655939  0.77000886  1
  O  O211  1  0.50062139  0.12133725  0.23736345  1
  O  O212  1  0.50640508  0.13183356  0.74099761  1
  O  O213  1  0.49326686  0.62854274  0.24524461  1
  O  O214  1  0.53445682  0.65991683  0.79237313  1
  O  O215  1  0.98786892  0.11827769  0.25563579  1
  O  O216  1  1.02514450  0.14542193  0.76402704  1
  O  O217  1  0.99178755  0.62351500  0.24445562  1
  O  O218  1  1.00152049  0.63044112  0.74151276  1
  O  O219  1  0.37201901  0.25685140  0.00613182  1
  O  O220  1  0.36184137  0.24239254  0.50767827  1
  O  O221  1  0.36781111  0.76101054  0.00783243  1
  O  O222  1  0.36321214  0.74847951  0.50217436  1
  O  O223  1  0.87202764  0.25787564  0.01576927  1
  O  O224  1  0.86726247  0.25758033  0.50080763  1
  O  O225  1  0.86002279  0.75093516  0.00146788  1
  O  O226  1  0.86754923  0.76103640  0.50128862  1
  O  O227  1  0.14201979  0.23850848  0.50558955  1
  O  O228  1  0.13971385  0.23909542  1.00813469  1
  O  O229  1  0.13548331  0.73884623  0.49940738  1
  O  O230  1  0.13060914  0.74023335  0.99423945  1
  O  O231  1  0.63158051  0.24419222  0.49314606  1
  O  O232  1  0.61830859  0.24136116  0.98875410  1
  O  O233  1  0.63208310  0.74223550  0.49941322  1
  O  O234  1  0.63484046  0.74048720  0.99076927  1
  O  O235  1  0.49492090  0.24148140  0.11821784  1
  O  O236  1  0.49275191  0.24086986  0.63013129  1
  O  O237  1  0.49692317  0.74508373  0.12824429  1
  O  O238  1  0.48930134  0.77261803  0.62951859  1
  O  O239  1  0.98031312  0.25482956  0.12655558  1
  O  O240  1  1.00529542  0.26357839  0.61144614  1
  O  O241  1  0.99536249  0.73485230  0.12885541  1
  O  O242  1  1.01105345  0.74114069  0.63605559  1
  O  O243  1  -0.00284633  0.26388389  0.37762114  1
  O  O244  1  0.00422309  0.25700237  0.88284693  1
  O  O245  1  -0.00014597  0.75524458  0.37296854  1
  O  O246  1  0.00689113  0.75220018  0.86961803  1
  O  O247  1  0.51577165  0.24517685  0.38244579  1
  O  O248  1  0.50616673  0.25147638  0.86690650  1
  O  O249  1  0.49820029  0.75915943  0.36847403  1
  O  O250  1  0.50611464  0.76809268  0.89072387  1
  O  O251  1  0.24372231  0.13203658  0.49365640  1
  O  O252  1  0.24486492  0.13044879  0.99181003  1
  O  O253  1  0.24471164  0.62948012  0.48751348  1
  O  O254  1  0.24139817  0.63028668  0.99704567  1
  O  O255  1  0.74481883  0.13011526  0.49347411  1
  O  O256  1  0.73731712  0.12194787  0.99245471  1
  O  O257  1  0.74295995  0.63067838  0.49903231  1
  O  O258  1  0.74671445  0.62976816  0.99563332  1
  O  O259  1  0.26130678  0.36372718  0.00211518  1
  O  O260  1  0.24128882  0.36006563  0.50562023  1
  O  O261  1  0.25456467  0.87015775  0.00613322  1
  O  O262  1  0.25238161  0.86691699  0.50319358  1
  O  O263  1  0.76341553  0.38018513  0.00586619  1
  O  O264  1  0.75929069  0.36717083  0.50179291  1
  O  O265  1  0.74813233  0.86630137  0.00952255  1
  O  O266  1  0.75483191  0.86581779  0.50758128  1
  O  O267  1  0.13448592  0.50748671  0.24420919  1
  O  O268  1  0.12295705  0.48889305  0.74801970  1
  O  O269  1  0.12181060  0.98913899  0.23311918  1
  O  O270  1  0.13034472  0.99819642  0.74096933  1
  O  O271  1  0.62749378  0.50381486  0.23732938  1
  O  O272  1  0.62901048  0.49467435  0.74239894  1
  O  O273  1  0.63275426  0.99218434  0.24994118  1
  O  O274  1  0.62595100  0.99102324  0.74208702  1
  O  O275  1  0.38052191  0.00086964  0.26357167  1
  O  O276  1  0.35950059  -0.00503878  0.76197503  1
  O  O277  1  0.37197713  0.51212431  0.24542412  1
  O  O278  1  0.38099499  0.49156543  0.76527976  1
  O  O279  1  0.87002748  0.00397670  0.25689557  1
  O  O280  1  0.91256564  0.01784135  0.76898334  1
  O  O281  1  0.87595900  0.50993309  0.26464126  1
  O  O282  1  0.86646921  0.50147991  0.74864742  1
  O  O283  1  0.11212435  0.37671806  0.37648661  1
  O  O284  1  0.11850823  0.37733341  0.87054439  1
  O  O285  1  0.12967122  0.88504809  0.35737122  1
  O  O286  1  0.11821872  0.86247839  0.87866162  1
  O  O287  1  0.63273866  0.35894692  0.37607895  1
  O  O288  1  0.62124945  0.36788104  0.87177622  1
  O  O289  1  0.61407978  0.87363840  0.37126573  1
  O  O290  1  0.62258990  0.87488865  0.87167382  1
  O  O291  1  0.38622732  0.13640472  0.12512267  1
  O  O292  1  0.38641762  0.12819294  0.62241659  1
  O  O293  1  0.38168392  0.62995681  0.12776614  1
  O  O294  1  0.33220307  0.62684430  0.64255845  1
  O  O295  1  0.86628332  0.13795382  0.13316230  1
  O  O296  1  0.87978247  0.12418646  0.62577128  1
  O  O297  1  0.87821313  0.62348583  0.13615797  1
  O  O298  1  0.89364222  0.62076209  0.62153838  1
  O  O299  1  0.26578435  0.25798297  0.11238264  1
  O  O300  1  0.26318405  0.25602977  0.61697166  1
  O  O301  1  0.25571312  0.75849881  0.11753628  1
  O  O302  1  0.24177179  0.76446781  0.61245467  1
  O  O303  1  0.75553206  0.26594108  0.12501785  1
  O  O304  1  0.74232435  0.25110510  0.61043048  1
  O  O305  1  0.74899595  0.75636140  0.11668987  1
  O  O306  1  0.74551295  0.75806568  0.61560205  1
  O  O307  1  0.25021212  0.24667197  0.38656575  1
  O  O308  1  0.26222652  0.24148549  0.88538340  1
  O  O309  1  0.25526176  0.74055616  0.38012340  1
  O  O310  1  0.24259007  0.74396077  0.88358013  1
  O  O311  1  0.74454950  0.24388469  0.38620906  1
  O  O312  1  0.73684765  0.24274212  0.87088311  1
  O  O313  1  0.74857132  0.73853865  0.38979644  1
  O  O314  1  0.74373010  0.74082310  0.87926785  1
  O  O315  1  0.01576081  0.13099302  -0.00784655  1
  O  O316  1  0.00605658  0.11083453  0.49554378  1
  O  O317  1  0.00305443  0.61926583  0.00785851  1
  O  O318  1  0.00843483  0.62198943  0.50396198  1
  O  O319  1  0.50909773  0.11718061  0.00649898  1
  O  O320  1  0.50600038  0.11826597  0.50894112  1
  O  O321  1  0.52104008  0.62517129  0.00651453  1
  O  O322  1  0.50959141  0.62600781  0.49574375  1
  O  O323  1  0.50364313  0.38241539  0.49925591  1
  O  O324  1  0.49511432  0.37439864  0.99175111  1
  O  O325  1  0.50048537  0.88301336  0.49038297  1
  O  O326  1  0.50100764  0.88964869  0.99632643  1
  O  O327  1  0.99513657  0.38623903  0.48790172  1
  O  O328  1  0.99200334  0.38133616  0.99287743  1
  O  O329  1  0.99178446  0.88001340  0.50380500  1
  O  O330  1  0.99799902  0.85726026  0.99116667  1
  O  O331  1  0.50198602  0.49800454  0.38909281  1
  O  O332  1  0.49388657  0.49059209  0.87938909  1
  O  O333  1  0.49561814  0.99384648  0.38110433  1
  O  O334  1  0.49436943  1.00007179  0.88372771  1
  O  O335  1  0.99103538  0.49992079  0.38486821  1
  O  O336  1  0.99627160  0.49354816  0.88311924  1
  O  O337  1  0.99200781  0.98929489  0.38552214  1
  O  O338  1  1.01522104  0.97558910  0.88785209  1
  O  O339  1  0.00661440  -0.00621251  0.12103207  1
  O  O340  1  0.00998676  -0.00836605  0.61772229  1
  O  O341  1  -0.00644100  0.51074885  0.11686597  1
  O  O342  1  0.00507277  0.50472173  0.61083501  1
  O  O343  1  0.50325530  0.00884942  0.11799959  1
  O  O344  1  0.51237744  0.00640931  0.61615867  1
  O  O345  1  0.51293540  0.51050224  0.11924357  1
  O  O346  1  0.50877430  0.49605090  0.61423542  1
  O  O347  1  0.24393811  0.38895272  0.23667570  1
  O  O348  1  0.24314960  0.37113724  0.74098011  1
  O  O349  1  0.24081005  0.87209551  0.23928693  1
  O  O350  1  0.24253114  0.88440164  0.74261992  1
  O  O351  1  0.74875952  0.37442973  0.23994189  1
  O  O352  1  0.74377759  0.38331372  0.74981090  1
  O  O353  1  0.74588820  0.87581747  0.24638143  1
  O  O354  1  0.74889965  0.87556402  0.74341700  1
  O  O355  1  0.25227890  0.13276949  0.25262819  1
  O  O356  1  0.24751017  0.11649048  0.76803182  1
  O  O357  1  0.25451419  0.61833616  0.25000727  1
  O  O358  1  0.23180502  0.62170314  0.77177235  1
  O  O359  1  0.75621065  0.11668238  0.25790379  1
  O  O360  1  0.74374334  0.12042530  0.76343770  1
  O  O361  1  0.75618977  0.62844133  0.26486649  1
  O  O362  1  0.75133920  0.61924610  0.75670359  1
  O  O363  1  0.38042734  0.11126767  0.36997295  1
  O  O364  1  0.37088187  0.11277790  0.88358664  1
  O  O365  1  0.36412100  0.62007936  0.36336854  1
  O  O366  1  0.36345935  0.61418346  0.87502378  1
  O  O367  1  0.87035453  0.11822269  0.37037555  1
  O  O368  1  0.85470562  0.13016846  0.87754487  1
  O  O369  1  0.86702990  0.61731644  0.37319953  1
  O  O370  1  0.86490453  0.62215443  0.87505666  1
  O  O371  1  0.13486676  0.39977779  0.07792657  1
  O  O372  1  0.13609698  0.37846078  0.63527033  1
  O  O373  1  0.13218199  0.88539965  0.12710212  1
  O  O374  1  0.13601773  0.88720456  0.62258271  1
  O  O375  1  0.63959429  0.38145097  0.12363838  1
  O  O376  1  0.62756554  0.38314295  0.63157622  1
  O  O377  1  0.63537727  0.87474341  0.13040572  1
  O  O378  1  0.63552968  0.88220180  0.63410341  1
  O  O379  1  0.13371416  0.28695161  0.17703085  1
  O  O380  1  0.12590130  0.26059936  0.75937970  1
  O  O381  1  0.12508056  0.76767071  0.24103332  1
  O  O382  1  0.11800134  0.74990356  0.76478420  1
  O  O383  1  0.63365334  0.24657903  0.26901850  1
  O  O384  1  0.61590141  0.25392429  0.75643385  1
  O  O385  1  0.61761372  0.75541233  0.25431907  1
  O  O386  1  0.63525495  0.76674810  0.75808397  1
  O  O387  1  0.37326682  0.25574970  0.23616582  1
  O  O388  1  0.38758561  0.25104293  0.74284430  1
  O  O389  1  0.37947855  0.73922887  0.24257685  1
  O  O390  1  0.37763587  0.76386061  0.75326203  1
  O  O391  1  0.86747489  0.24033217  0.23977596  1
  O  O392  1  0.86635107  0.24001269  0.73744460  1
  O  O393  1  0.87474660  0.73549171  0.25061360  1
  O  O394  1  0.88890278  0.74463329  0.75354818  1
  O  O395  1  0.39399609  0.50367371  0.49672384  1
  O  O396  1  0.37932407  0.49016637  0.99389865  1
  O  O397  1  0.38852982  1.00100607  0.49150879  1
  O  O398  1  0.38389905  0.99692308  0.99650713  1
  O  O399  1  0.88216147  0.49473614  0.49172109  1
  O  O400  1  0.88466241  0.49183105  0.99661650  1
  O  O401  1  0.88101053  0.98936254  0.49677641  1
  O  O402  1  0.87160101  0.99542295  0.99264480  1
  O  O403  1  0.13061092  0.00815485  0.01608760  1
  O  O404  1  0.11777088  0.00276508  0.50586706  1
  O  O405  1  0.11054708  0.51702357  -0.01098843  1
  O  O406  1  0.11871321  0.51128880  0.49543368  1
  O  O407  1  0.61771202  0.00996205  0.00408771  1
  O  O408  1  0.61538543  0.00377377  0.50386122  1
  O  O409  1  0.62912853  0.50737821  0.01022653  1
  O  O410  1  0.61497654  0.50523048  0.50716164  1
  O  O411  1  0.38569646  0.37091916  0.11139748  1
  O  O412  1  0.36905678  0.36295016  0.62819787  1
  O  O413  1  0.37000753  0.87172994  0.12173886  1
  O  O414  1  0.35763001  0.88981979  0.62079917  1
  O  O415  1  0.86652828  0.37005658  0.12280313  1
  O  O416  1  0.87405461  0.37888696  0.60984153  1
  O  O417  1  0.86260846  0.86934670  0.12832996  1
  O  O418  1  0.86190517  0.88230411  0.61984283  1
  O  O419  1  0.12471963  0.11235214  0.38800321  1
  O  O420  1  0.13466001  0.13542253  0.88276326  1
  O  O421  1  0.13699920  0.62187856  0.37863784  1
  O  O422  1  0.12657152  0.63242902  0.88577102  1
  O  O423  1  0.63097787  0.13202333  0.38180319  1
  O  O424  1  0.63318422  0.12999781  0.88117118  1
  O  O425  1  0.63195131  0.62442232  0.38476054  1
  O  O426  1  0.64111462  0.62162302  0.88655266  1
