# generated using pymatgen
data_V85Zn86O256
_symmetry_space_group_name_H-M   'P 1'
_cell_length_a   16.93386821
_cell_length_b   16.92019520
_cell_length_c   16.92330007
_cell_angle_alpha   90.01897761
_cell_angle_beta   90.01054050
_cell_angle_gamma   89.93250107
_symmetry_Int_Tables_number   1
_chemical_formula_structural   V85Zn86O256
_chemical_formula_sum   'V85 Zn86 O256'
_cell_volume   4848.93393276
_cell_formula_units_Z   1
loop_
 _symmetry_equiv_pos_site_id
 _symmetry_equiv_pos_as_xyz
  1  'x, y, z'
loop_
 _atom_site_type_symbol
 _atom_site_label
 _atom_site_symmetry_multiplicity
 _atom_site_fract_x
 _atom_site_fract_y
 _atom_site_fract_z
 _atom_site_occupancy
  V  V0  1  0.87217404  0.62504405  0.75018645  1
  V  V1  1  -0.00313597  0.37394424  0.37688232  1
  V  V2  1  0.37595868  0.11858045  0.25400408  1
  V  V3  1  0.49886234  0.86971683  0.87025640  1
  V  V4  1  0.01410303  0.24753528  0.74790019  1
  V  V5  1  0.12379777  0.13916238  0.00019849  1
  V  V6  1  0.38760445  0.62890588  0.74767967  1
  V  V7  1  0.74055760  0.00377172  0.74667706  1
  V  V8  1  0.24705424  0.37577685  0.63126828  1
  V  V9  1  0.24630887  0.00248297  0.75072428  1
  V  V10  1  0.12452888  0.37578114  0.24884698  1
  V  V11  1  0.74621119  -0.00680464  0.25394362  1
  V  V12  1  0.74439521  0.49111131  0.73454415  1
  V  V13  1  0.00216121  0.74282311  0.24424451  1
  V  V14  1  0.12622641  0.62632437  0.50215313  1
  V  V15  1  0.70023622  0.30804565  0.55864305  1
  V  V16  1  0.50398639  0.00078151  0.50227414  1
  V  V17  1  0.12226319  0.51376674  0.11750290  1
  V  V18  1  -0.00467521  0.25004662  0.24159066  1
  V  V19  1  0.24699231  0.74973512  0.00012668  1
  V  V20  1  0.50042043  0.51265578  0.51370414  1
  V  V21  1  0.12404481  0.87792657  0.24866150  1
  V  V22  1  0.62731075  0.49172255  0.11678983  1
  V  V23  1  0.74491298  0.87087824  0.62162451  1
  V  V24  1  0.87047119  0.87434586  0.00205272  1
  V  V25  1  0.37662462  0.74840005  0.12668692  1
  V  V26  1  0.74958394  0.50829977  0.25177613  1
  V  V27  1  0.37416287  0.24950993  0.12181036  1
  V  V28  1  0.24589213  0.87940716  0.62456370  1
  V  V29  1  0.87287221  0.49173504  0.87422383  1
  V  V30  1  0.63832742  0.62635452  0.50870068  1
  V  V31  1  0.37297854  0.37663733  0.49922316  1
  V  V32  1  0.37807459  0.50218535  0.37454091  1
  V  V33  1  0.63515295  0.74240892  0.37498417  1
  V  V34  1  0.38830766  0.74977344  0.62772783  1
  V  V35  1  0.87210945  0.12755214  0.24301796  1
  V  V36  1  0.37909302  0.50168873  0.87939310  1
  V  V37  1  0.12593243  0.24675487  0.37520931  1
  V  V38  1  0.24971005  0.50119306  0.25133821  1
  V  V39  1  0.50039012  0.61816716  0.11901402  1
  V  V40  1  0.12157536  0.12027824  0.50949813  1
  V  V41  1  0.87439601  0.36844636  0.00870287  1
  V  V42  1  0.37565747  0.88329687  0.49444835  1
  V  V43  1  0.12386523  0.75240745  0.87867712  1
  V  V44  1  0.74644033  0.62424001  0.87553490  1
  V  V45  1  0.87717848  0.12566291  0.74580933  1
  V  V46  1  0.61986132  0.86617636  0.74481118  1
  V  V47  1  0.37465570  0.12400467  0.75193402  1
  V  V48  1  0.37844114  0.37519312  0.00055418  1
  V  V49  1  0.62558869  -0.00813561  0.12928222  1
  V  V50  1  0.75355349  0.25042954  0.01587671  1
  V  V51  1  0.24226039  0.50110828  0.75427588  1
  V  V52  1  -0.00366687  0.87830666  0.87373637  1
  V  V53  1  0.87621009  0.73750485  0.12241648  1
  V  V54  1  0.00116951  0.62510332  0.63021006  1
  V  V55  1  0.25166719  0.11681608  0.37573691  1
  V  V56  1  0.50090106  0.00021449  -0.00095367  1
  V  V57  1  0.24574699  0.13996395  0.88020040  1
  V  V58  1  0.87033029  0.86746410  0.50009293  1
  V  V59  1  0.00201774  0.00079165  0.51481659  1
  V  V60  1  0.37382610  0.24601818  0.62613328  1
  V  V61  1  0.63502844  0.36921383  0.25432070  1
  V  V62  1  0.01122244  0.36958324  0.87062859  1
  V  V63  1  0.37440560  0.87711818  -0.00092049  1
  V  V64  1  0.50106677  0.12505946  0.12604415  1
  V  V65  1  0.50568735  0.75042952  0.24997290  1
  V  V66  1  0.00018696  0.87627623  0.37470743  1
  V  V67  1  0.63268034  0.12378796  -0.00318253  1
  V  V68  1  0.86822583  0.00558314  0.87412764  1
  V  V69  1  0.00043022  0.49740240  0.50082376  1
  V  V70  1  0.12187182  0.88127834  0.74666500  1
  V  V71  1  0.50130662  0.24908122  0.75376052  1
  V  V72  1  0.88134070  0.25206435  0.62011216  1
  V  V73  1  0.87277349  0.00095820  0.37613385  1
  V  V74  1  0.12644743  0.49790432  0.63247797  1
  V  V75  1  0.50233755  0.25174536  0.25863844  1
  V  V76  1  0.25206107  0.75037050  0.50250484  1
  V  V77  1  0.74821583  0.13999708  0.37903620  1
  V  V78  1  0.24938467  0.87752597  0.12457607  1
  V  V79  1  0.50515321  0.37755605  0.87848068  1
  V  V80  1  0.63208407  0.11982838  0.50290324  1
  V  V81  1  0.24838560  0.37228627  0.12014167  1
  V  V82  1  0.63670993  0.24901259  0.87527229  1
  V  V83  1  0.24972366  0.62785608  0.87839424  1
  V  V84  1  0.50362541  0.87783554  0.37029812  1
  Zn  Zn85  1  0.62106970  0.62186818  -0.00314393  1
  Zn  Zn86  1  0.25023089  0.24831368  0.49883311  1
  Zn  Zn87  1  0.74734275  0.86916785  0.12946140  1
  Zn  Zn88  1  0.74540209  0.74581111  0.00171329  1
  Zn  Zn89  1  0.37631459  0.62468140  0.25051057  1
  Zn  Zn90  1  -0.00227837  0.75118932  0.74870705  1
  Zn  Zn91  1  0.86980571  0.37282071  0.50379716  1
  Zn  Zn92  1  0.50832138  0.11771499  0.62898050  1
  Zn  Zn93  1  0.87546885  0.62436653  0.25220287  1
  Zn  Zn94  1  0.25053308  0.62630432  0.37612987  1
  Zn  Zn95  1  0.86838771  0.50599479  0.37987370  1
  Zn  Zn96  1  0.86982432  0.74565756  0.61969712  1
  Zn  Zn97  1  0.25374737  -0.00250558  0.25218327  1
  Zn  Zn98  1  0.37325233  0.00213611  0.87635440  1
  Zn  Zn99  1  0.61865525  0.74453098  0.87406829  1
  Zn  Zn100  1  0.62709091  0.37391479  0.73854374  1
  Zn  Zn101  1  0.00065462  0.00331927  0.00184266  1
  Zn  Zn102  1  -0.00465916  0.51121868  0.00836309  1
  Zn  Zn103  1  -0.00428248  0.12592013  0.12130628  1
  Zn  Zn104  1  0.50390991  0.37668643  0.37541672  1
  Zn  Zn105  1  0.12669087  0.75061201  0.37557381  1
  Zn  Zn106  1  0.12152541  0.00302378  0.12150989  1
  Zn  Zn107  1  0.18787203  0.18828065  0.18695922  1
  Zn  Zn108  1  0.18972930  0.18650427  0.68724549  1
  Zn  Zn109  1  0.18847089  0.68925932  0.18943352  1
  Zn  Zn110  1  0.19178910  0.69014629  0.69255941  1
  Zn  Zn111  1  0.68625226  0.18252080  0.18946071  1
  Zn  Zn112  1  0.68773992  0.18138096  0.69114559  1
  Zn  Zn113  1  0.68415465  0.68600937  0.18399820  1
  Zn  Zn114  1  0.68702990  0.68789927  0.68684861  1
  Zn  Zn115  1  0.31288714  0.31074399  0.31103567  1
  Zn  Zn116  1  0.31256605  0.31510405  0.81223578  1
  Zn  Zn117  1  0.31549830  0.81202328  0.31389454  1
  Zn  Zn118  1  0.31466838  0.81371338  0.81037709  1
  Zn  Zn119  1  0.81458206  0.31662662  0.31095825  1
  Zn  Zn120  1  0.81494257  0.31032874  0.81054860  1
  Zn  Zn121  1  0.81533067  0.81049254  0.30972080  1
  Zn  Zn122  1  0.80856970  0.81143216  0.81005349  1
  Zn  Zn123  1  0.18670907  0.43709916  0.43861506  1
  Zn  Zn124  1  0.19067309  0.43545441  0.93991624  1
  Zn  Zn125  1  0.18513921  0.93918455  0.43729153  1
  Zn  Zn126  1  0.18466507  0.94465112  0.93768037  1
  Zn  Zn127  1  0.68008082  0.44746385  0.43204700  1
  Zn  Zn128  1  0.69347670  0.43414736  0.93596605  1
  Zn  Zn129  1  0.68479396  0.93588672  0.43557251  1
  Zn  Zn130  1  0.68695879  0.93479929  0.93344953  1
  Zn  Zn131  1  0.30957827  0.06341426  0.06181847  1
  Zn  Zn132  1  0.30959869  0.06091862  0.56274744  1
  Zn  Zn133  1  0.31177446  0.56170537  0.06127017  1
  Zn  Zn134  1  0.31566143  0.56489810  0.56642964  1
  Zn  Zn135  1  0.80997737  0.06068703  0.06321016  1
  Zn  Zn136  1  0.81428315  0.06007824  0.56508913  1
  Zn  Zn137  1  0.80851856  0.55646873  0.06215034  1
  Zn  Zn138  1  0.81557944  0.56076656  0.56157110  1
  Zn  Zn139  1  0.44134893  0.43679539  0.18837872  1
  Zn  Zn140  1  0.43487653  0.43715070  0.69314031  1
  Zn  Zn141  1  0.43981145  0.93590437  0.18808016  1
  Zn  Zn142  1  0.43497428  0.93777547  0.68512024  1
  Zn  Zn143  1  0.93936924  0.44009575  0.18703643  1
  Zn  Zn144  1  0.93622411  0.43331953  0.69009044  1
  Zn  Zn145  1  0.93636970  0.93861767  0.18443607  1
  Zn  Zn146  1  0.93148022  0.93689857  0.68721114  1
  Zn  Zn147  1  0.06112615  0.06147750  0.31280582  1
  Zn  Zn148  1  0.06184680  0.06503239  0.81519327  1
  Zn  Zn149  1  0.06363275  0.56233430  0.31524281  1
  Zn  Zn150  1  0.04785501  0.57540700  0.84357142  1
  Zn  Zn151  1  0.56589763  0.06376593  0.31894005  1
  Zn  Zn152  1  0.56207507  0.06107071  0.81591819  1
  Zn  Zn153  1  0.56300409  0.56331966  0.31097666  1
  Zn  Zn154  1  0.56564271  0.55665418  0.80790991  1
  Zn  Zn155  1  0.43846415  0.18447845  0.43797226  1
  Zn  Zn156  1  0.43874588  0.18838601  0.93845067  1
  Zn  Zn157  1  0.43789273  0.68984571  0.43665418  1
  Zn  Zn158  1  0.43657905  0.68871693  0.93933591  1
  Zn  Zn159  1  0.93826220  0.18440358  0.43455914  1
  Zn  Zn160  1  0.93667462  0.18895830  0.93267378  1
  Zn  Zn161  1  0.93778916  0.68636153  0.43255245  1
  Zn  Zn162  1  0.93642308  0.68689038  0.93830362  1
  Zn  Zn163  1  0.06073382  0.31764130  0.05910069  1
  Zn  Zn164  1  0.06411313  0.30944499  0.56455799  1
  Zn  Zn165  1  0.05872823  0.81427964  0.06129162  1
  Zn  Zn166  1  0.06096319  0.81223737  0.56316424  1
  Zn  Zn167  1  0.56249285  0.31170684  0.06435706  1
  Zn  Zn168  1  0.54172311  0.30978576  0.55840278  1
  Zn  Zn169  1  0.56338695  0.80919646  0.05801292  1
  Zn  Zn170  1  0.56750971  0.81188328  0.55700977  1
  O  O171  1  0.12830889  0.12541413  0.11156504  1
  O  O172  1  0.13050419  0.12987429  0.60847229  1
  O  O173  1  0.13346455  0.61228802  0.12379121  1
  O  O174  1  0.12197862  0.62080535  0.62040898  1
  O  O175  1  0.61945173  0.11565109  0.11677963  1
  O  O176  1  0.62506422  0.13007924  0.61033881  1
  O  O177  1  0.61796207  0.61111398  0.12250955  1
  O  O178  1  0.62514749  0.63235490  0.60814759  1
  O  O179  1  0.37271579  0.38434168  0.38306113  1
  O  O180  1  0.38087319  0.38034739  0.88182740  1
  O  O181  1  0.38723427  0.86945423  0.38447999  1
  O  O182  1  0.38016541  0.87905551  0.87989808  1
  O  O183  1  0.88731268  0.37883246  0.37968309  1
  O  O184  1  0.87893095  0.37819269  0.88144637  1
  O  O185  1  0.88085926  0.87910336  0.38047052  1
  O  O186  1  0.88012942  0.87946359  0.87762974  1
  O  O187  1  0.24777594  0.01226848  0.37214428  1
  O  O188  1  0.25166871  0.00647076  0.86304061  1
  O  O189  1  0.25572694  0.50002440  0.36774664  1
  O  O190  1  0.25580919  0.50759585  0.87195242  1
  O  O191  1  0.75354458  0.00490980  0.36872128  1
  O  O192  1  0.75964140  -0.00779773  0.86106292  1
  O  O193  1  0.75134176  0.49515497  0.35692546  1
  O  O194  1  0.75836545  0.50507216  0.86749457  1
  O  O195  1  0.24469684  0.49172072  0.13137083  1
  O  O196  1  0.24861510  0.49463578  0.63416608  1
  O  O197  1  0.24944341  0.98735893  0.12773793  1
  O  O198  1  0.25209371  0.99301934  0.63810135  1
  O  O199  1  0.73514034  0.49914287  0.13424838  1
  O  O200  1  0.75463575  0.49747925  0.63623479  1
  O  O201  1  0.74160084  0.99845038  0.13406934  1
  O  O202  1  0.75698487  0.98861883  0.64060725  1
  O  O203  1  0.00389249  0.36992580  0.25761977  1
  O  O204  1  -0.00270007  0.36059638  0.75953152  1
  O  O205  1  0.00656842  0.86992190  0.25518661  1
  O  O206  1  0.00554971  0.87457927  0.75398985  1
  O  O207  1  0.50910127  0.36710255  0.25164283  1
  O  O208  1  0.50394043  0.36788408  0.75769328  1
  O  O209  1  0.49711004  0.86655209  0.25932502  1
  O  O210  1  0.50886033  0.88620203  0.75716781  1
  O  O211  1  0.49551374  0.13146276  0.24776337  1
  O  O212  1  0.49371595  0.12882818  0.74973385  1
  O  O213  1  0.49818489  0.63180266  0.23946842  1
  O  O214  1  0.48680911  0.61954611  0.75469588  1
  O  O215  1  0.99095274  0.13329107  0.25189359  1
  O  O216  1  0.99343607  0.13825445  0.75652443  1
  O  O217  1  1.00831991  0.64034077  0.25141924  1
  O  O218  1  0.99134824  0.62348345  0.74591555  1
  O  O219  1  0.37928269  0.25551239  0.01437900  1
  O  O220  1  0.37547418  0.25829207  0.50786421  1
  O  O221  1  0.36743011  0.75750476  0.00695761  1
  O  O222  1  0.36872859  0.75881203  0.50624924  1
  O  O223  1  0.86848922  0.25869827  -0.00393372  1
  O  O224  1  0.88597525  0.24751933  0.51508631  1
  O  O225  1  0.87388442  0.75557321  0.00558865  1
  O  O226  1  0.88247612  0.76358837  0.49927047  1
  O  O227  1  0.12482151  0.24313041  0.48840474  1
  O  O228  1  0.12518605  0.23921541  1.00220935  1
  O  O229  1  0.13253712  0.74293018  0.50120631  1
  O  O230  1  0.12986720  0.75892364  0.98636905  1
  O  O231  1  0.63354112  0.24997702  0.50577173  1
  O  O232  1  0.63207822  0.24414101  0.99675098  1
  O  O233  1  0.62145315  0.73651628  0.48733165  1
  O  O234  1  0.62801052  0.74330150  0.99326378  1
  O  O235  1  0.49408121  0.24359350  0.13433682  1
  O  O236  1  0.48688899  0.24490563  0.63328119  1
  O  O237  1  0.49743977  0.74487516  0.13256297  1
  O  O238  1  0.48673600  0.76075811  0.62148655  1
  O  O239  1  1.00667471  0.24932777  0.13874574  1
  O  O240  1  0.99666268  0.25275750  0.63966041  1
  O  O241  1  0.99130333  0.75459942  0.13227841  1
  O  O242  1  1.00035827  0.73602011  0.62799801  1
  O  O243  1  0.00723205  0.25681182  0.36857074  1
  O  O244  1  -0.00294771  0.26107802  0.86326682  1
  O  O245  1  0.00341387  0.76307063  0.36727403  1
  O  O246  1  0.00641729  0.76351720  0.87073804  1
  O  O247  1  0.49436216  0.25314340  0.36225183  1
  O  O248  1  0.50684440  0.25932982  0.87254658  1
  O  O249  1  0.50482938  0.75504197  0.36694554  1
  O  O250  1  0.49644009  0.76532559  0.87741473  1
  O  O251  1  0.24398042  0.12629110  0.49180044  1
  O  O252  1  0.24225380  0.12395807  0.98777980  1
  O  O253  1  0.24360991  0.63287203  0.50312445  1
  O  O254  1  0.25515677  0.63217809  0.98676162  1
  O  O255  1  0.74542152  0.11662882  0.49122028  1
  O  O256  1  0.74034950  0.13126990  1.00221963  1
  O  O257  1  0.73752224  0.61610568  0.49857964  1
  O  O258  1  0.74814176  0.62196938  0.98858474  1
  O  O259  1  0.26407714  0.37667903  0.00806226  1
  O  O260  1  0.26039126  0.37539495  0.50737535  1
  O  O261  1  0.25345110  0.87216410  0.00622867  1
  O  O262  1  0.25481509  0.87216956  0.50536283  1
  O  O263  1  0.76521895  0.36670735  -0.00154538  1
  O  O264  1  0.74862452  0.37523097  0.49629792  1
  O  O265  1  0.76135874  0.87195700  -0.00222598  1
  O  O266  1  0.75871571  0.88325877  0.50835941  1
  O  O267  1  0.13194710  0.49538109  0.24285849  1
  O  O268  1  0.13856803  0.50855718  0.74952271  1
  O  O269  1  0.12667148  0.98834039  0.24748521  1
  O  O270  1  0.12943929  0.98992028  0.75439355  1
  O  O271  1  0.63316578  0.49099784  0.24448374  1
  O  O272  1  0.63913399  0.49395713  0.74648871  1
  O  O273  1  0.63293485  1.00775898  0.24116335  1
  O  O274  1  0.63749879  0.99590799  0.75464517  1
  O  O275  1  0.37652197  0.01500797  0.24513983  1
  O  O276  1  0.36614493  0.00836776  0.75097999  1
  O  O277  1  0.36801286  0.49853114  0.25787976  1
  O  O278  1  0.36698403  0.50585564  0.76171381  1
  O  O279  1  0.86752081  0.00712741  0.25630861  1
  O  O280  1  0.86833914  0.00568275  0.75591443  1
  O  O281  1  0.85878249  0.49809185  0.24313782  1
  O  O282  1  0.86558032  0.50591927  0.75364442  1
  O  O283  1  0.11888988  0.36745347  0.37032172  1
  O  O284  1  0.10977349  0.38035356  0.87929929  1
  O  O285  1  0.11798639  0.87425166  0.36726520  1
  O  O286  1  0.11652020  0.87376402  0.86838375  1
  O  O287  1  0.62228551  0.37685625  0.35849183  1
  O  O288  1  0.61816580  0.36737273  0.87710404  1
  O  O289  1  0.61243102  0.85910582  0.38343347  1
  O  O290  1  0.61558533  0.87352363  0.86567176  1
  O  O291  1  0.37796543  0.13294504  0.13032658  1
  O  O292  1  0.37171809  0.13385745  0.63067721  1
  O  O293  1  0.38053746  0.62928157  0.12674346  1
  O  O294  1  0.37137510  0.63674984  0.63505982  1
  O  O295  1  0.87305658  0.12274943  0.13899378  1
  O  O296  1  0.87236419  0.13029325  0.63794891  1
  O  O297  1  0.87389097  0.63363208  0.12469161  1
  O  O298  1  0.88366067  0.62483756  0.63111282  1
  O  O299  1  0.25920809  0.26448635  0.13382457  1
  O  O300  1  0.25856618  0.25795489  0.62482116  1
  O  O301  1  0.25403391  0.75949387  0.12145156  1
  O  O302  1  0.25464341  0.75783149  0.61583771  1
  O  O303  1  0.74609411  0.24730243  0.11517178  1
  O  O304  1  0.75813297  0.25006925  0.62270120  1
  O  O305  1  0.75830438  0.75123015  0.12444485  1
  O  O306  1  0.75266500  0.76481840  0.62916530  1
  O  O307  1  0.24123733  0.24315016  0.37545344  1
  O  O308  1  0.25034386  0.23859256  0.87100103  1
  O  O309  1  0.24967998  0.74972544  0.38932106  1
  O  O310  1  0.24517203  0.74694325  0.87890990  1
  O  O311  1  0.75673733  0.23917444  0.37417247  1
  O  O312  1  0.73894759  0.25368904  0.88143196  1
  O  O313  1  0.73352498  0.75345581  0.36659793  1
  O  O314  1  0.75017148  0.73326164  0.87247629  1
  O  O315  1  0.01162189  0.12851765  -0.00168137  1
  O  O316  1  0.00914033  0.11229957  0.49162237  1
  O  O317  1  0.01100079  0.60711204  -0.04809602  1
  O  O318  1  0.00824389  0.61849688  0.50922268  1
  O  O319  1  0.50744241  0.11971738  0.00620641  1
  O  O320  1  0.50865014  0.11755353  0.49868786  1
  O  O321  1  0.49881596  0.62740578  0.01419654  1
  O  O322  1  0.49781513  0.61490784  0.50171748  1
  O  O323  1  0.48736610  0.38631464  0.49549012  1
  O  O324  1  0.48830986  0.37019894  0.99388105  1
  O  O325  1  0.49317200  0.88094534  0.49369580  1
  O  O326  1  0.49411455  0.88126733  0.99372338  1
  O  O327  1  1.00425305  0.38167706  0.49358961  1
  O  O328  1  0.99061646  0.37558693  0.98651845  1
  O  O329  1  0.99643023  0.88073068  0.49238917  1
  O  O330  1  0.98747240  0.87745137  0.99048866  1
  O  O331  1  0.49075745  0.49911211  0.38092795  1
  O  O332  1  0.49390256  0.48604565  0.87068637  1
  O  O333  1  0.50505292  0.98890122  0.38434207  1
  O  O334  1  0.49721032  0.99166252  0.88374767  1
  O  O335  1  1.00637358  0.48923057  0.38466505  1
  O  O336  1  0.98356897  0.47987072  0.85938772  1
  O  O337  1  0.99335167  0.98827710  0.37618472  1
  O  O338  1  0.98935986  0.99074636  0.87407543  1
  O  O339  1  0.00163325  0.00677329  0.12149528  1
  O  O340  1  -0.00214607  -0.00474336  0.61411766  1
  O  O341  1  0.01654319  0.49988509  0.12481941  1
  O  O342  1  0.00569126  0.50690425  0.62272173  1
  O  O343  1  0.50661650  0.00499520  0.11976696  1
  O  O344  1  0.49276213  0.00134243  0.60843692  1
  O  O345  1  0.51314447  0.50657756  0.13161629  1
  O  O346  1  0.49326843  0.49617255  0.61167953  1
  O  O347  1  0.24643941  0.38479606  0.24408822  1
  O  O348  1  0.25582339  0.38634102  0.74265220  1
  O  O349  1  0.24384098  0.87464506  0.24391795  1
  O  O350  1  0.24370756  0.88312543  0.74406378  1
  O  O351  1  0.73878089  0.37931037  0.24789482  1
  O  O352  1  0.74915337  0.38722995  0.75306493  1
  O  O353  1  0.75367069  0.88919913  0.24985482  1
  O  O354  1  0.74098317  0.88240339  0.74418022  1
  O  O355  1  0.25820721  0.12428502  0.25620212  1
  O  O356  1  0.25178384  0.12041414  0.75991019  1
  O  O357  1  0.25164759  0.61328347  0.25255366  1
  O  O358  1  0.26053460  0.61999566  0.75979972  1
  O  O359  1  0.75479092  0.11824631  0.25888008  1
  O  O360  1  0.75669760  0.11045907  0.74918938  1
  O  O361  1  0.74823113  0.61077133  0.24662024  1
  O  O362  1  0.75433184  0.61422573  0.75259176  1
  O  O363  1  0.36457155  0.13307901  0.36581431  1
  O  O364  1  0.36330244  0.12548944  0.87266579  1
  O  O365  1  0.37157494  0.61413148  0.37454066  1
  O  O366  1  0.37113094  0.61897602  0.87114751  1
  O  O367  1  0.86794352  0.11866413  0.36762727  1
  O  O368  1  0.87691952  0.11483720  0.86453725  1
  O  O369  1  0.88603414  0.61664126  0.36588693  1
  O  O370  1  0.86644450  0.61441085  0.86562402  1
  O  O371  1  0.13350029  0.37869533  0.13018206  1
  O  O372  1  0.13958731  0.38024621  0.62043717  1
  O  O373  1  0.13265802  0.87534281  0.13093442  1
  O  O374  1  0.13662004  0.87036665  0.63154935  1
  O  O375  1  0.61768572  0.38584851  0.13584150  1
  O  O376  1  0.63319889  0.36058876  0.61664006  1
  O  O377  1  0.62573308  0.88816566  0.11861040  1
  O  O378  1  0.63116075  0.87403596  0.63075425  1
  O  O379  1  0.11936678  0.25427966  0.25959262  1
  O  O380  1  0.11300742  0.24586995  0.74822377  1
  O  O381  1  0.12085092  0.76145629  0.25099211  1
  O  O382  1  0.12680290  0.76502308  0.75925779  1
  O  O383  1  0.61876323  0.26182354  0.24238685  1
  O  O384  1  0.62142142  0.25046026  0.75860180  1
  O  O385  1  0.61406694  0.74450103  0.25898685  1
  O  O386  1  0.62625531  0.76244389  0.75346648  1
  O  O387  1  0.38274803  0.24481376  0.24052690  1
  O  O388  1  0.37887449  0.24444673  0.74453102  1
  O  O389  1  0.38480653  0.74753746  0.24443213  1
  O  O390  1  0.37023086  0.74187765  0.74047522  1
  O  O391  1  0.88400003  0.24226563  0.25551039  1
  O  O392  1  0.87897327  0.24157309  0.74214052  1
  O  O393  1  0.88455399  0.74907273  0.24019145  1
  O  O394  1  0.87507939  0.73549853  0.74873814  1
  O  O395  1  0.38077299  0.49660295  0.49516108  1
  O  O396  1  0.37244117  0.49331126  0.98710463  1
  O  O397  1  0.37750547  0.98808738  0.50070400  1
  O  O398  1  0.38162511  0.99486843  1.00086698  1
  O  O399  1  0.89001105  0.49583379  0.50097701  1
  O  O400  1  0.87571745  0.48830126  0.99188170  1
  O  O401  1  0.88325355  0.99130552  0.49459151  1
  O  O402  1  0.87361560  0.99429371  0.99079083  1
  O  O403  1  0.12098017  0.01350585  0.00118117  1
  O  O404  1  0.11480002  0.00761829  0.49607207  1
  O  O405  1  0.12765940  0.49542292  0.01592151  1
  O  O406  1  0.11863874  0.50608292  0.50886734  1
  O  O407  1  0.62278769  0.00694440  0.00376986  1
  O  O408  1  0.61685686  0.00784599  0.49807837  1
  O  O409  1  0.62918703  0.49484805  0.01369168  1
  O  O410  1  0.60995646  0.51395789  0.49491941  1
  O  O411  1  0.37138125  0.37127803  0.11928126  1
  O  O412  1  0.36739116  0.36874351  0.62006022  1
  O  O413  1  0.36813564  0.86932070  0.12115573  1
  O  O414  1  0.36241330  0.86946396  0.61969679  1
  O  O415  1  0.88552175  0.37601848  0.10723943  1
  O  O416  1  0.87739344  0.36210505  0.62242423  1
  O  O417  1  0.87194644  0.86747643  0.11533720  1
  O  O418  1  0.86767222  0.87087015  0.61674556  1
  O  O419  1  0.13188632  0.13119486  0.37794400  1
  O  O420  1  0.13670064  0.12435482  0.88460480  1
  O  O421  1  0.12766488  0.62647354  0.39040211  1
  O  O422  1  0.14007419  0.64202723  0.86099286  1
  O  O423  1  0.63499763  0.12726697  0.38808273  1
  O  O424  1  0.61788552  0.13483790  0.88723126  1
  O  O425  1  0.61930061  0.63655664  0.38229648  1
  O  O426  1  0.63142433  0.62169775  0.87533012  1
