# generated using pymatgen
data_V85Zn86O256
_symmetry_space_group_name_H-M   'P 1'
_cell_length_a   16.93768641
_cell_length_b   16.93353626
_cell_length_c   16.93353145
_cell_angle_alpha   90.01887186
_cell_angle_beta   89.92831718
_cell_angle_gamma   89.95790168
_symmetry_Int_Tables_number   1
_chemical_formula_structural   V85Zn86O256
_chemical_formula_sum   'V85 Zn86 O256'
_cell_volume   4856.78421174
_cell_formula_units_Z   1
loop_
 _symmetry_equiv_pos_site_id
 _symmetry_equiv_pos_as_xyz
  1  'x, y, z'
loop_
 _atom_site_type_symbol
 _atom_site_label
 _atom_site_symmetry_multiplicity
 _atom_site_fract_x
 _atom_site_fract_y
 _atom_site_fract_z
 _atom_site_occupancy
  V  V0  1  0.25583900  -0.00153366  0.25080184  1
  V  V1  1  -0.00108486  0.50016737  0.00243778  1
  V  V2  1  -0.00230973  0.87877543  0.87774121  1
  V  V3  1  0.12040864  0.12488075  0.00334586  1
  V  V4  1  0.75051809  0.24059166  -0.00347743  1
  V  V5  1  0.49686124  0.50136337  0.50236655  1
  V  V6  1  0.75245956  0.50127567  0.76433399  1
  V  V7  1  0.87915241  0.24455900  0.12426353  1
  V  V8  1  0.38262542  0.75220334  0.63251624  1
  V  V9  1  0.88179950  -0.00833833  0.37366598  1
  V  V10  1  0.62484965  0.87435479  0.24614040  1
  V  V11  1  0.87492874  0.49864414  0.37473918  1
  V  V12  1  0.75352509  0.87614556  0.62627701  1
  V  V13  1  0.48645689  0.37834588  0.37864463  1
  V  V14  1  0.49060579  0.74872190  0.24490875  1
  V  V15  1  0.49899510  0.12445582  0.12246402  1
  V  V16  1  0.24964146  0.12508936  0.87566754  1
  V  V17  1  0.00555502  0.50454606  0.49869781  1
  V  V18  1  0.62429182  0.37510733  0.75219223  1
  V  V19  1  0.37807322  0.12355248  0.74560773  1
  V  V20  1  0.74874518  0.87202115  0.11528589  1
  V  V21  1  0.63119981  0.74196443  0.87603244  1
  V  V22  1  0.25346520  0.74843230  0.49183134  1
  V  V23  1  0.12578446  0.75330695  0.89026579  1
  V  V24  1  0.12491541  0.87612796  0.75094552  1
  V  V25  1  0.61956034  0.51285381  0.11870696  1
  V  V26  1  0.24908493  0.00093896  0.74991051  1
  V  V27  1  0.11729388  0.00501154  0.62711243  1
  V  V28  1  0.25281260  0.26203297  0.00560801  1
  V  V29  1  0.87148621  0.62059725  0.76066109  1
  V  V30  1  0.62877044  0.24193191  0.87253946  1
  V  V31  1  0.12022579  0.12776782  0.50223481  1
  V  V32  1  0.87260227  0.74485738  0.12258384  1
  V  V33  1  0.49499337  0.24937113  0.25102201  1
  V  V34  1  0.37754154  -0.00130305  0.88354802  1
  V  V35  1  0.00706247  0.25063511  0.24541454  1
  V  V36  1  0.37614317  0.61486964  0.75168571  1
  V  V37  1  0.62269165  0.37562720  0.25211623  1
  V  V38  1  0.88080623  0.24036079  0.62103516  1
  V  V39  1  0.87999351  0.74177739  0.62526871  1
  V  V40  1  0.24271889  0.39016640  0.62463030  1
  V  V41  1  0.62390153  0.24809998  0.38194852  1
  V  V42  1  0.25129690  0.87593785  0.62414693  1
  V  V43  1  0.74960711  0.37437017  0.62414516  1
  V  V44  1  0.75027927  0.24739418  0.49903230  1
  V  V45  1  0.75161840  0.74917459  0.50150848  1
  V  V46  1  0.37780681  0.88891330  0.49902825  1
  V  V47  1  0.13078507  0.62181740  0.49131753  1
  V  V48  1  0.50276347  0.12167016  0.60820641  1
  V  V49  1  0.12112616  0.86983991  0.25336680  1
  V  V50  1  0.87070169  0.12575418  0.75263294  1
  V  V51  1  0.49275328  0.37302999  0.88581742  1
  V  V52  1  0.24706911  0.61997307  0.87339722  1
  V  V53  1  0.75174056  -0.00121068  0.24832522  1
  V  V54  1  0.74830867  0.49928178  0.25197332  1
  V  V55  1  0.00262276  -0.00613337  0.49694592  1
  V  V56  1  0.50057712  0.24945870  0.74734211  1
  V  V57  1  0.00411133  0.24734546  0.74368250  1
  V  V58  1  0.87739974  0.37424667  0.50008845  1
  V  V59  1  0.49567136  0.86655524  0.87739076  1
  V  V60  1  0.27002382  0.74596007  0.00241287  1
  V  V61  1  0.25531583  0.12177064  0.37456871  1
  V  V62  1  0.01292349  0.62956931  0.12451618  1
  V  V63  1  0.74983685  0.62511993  0.37541971  1
  V  V64  1  0.61790670  0.87263746  0.74732348  1
  V  V65  1  0.87520788  0.37499121  -0.00739584  1
  V  V66  1  0.62660619  0.50291046  0.62631502  1
  V  V67  1  0.74908370  0.37096552  0.12736674  1
  V  V68  1  0.11829192  0.00022089  0.12471614  1
  V  V69  1  0.05818897  0.56460620  0.67169396  1
  V  V70  1  0.49690774  0.88920104  0.37820310  1
  V  V71  1  0.62254365  0.75065422  0.37583218  1
  V  V72  1  0.12503686  0.25380207  0.87215402  1
  V  V73  1  0.62293161  0.00244744  0.61101883  1
  V  V74  1  0.37246925  0.25936862  0.61647710  1
  V  V75  1  0.00274030  0.74957377  0.74834893  1
  V  V76  1  0.86629013  0.00336430  0.87590331  1
  V  V77  1  0.12710696  0.47923322  0.12829952  1
  V  V78  1  0.24399595  0.50186608  0.24681787  1
  V  V79  1  0.36535505  0.51580309  0.37924904  1
  V  V80  1  0.00698457  0.37550670  0.36987899  1
  V  V81  1  0.26151663  0.87458918  0.11697861  1
  V  V82  1  0.13069912  0.25089880  0.37198948  1
  V  V83  1  0.74876654  0.12286199  0.37863465  1
  V  V84  1  0.88290135  0.12346125  0.24851225  1
  Zn  Zn85  1  0.62431311  0.12122280  -0.00581009  1
  Zn  Zn86  1  0.36132612  0.63244238  0.24686031  1
  Zn  Zn87  1  0.12703503  0.38673001  0.74835552  1
  Zn  Zn88  1  0.11813748  0.75328264  0.37890645  1
  Zn  Zn89  1  0.62479105  0.00129017  0.11976256  1
  Zn  Zn90  1  0.87128469  0.87239593  -0.00344558  1
  Zn  Zn91  1  0.47992469  0.64343815  0.10555573  1
  Zn  Zn92  1  0.87709150  0.62351339  0.24919216  1
  Zn  Zn93  1  0.88419446  0.86752084  0.49499806  1
  Zn  Zn94  1  0.37809513  0.26247166  0.11254549  1
  Zn  Zn95  1  0.36029043  0.48772211  0.88036286  1
  Zn  Zn96  1  0.74586913  0.00635597  0.75002092  1
  Zn  Zn97  1  0.62413116  0.62701640  0.50341634  1
  Zn  Zn98  1  0.50107689  -0.00206229  0.00058896  1
  Zn  Zn99  1  0.48904863  0.50585238  0.00090852  1
  Zn  Zn100  1  0.37690323  0.12018795  0.25213562  1
  Zn  Zn101  1  0.25277220  0.25589483  0.49557986  1
  Zn  Zn102  1  -0.00142544  0.37880600  0.87164987  1
  Zn  Zn103  1  -0.00473914  0.00521547  0.00209150  1
  Zn  Zn104  1  0.50312183  0.63008632  0.63088586  1
  Zn  Zn105  1  0.74825049  0.71395814  -0.00911218  1
  Zn  Zn106  1  -0.00695562  0.75304417  0.26014304  1
  Zn  Zn107  1  0.18823681  0.18579509  0.18576153  1
  Zn  Zn108  1  0.18968815  0.18869204  0.68560313  1
  Zn  Zn109  1  0.19579525  0.68722334  0.18580157  1
  Zn  Zn110  1  0.19600621  0.69374026  0.69011262  1
  Zn  Zn111  1  0.68605381  0.18606337  0.19006304  1
  Zn  Zn112  1  0.68727494  0.18528608  0.68392671  1
  Zn  Zn113  1  0.68799527  0.68713752  0.18552791  1
  Zn  Zn114  1  0.68968341  0.68761778  0.69392202  1
  Zn  Zn115  1  0.32219872  0.33468861  0.27287670  1
  Zn  Zn116  1  0.30908855  0.31096684  0.80553650  1
  Zn  Zn117  1  0.31186821  0.82086549  0.31520004  1
  Zn  Zn118  1  0.31363497  0.81092683  0.81329329  1
  Zn  Zn119  1  0.81559894  0.31146289  0.31264825  1
  Zn  Zn120  1  0.81106188  0.31077183  0.81129754  1
  Zn  Zn121  1  0.81118115  0.81084387  0.30831146  1
  Zn  Zn122  1  0.81136941  0.81193898  0.80987144  1
  Zn  Zn123  1  0.19159472  0.43529783  0.44001822  1
  Zn  Zn124  1  0.18048441  0.43906859  0.94070954  1
  Zn  Zn125  1  0.19042051  0.93825047  0.43718882  1
  Zn  Zn126  1  0.18932046  0.93781736  0.93997353  1
  Zn  Zn127  1  0.68404462  0.43616268  0.43933308  1
  Zn  Zn128  1  0.68534519  0.43511384  0.94270543  1
  Zn  Zn129  1  0.69127942  0.93380515  0.43670967  1
  Zn  Zn130  1  0.68231087  0.93739461  0.93448114  1
  Zn  Zn131  1  0.31065797  0.06973938  0.06566555  1
  Zn  Zn132  1  0.30688245  0.06808173  0.56316335  1
  Zn  Zn133  1  0.31604550  0.55852993  0.06217500  1
  Zn  Zn134  1  0.31444600  0.56585570  0.56199903  1
  Zn  Zn135  1  0.81265032  0.06074197  0.06290525  1
  Zn  Zn136  1  0.81386630  0.06007710  0.56053680  1
  Zn  Zn137  1  0.81508191  0.56160628  0.06332159  1
  Zn  Zn138  1  0.81372878  0.56318156  0.56486055  1
  Zn  Zn139  1  0.43304002  0.44292566  0.18744815  1
  Zn  Zn140  1  0.43695552  0.43844672  0.69145017  1
  Zn  Zn141  1  0.43933631  0.93802165  0.18803207  1
  Zn  Zn142  1  0.44043791  0.93973103  0.68676571  1
  Zn  Zn143  1  0.93782112  0.43541041  0.18533989  1
  Zn  Zn144  1  0.93098602  0.42875006  0.69186876  1
  Zn  Zn145  1  0.93732865  0.93376523  0.18354929  1
  Zn  Zn146  1  0.93691351  0.93697341  0.68785657  1
  Zn  Zn147  1  0.06634438  0.06115656  0.31212214  1
  Zn  Zn148  1  0.05690469  0.06681397  0.81346447  1
  Zn  Zn149  1  0.06419551  0.56714129  0.30906321  1
  Zn  Zn150  1  0.05855560  0.56985716  0.83547861  1
  Zn  Zn151  1  0.56642239  0.06423394  0.30998063  1
  Zn  Zn152  1  0.56090753  0.05786478  0.80566541  1
  Zn  Zn153  1  0.55934739  0.56537915  0.31190440  1
  Zn  Zn154  1  0.55721904  0.56031414  0.81338272  1
  Zn  Zn155  1  0.43611788  0.18761002  0.43503837  1
  Zn  Zn156  1  0.43689916  0.18756627  0.93622370  1
  Zn  Zn157  1  0.44048826  0.69240205  0.44153584  1
  Zn  Zn158  1  0.44237024  0.68134286  0.93114148  1
  Zn  Zn159  1  0.94151433  0.18269348  0.43471370  1
  Zn  Zn160  1  0.93947341  0.18718532  0.93360963  1
  Zn  Zn161  1  0.94152970  0.68457276  0.43615523  1
  Zn  Zn162  1  0.93961815  0.68894935  0.94289557  1
  Zn  Zn163  1  0.06133947  0.30895171  0.06008085  1
  Zn  Zn164  1  0.06570059  0.31681038  0.56167619  1
  Zn  Zn165  1  0.06223075  0.81712785  0.06709017  1
  Zn  Zn166  1  0.06488834  0.81087750  0.56247013  1
  Zn  Zn167  1  0.56514990  0.30900085  0.06391129  1
  Zn  Zn168  1  0.55942951  0.31554373  0.56136991  1
  Zn  Zn169  1  0.56242143  0.81167259  0.05609496  1
  Zn  Zn170  1  0.56144015  0.81657595  0.56046065  1
  O  O171  1  0.13118307  0.11321251  0.11556089  1
  O  O172  1  0.13033165  0.11695376  0.61567010  1
  O  O173  1  0.11327089  0.62921468  0.12365754  1
  O  O174  1  0.12383318  0.62559535  0.62167661  1
  O  O175  1  0.61205649  0.12536922  0.12654291  1
  O  O176  1  0.61550390  0.11569186  0.62788287  1
  O  O177  1  0.61782244  0.61302619  0.13211572  1
  O  O178  1  0.62452373  0.61442214  0.62849692  1
  O  O179  1  0.38515825  0.38618752  0.37027399  1
  O  O180  1  0.38982145  0.37055760  0.86350068  1
  O  O181  1  0.38414490  0.87612654  0.38584225  1
  O  O182  1  0.38787668  0.88361489  0.86486938  1
  O  O183  1  0.88590718  0.37765268  0.38123608  1
  O  O184  1  0.87638079  0.36773376  0.88896750  1
  O  O185  1  0.86769571  0.88817399  0.37449932  1
  O  O186  1  0.88222576  0.88102030  0.87384698  1
  O  O187  1  0.24143016  0.00998240  0.36370827  1
  O  O188  1  0.25678306  0.00336901  0.86823085  1
  O  O189  1  0.26350136  0.50724481  0.38342700  1
  O  O190  1  0.24079198  0.51595914  0.87954428  1
  O  O191  1  0.75639025  0.00640041  0.36924587  1
  O  O192  1  0.76254318  -0.00746473  0.86965142  1
  O  O193  1  0.75220965  0.50271943  0.36996254  1
  O  O194  1  0.74557281  0.48885740  0.86293501  1
  O  O195  1  0.23336572  0.50058539  0.13144239  1
  O  O196  1  0.25607466  0.48830888  0.62395011  1
  O  O197  1  0.24332847  0.99068096  0.12738329  1
  O  O198  1  0.23918901  0.99659857  0.63101478  1
  O  O199  1  0.73646289  0.48960708  0.13749767  1
  O  O200  1  0.74223600  0.49326092  0.62847103  1
  O  O201  1  0.75016269  0.99166041  0.13281614  1
  O  O202  1  0.74553906  0.99228030  0.62494084  1
  O  O203  1  -0.00554365  0.36403450  0.25974691  1
  O  O204  1  0.00193036  0.36251775  0.75250832  1
  O  O205  1  0.01727981  0.87296773  0.24146702  1
  O  O206  1  0.00434541  0.87150799  0.76105127  1
  O  O207  1  0.50787510  0.36923098  0.26037213  1
  O  O208  1  0.50781136  0.36757594  0.75309678  1
  O  O209  1  0.50671840  0.86829532  0.25589706  1
  O  O210  1  0.50869645  0.87978784  0.75848189  1
  O  O211  1  0.49982449  0.13243620  0.24518166  1
  O  O212  1  0.49203248  0.13063107  0.74135189  1
  O  O213  1  0.50066788  0.64516523  0.25225409  1
  O  O214  1  0.48184408  0.62276885  0.74951963  1
  O  O215  1  0.98931505  0.13206810  0.25595652  1
  O  O216  1  0.98898406  0.13921324  0.75119224  1
  O  O217  1  0.99793472  0.62914895  0.23684125  1
  O  O218  1  0.99981332  0.62358780  0.74008292  1
  O  O219  1  0.35761371  0.24721268  -0.00382971  1
  O  O220  1  0.37516494  0.24936560  0.51306828  1
  O  O221  1  0.36742921  0.75344198  -0.00666020  1
  O  O222  1  0.36827858  0.75611106  0.50872405  1
  O  O223  1  0.87130299  0.25200641  0.00682073  1
  O  O224  1  0.87461414  0.25202962  0.50419606  1
  O  O225  1  0.86679730  0.75009839  0.00836024  1
  O  O226  1  0.87101707  0.74867679  0.50825188  1
  O  O227  1  0.12316323  0.24234196  0.49123623  1
  O  O228  1  0.13146004  0.24425934  0.99180758  1
  O  O229  1  0.13448344  0.74225505  0.50211378  1
  O  O230  1  0.12955766  0.75859344  0.99170536  1
  O  O231  1  0.63059536  0.25734247  0.48828989  1
  O  O232  1  0.63420445  0.24792714  0.99125166  1
  O  O233  1  0.63142715  0.75043056  0.49212389  1
  O  O234  1  0.62772169  0.75475071  0.98028815  1
  O  O235  1  0.49814574  0.24578503  0.13523440  1
  O  O236  1  0.49066409  0.24614874  0.62764695  1
  O  O237  1  0.50516377  0.75552515  0.14080465  1
  O  O238  1  0.48753894  0.74857303  0.61829884  1
  O  O239  1  0.99254142  0.25126595  0.13392265  1
  O  O240  1  0.99237074  0.25518034  0.63024765  1
  O  O241  1  0.99293111  0.74145467  0.12277728  1
  O  O242  1  0.99153040  0.75699429  0.63427087  1
  O  O243  1  0.00814306  0.25563641  0.36795724  1
  O  O244  1  0.01237078  0.25148245  0.86806768  1
  O  O245  1  0.00323265  0.75135939  0.37328015  1
  O  O246  1  0.00793883  0.75703214  0.87116143  1
  O  O247  1  0.50753923  0.25860917  0.37484423  1
  O  O248  1  0.50480890  0.25667178  0.86699339  1
  O  O249  1  0.50875515  0.75871555  0.36810615  1
  O  O250  1  0.50552588  0.76363457  0.87141367  1
  O  O251  1  0.23790356  0.12871176  0.49199131  1
  O  O252  1  0.23972128  0.13041918  0.99148134  1
  O  O253  1  0.24204613  0.63566671  0.50711176  1
  O  O254  1  0.25437406  0.64155038  0.99167091  1
  O  O255  1  0.75702204  0.13012890  0.48607636  1
  O  O256  1  0.74861753  0.13748770  1.00438599  1
  O  O257  1  0.74764733  0.63161376  0.49424505  1
  O  O258  1  0.73427980  0.60566770  1.00885440  1
  O  O259  1  0.24390949  0.35989619  -0.00459648  1
  O  O260  1  0.24766595  0.37052493  0.51693744  1
  O  O261  1  0.24962240  0.86778841  0.01015170  1
  O  O262  1  0.25592346  0.86998574  0.50586680  1
  O  O263  1  0.75679106  0.36454180  0.00783709  1
  O  O264  1  0.75738925  0.36838441  0.50312406  1
  O  O265  1  0.74859110  0.87808590  0.01141520  1
  O  O266  1  0.75494303  0.86707136  0.51032387  1
  O  O267  1  0.12563167  0.50544506  0.23421653  1
  O  O268  1  0.10767904  0.50978032  0.74204984  1
  O  O269  1  0.13270831  0.99301883  0.24174194  1
  O  O270  1  0.12617286  0.99874499  0.74409568  1
  O  O271  1  0.62752718  0.49261483  0.24687584  1
  O  O272  1  0.63082669  0.49512850  0.74380795  1
  O  O273  1  0.63225226  0.98752755  0.24842537  1
  O  O274  1  0.62878608  0.98935295  0.74089605  1
  O  O275  1  0.36036889  0.00005134  0.24717888  1
  O  O276  1  0.37070408  0.01106684  0.75234859  1
  O  O277  1  0.36557527  0.50575967  0.26536377  1
  O  O278  1  0.37223952  0.51080984  0.75699979  1
  O  O279  1  0.87432275  0.00546518  0.25386557  1
  O  O280  1  0.87555512  0.00996202  0.75493894  1
  O  O281  1  0.86630215  0.49692852  0.25621056  1
  O  O282  1  0.86480700  0.50688577  0.74419007  1
  O  O283  1  0.11305082  0.36647062  0.38380638  1
  O  O284  1  0.12289244  0.36782681  0.86774333  1
  O  O285  1  0.13191779  0.87728136  0.35646862  1
  O  O286  1  0.11878873  0.87303829  0.86992652  1
  O  O287  1  0.61920915  0.36990827  0.36660700  1
  O  O288  1  0.61595440  0.36305031  0.87075374  1
  O  O289  1  0.62229658  0.86666619  0.36816618  1
  O  O290  1  0.61415501  0.87154818  0.86477858  1
  O  O291  1  0.38560950  0.13282522  0.12934693  1
  O  O292  1  0.38120290  0.13173000  0.62869376  1
  O  O293  1  0.37269224  0.62338458  0.13439682  1
  O  O294  1  0.37390003  0.63196302  0.63767545  1
  O  O295  1  0.87127119  0.13535912  0.13346137  1
  O  O296  1  0.87382031  0.13578344  0.62790171  1
  O  O297  1  0.88407572  0.63083600  0.12861109  1
  O  O298  1  0.87222331  0.63713719  0.63350054  1
  O  O299  1  0.24794374  0.24595522  0.10842397  1
  O  O300  1  0.26453067  0.24927150  0.62156801  1
  O  O301  1  0.24828436  0.76113873  0.11114433  1
  O  O302  1  0.25873632  0.76005119  0.61719675  1
  O  O303  1  0.75618433  0.25326369  0.12100656  1
  O  O304  1  0.75637570  0.25375106  0.61641813  1
  O  O305  1  0.75541199  0.75517826  0.12172897  1
  O  O306  1  0.75687911  0.75568207  0.62074227  1
  O  O307  1  0.23705174  0.24540707  0.37276824  1
  O  O308  1  0.24036071  0.24540605  0.87834998  1
  O  O309  1  0.24742556  0.75702851  0.38907433  1
  O  O310  1  0.24484776  0.75110607  0.88751470  1
  O  O311  1  0.74516399  0.24354282  0.37872447  1
  O  O312  1  0.74123949  0.25415353  0.88383597  1
  O  O313  1  0.74348663  0.74717623  0.38051789  1
  O  O314  1  0.73706335  0.75505299  0.87641401  1
  O  O315  1  0.01558884  0.12560338  -0.00526910  1
  O  O316  1  0.01300633  0.11387573  0.49542165  1
  O  O317  1  -0.00633144  0.61468826  0.01452840  1
  O  O318  1  0.00679489  0.61102518  0.50294911  1
  O  O319  1  0.50179818  0.12626755  0.00863149  1
  O  O320  1  0.50016279  0.12860673  0.50886966  1
  O  O321  1  0.50405302  0.62057035  -0.00140976  1
  O  O322  1  0.50421076  0.61482321  0.50421665  1
  O  O323  1  0.50528405  0.39011485  0.49140085  1
  O  O324  1  0.49942281  0.36662135  0.98725643  1
  O  O325  1  0.49040760  0.87300526  0.49023303  1
  O  O326  1  0.50098002  0.87823201  0.98213782  1
  O  O327  1  0.99638084  0.38568140  0.49406361  1
  O  O328  1  0.99137876  0.37865341  1.00051667  1
  O  O329  1  1.00215045  0.88864232  0.50300654  1
  O  O330  1  0.99831080  0.87649409  0.98755408  1
  O  O331  1  0.49443435  0.49649271  0.38179218  1
  O  O332  1  0.50413962  0.47976457  0.87574221  1
  O  O333  1  0.50709196  0.98816486  0.37041885  1
  O  O334  1  0.49152249  0.99266727  0.87360292  1
  O  O335  1  0.99764470  0.49334750  0.37916428  1
  O  O336  1  1.00103180  0.49645111  0.89575998  1
  O  O337  1  0.99305465  1.00309833  0.38175334  1
  O  O338  1  0.99013953  0.99314439  0.87528802  1
  O  O339  1  0.01332019  -0.00447494  0.12157740  1
  O  O340  1  0.01142826  -0.00212571  0.61953267  1
  O  O341  1  0.00975139  0.50698723  0.12405583  1
  O  O342  1  -0.00228770  0.49813196  0.61896733  1
  O  O343  1  0.50063560  0.00888964  0.12307262  1
  O  O344  1  0.50941001  0.01002156  0.62605658  1
  O  O345  1  0.51351230  0.49637217  0.12890571  1
  O  O346  1  0.50694996  0.50008108  0.61931151  1
  O  O347  1  0.23350553  0.40375137  0.27695875  1
  O  O348  1  0.24530671  0.37012856  0.73256497  1
  O  O349  1  0.24322258  0.87985059  0.23946554  1
  O  O350  1  0.24496098  0.88211566  0.74574071  1
  O  O351  1  0.74262031  0.37823254  0.24985665  1
  O  O352  1  0.74498880  0.37923998  0.74225542  1
  O  O353  1  0.74222420  0.87782798  0.24002377  1
  O  O354  1  0.74512945  0.87683945  0.73637636  1
  O  O355  1  0.25002220  0.11678918  0.25648540  1
  O  O356  1  0.25758518  0.12047786  0.75498318  1
  O  O357  1  0.24422093  0.61210783  0.25569953  1
  O  O358  1  0.26055374  0.63144646  0.76103559  1
  O  O359  1  0.76085981  0.12143910  0.25873231  1
  O  O360  1  0.76513536  0.12648460  0.74502190  1
  O  O361  1  0.75051832  0.61688934  0.25705661  1
  O  O362  1  0.75966902  0.61413589  0.74976064  1
  O  O363  1  0.35891298  0.12592951  0.37779179  1
  O  O364  1  0.37133493  0.11911173  0.86445564  1
  O  O365  1  0.38130948  0.61733973  0.37263168  1
  O  O366  1  0.36554743  0.62789496  0.86243179  1
  O  O367  1  0.86978663  0.11581423  0.36726228  1
  O  O368  1  0.87812351  0.11663643  0.86612712  1
  O  O369  1  0.86820955  0.61535864  0.37321004  1
  O  O370  1  0.88903280  0.62820628  0.85913326  1
  O  O371  1  0.12029880  0.38090800  0.13008875  1
  O  O372  1  0.13692307  0.37639699  0.62889758  1
  O  O373  1  0.13483536  0.88245554  0.13212225  1
  O  O374  1  0.13104770  0.88358276  0.63139055  1
  O  O375  1  0.62880113  0.37214133  0.14014581  1
  O  O376  1  0.62899548  0.38346074  0.63044659  1
  O  O377  1  0.63086338  0.87431475  0.13125595  1
  O  O378  1  0.63086398  0.88009165  0.62943818  1
  O  O379  1  0.11448214  0.24318263  0.25562180  1
  O  O380  1  0.11835979  0.24659357  0.75562747  1
  O  O381  1  0.12908232  0.76394101  0.24851620  1
  O  O382  1  0.12071417  0.75911723  0.75617377  1
  O  O383  1  0.61725814  0.25595874  0.26132996  1
  O  O384  1  0.62279944  0.25559546  0.75363168  1
  O  O385  1  0.62136965  0.75985317  0.25657327  1
  O  O386  1  0.63023761  0.76545835  0.75529291  1
  O  O387  1  0.39193203  0.24165074  0.26857884  1
  O  O388  1  0.37810292  0.23830600  0.73964891  1
  O  O389  1  0.38790484  0.75368173  0.25744448  1
  O  O390  1  0.36912893  0.74332684  0.73830325  1
  O  O391  1  0.88311662  0.24247894  0.24469577  1
  O  O392  1  0.88098341  0.24589000  0.74165499  1
  O  O393  1  0.87486922  0.74867973  0.23606520  1
  O  O394  1  0.88218910  0.74223134  0.74502268  1
  O  O395  1  0.38353737  0.50514024  0.49000472  1
  O  O396  1  0.37490952  0.49436156  0.99220246  1
  O  O397  1  0.36819791  0.98780460  0.50917731  1
  O  O398  1  0.37326005  1.00780654  0.98563091  1
  O  O399  1  0.88243273  0.49542840  0.49486543  1
  O  O400  1  0.88633383  0.48303345  1.01815777  1
  O  O401  1  0.88561165  0.99888828  0.49142745  1
  O  O402  1  0.87702696  0.99831046  0.99136542  1
  O  O403  1  0.12452866  0.00737696  0.00655679  1
  O  O404  1  0.12109759  0.00527066  0.50652581  1
  O  O405  1  0.11424460  0.49445455  0.01786974  1
  O  O406  1  0.11867191  0.50743778  0.49908109  1
  O  O407  1  0.62153139  0.00510442  0.00119722  1
  O  O408  1  0.63011805  -0.00529709  0.51155930  1
  O  O409  1  0.61849842  0.48688315  0.01905898  1
  O  O410  1  0.61991956  0.50219731  0.51046256  1
  O  O411  1  0.36281571  0.36021202  0.16616071  1
  O  O412  1  0.36958712  0.36240798  0.63191234  1
  O  O413  1  0.35996176  0.87899787  0.12694612  1
  O  O414  1  0.37155061  0.86954805  0.62203265  1
  O  O415  1  0.86938931  0.36053648  0.12204222  1
  O  O416  1  0.86881117  0.36286893  0.61807478  1
  O  O417  1  0.86685473  0.86582517  0.12183262  1
  O  O418  1  0.86830109  0.86547691  0.62467548  1
  O  O419  1  0.13141099  0.13207976  0.38082671  1
  O  O420  1  0.13089559  0.13179308  0.87883851  1
  O  O421  1  0.12270805  0.62752557  0.38841583  1
  O  O422  1  0.13435420  0.64264179  0.87252476  1
  O  O423  1  0.63617099  0.13561748  0.36918451  1
  O  O424  1  0.61791298  0.13813016  0.86982647  1
  O  O425  1  0.62943258  0.63761660  0.37517144  1
  O  O426  1  0.61915582  0.64480648  0.85903224  1
