# generated using pymatgen
data_V85Zn86O256
_symmetry_space_group_name_H-M   'P 1'
_cell_length_a   16.95276772
_cell_length_b   16.94209449
_cell_length_c   16.93791541
_cell_angle_alpha   89.96765944
_cell_angle_beta   89.94658245
_cell_angle_gamma   89.98121337
_symmetry_Int_Tables_number   1
_chemical_formula_structural   V85Zn86O256
_chemical_formula_sum   'V85 Zn86 O256'
_cell_volume   4864.82687535
_cell_formula_units_Z   1
loop_
 _symmetry_equiv_pos_site_id
 _symmetry_equiv_pos_as_xyz
  1  'x, y, z'
loop_
 _atom_site_type_symbol
 _atom_site_label
 _atom_site_symmetry_multiplicity
 _atom_site_fract_x
 _atom_site_fract_y
 _atom_site_fract_z
 _atom_site_occupancy
  V  V0  1  0.00803333  0.87481119  0.87407669  1
  V  V1  1  0.74420054  0.50509675  0.25195281  1
  V  V2  1  0.62046024  0.00136100  0.62851309  1
  V  V3  1  0.37377669  0.49169682  0.86987996  1
  V  V4  1  0.25281845  0.49896905  0.24845919  1
  V  V5  1  -0.00260402  0.87930680  0.38340284  1
  V  V6  1  0.12401640  0.74104921  0.87211880  1
  V  V7  1  0.00382420  0.75300585  0.74795656  1
  V  V8  1  0.12532289  0.37115467  0.74262623  1
  V  V9  1  0.25774182  0.36969500  0.12429069  1
  V  V10  1  -0.00829754  0.23992594  0.74342283  1
  V  V11  1  0.50318016  0.62872867  0.12765214  1
  V  V12  1  0.12465496  0.12228467  0.00084564  1
  V  V13  1  0.62625990  0.63107744  0.50462348  1
  V  V14  1  0.25137620  0.49201010  0.74874295  1
  V  V15  1  0.24799612  0.62383864  0.37834051  1
  V  V16  1  0.49661671  0.86591620  0.37135653  1
  V  V17  1  0.12222204  0.00191782  0.61683056  1
  V  V18  1  0.74088382  0.25744771  -0.00259032  1
  V  V19  1  0.75300305  0.36970857  0.63661906  1
  V  V20  1  0.38344691  0.36955188  -0.00164868  1
  V  V21  1  0.00778771  0.62464547  0.62134066  1
  V  V22  1  0.86098884  0.87465243  0.50087796  1
  V  V23  1  0.37418234  0.37300427  0.50912240  1
  V  V24  1  0.00092645  0.75299164  0.24972181  1
  V  V25  1  0.62764425  0.75681366  0.86781042  1
  V  V26  1  0.49070278  0.25491990  0.24580349  1
  V  V27  1  0.61738188  0.86667717  0.24748529  1
  V  V28  1  0.87543568  0.75281715  0.12513639  1
  V  V29  1  0.50047478  0.87849218  0.86698690  1
  V  V30  1  0.37075498  0.25055222  0.62850077  1
  V  V31  1  0.37069009  0.87651925  0.00089702  1
  V  V32  1  -0.00261157  0.37593442  0.88150095  1
  V  V33  1  0.30868417  0.67146438  0.82173320  1
  V  V34  1  0.25556629  0.24761054  0.00186333  1
  V  V35  1  0.37167940  -0.00288222  0.37060007  1
  V  V36  1  0.12313482  0.74531797  0.38156056  1
  V  V37  1  0.25082611  0.74348206  0.00731050  1
  V  V38  1  0.49305187  0.13290623  0.12355476  1
  V  V39  1  0.24578504  0.87152656  0.62736022  1
  V  V40  1  0.73862063  0.87047646  0.63298012  1
  V  V41  1  0.87281442  0.61672480  0.75040936  1
  V  V42  1  0.37519493  0.75476515  0.13042363  1
  V  V43  1  0.74654578  0.12816585  0.87145845  1
  V  V44  1  0.25005906  0.25225703  0.50362608  1
  V  V45  1  0.12589266  0.24807861  0.37541613  1
  V  V46  1  0.87669778  0.25671390  0.11388390  1
  V  V47  1  0.49894210  0.12255129  0.61940757  1
  V  V48  1  0.00266895  0.37784428  0.37597207  1
  V  V49  1  0.37460273  0.11827516  0.75109725  1
  V  V50  1  0.38076156  0.62815064  0.25197780  1
  V  V51  1  0.25215004  0.11791222  0.87568615  1
  V  V52  1  0.74631826  0.00265752  0.25431498  1
  V  V53  1  0.00026766  0.12217128  0.12501381  1
  V  V54  1  0.62164714  0.00029982  0.12205401  1
  V  V55  1  0.87232743  0.75015827  0.62132425  1
  V  V56  1  0.66121992  0.32470901  0.29925821  1
  V  V57  1  0.87424829  0.62850021  0.25066639  1
  V  V58  1  0.36881171  0.12129875  0.24773456  1
  V  V59  1  0.86915051  0.37169097  0.50035118  1
  V  V60  1  0.74953446  0.87663810  0.12387085  1
  V  V61  1  0.86875002  0.12432214  0.24894928  1
  V  V62  1  0.24935119  0.74341595  0.50503248  1
  V  V63  1  0.24089598  -0.00274305  0.75198145  1
  V  V64  1  0.49666391  -0.00281031  -0.00368962  1
  V  V65  1  0.87604669  0.87605216  -0.00216084  1
  V  V66  1  0.62428817  0.49134095  0.12753503  1
  V  V67  1  0.37597444  0.49861905  0.37779291  1
  V  V68  1  0.75059083  0.63037216  0.38269227  1
  V  V69  1  0.49788288  0.36953289  0.37857978  1
  V  V70  1  0.13561645  0.87827951  0.24982124  1
  V  V71  1  0.48797133  0.62770016  0.63302540  1
  V  V72  1  0.12686353  0.50126898  0.11868084  1
  V  V73  1  0.37361933  0.86945404  0.50411784  1
  V  V74  1  0.50307186  0.49853489  -0.00690812  1
  V  V75  1  0.63887243  0.50599230  0.63462895  1
  V  V76  1  0.62796261  0.75505624  0.37768117  1
  V  V77  1  0.87268000  0.00658933  0.38360474  1
  V  V78  1  0.74973036  0.62035408  0.87355031  1
  V  V79  1  0.87645635  0.00451913  0.86703658  1
  V  V80  1  0.25068879  0.11853059  0.37493848  1
  V  V81  1  0.00071266  0.25004381  0.24737426  1
  V  V82  1  0.00684667  0.50257737  0.49973396  1
  V  V83  1  0.13594732  -0.00361445  0.13159488  1
  V  V84  1  0.12725375  0.37463501  0.24822958  1
  Zn  Zn85  1  0.87172868  0.23302547  0.62256043  1
  Zn  Zn86  1  0.87033260  0.49446703  0.88091842  1
  Zn  Zn87  1  0.00309117  0.62614646  0.12228951  1
  Zn  Zn88  1  0.74718345  0.00174600  0.75031103  1
  Zn  Zn89  1  0.12427830  0.24827480  0.87218147  1
  Zn  Zn90  1  0.61705962  0.37593822  0.76705459  1
  Zn  Zn91  1  0.62785686  0.62770394  0.00119711  1
  Zn  Zn92  1  0.74767505  0.75183173  -0.00150919  1
  Zn  Zn93  1  0.87593589  0.50321122  0.37528088  1
  Zn  Zn94  1  0.50114265  0.25597364  0.76453255  1
  Zn  Zn95  1  0.49349002  0.74945691  0.74756273  1
  Zn  Zn96  1  0.75492680  0.38033288  0.12399570  1
  Zn  Zn97  1  0.12698074  0.62114456  -0.00349050  1
  Zn  Zn98  1  0.00051033  -0.00087579  0.00133098  1
  Zn  Zn99  1  0.13233840  0.49883019  0.62033234  1
  Zn  Zn100  1  0.11821723  0.12460157  0.49857958  1
  Zn  Zn101  1  0.61872461  0.13065423  -0.00527330  1
  Zn  Zn102  1  0.50239702  0.50036742  0.50452310  1
  Zn  Zn103  1  0.70687372  0.21822167  0.46146900  1
  Zn  Zn104  1  -0.03330357  0.08287499  0.58216744  1
  Zn  Zn105  1  -0.01066949  0.50088363  0.00366713  1
  Zn  Zn106  1  0.50371680  -0.00273270  0.49754191  1
  Zn  Zn107  1  0.18926379  0.18642291  0.18691916  1
  Zn  Zn108  1  0.18422509  0.18517747  0.68623843  1
  Zn  Zn109  1  0.19023272  0.68735369  0.19019803  1
  Zn  Zn110  1  0.18372423  0.68879329  0.68584783  1
  Zn  Zn111  1  0.68584367  0.18466112  0.17748640  1
  Zn  Zn112  1  0.68566518  0.18712335  0.69011704  1
  Zn  Zn113  1  0.68767389  0.68801964  0.18734422  1
  Zn  Zn114  1  0.68834715  0.69104195  0.69189261  1
  Zn  Zn115  1  0.31438420  0.30798334  0.31542594  1
  Zn  Zn116  1  0.31143994  0.30873583  0.81432025  1
  Zn  Zn117  1  0.31146167  0.80839007  0.31386886  1
  Zn  Zn118  1  0.31214695  0.83489708  0.81833473  1
  Zn  Zn119  1  0.82698176  0.31552724  0.30933273  1
  Zn  Zn120  1  0.81379029  0.31100337  0.81443105  1
  Zn  Zn121  1  0.80851932  0.81669066  0.31268707  1
  Zn  Zn122  1  0.81657727  0.80997179  0.81013719  1
  Zn  Zn123  1  0.18910168  0.43508270  0.43894819  1
  Zn  Zn124  1  0.18875196  0.43393444  0.93116606  1
  Zn  Zn125  1  0.18785566  0.93354206  0.43709960  1
  Zn  Zn126  1  0.18727696  0.93425335  0.94114201  1
  Zn  Zn127  1  0.68752119  0.44453764  0.44443842  1
  Zn  Zn128  1  0.69492136  0.44194600  0.94310754  1
  Zn  Zn129  1  0.67823081  1.04581651  0.43773020  1
  Zn  Zn130  1  0.68773578  0.93903089  0.93539488  1
  Zn  Zn131  1  0.31221363  0.05822616  0.06383539  1
  Zn  Zn132  1  0.31165244  0.06071326  0.55950651  1
  Zn  Zn133  1  0.31534478  0.56197780  0.05998425  1
  Zn  Zn134  1  0.31099024  0.56058042  0.56457200  1
  Zn  Zn135  1  0.81106963  0.06516271  0.05764408  1
  Zn  Zn136  1  0.79737894  0.06654548  0.56574305  1
  Zn  Zn137  1  0.81395194  0.56557382  0.05998511  1
  Zn  Zn138  1  0.81888863  0.56177811  0.56048716  1
  Zn  Zn139  1  0.43957212  0.43800399  0.18501094  1
  Zn  Zn140  1  0.44644039  0.43901628  0.68823208  1
  Zn  Zn141  1  0.43554648  0.93822637  0.18717895  1
  Zn  Zn142  1  0.43012122  0.93872804  0.68668089  1
  Zn  Zn143  1  0.93700139  0.44082886  0.18729649  1
  Zn  Zn144  1  0.94068473  0.43557943  0.68823890  1
  Zn  Zn145  1  0.94092261  0.93883395  0.18991063  1
  Zn  Zn146  1  0.93668900  0.93349313  0.68988237  1
  Zn  Zn147  1  0.05934816  0.06207970  0.31562780  1
  Zn  Zn148  1  0.06570509  0.06012081  0.81173096  1
  Zn  Zn149  1  0.06397598  0.56358961  0.30927187  1
  Zn  Zn150  1  0.06178573  0.55983594  0.80997361  1
  Zn  Zn151  1  0.55323963  0.05634239  0.30707370  1
  Zn  Zn152  1  0.56341390  0.06484098  0.80913394  1
  Zn  Zn153  1  0.56170569  0.56336942  0.31640589  1
  Zn  Zn154  1  0.56352013  0.56443535  0.81187545  1
  Zn  Zn155  1  0.54023125  0.18718847  0.44292510  1
  Zn  Zn156  1  0.43137888  0.18037186  0.93712683  1
  Zn  Zn157  1  0.43952130  0.68777166  0.44319133  1
  Zn  Zn158  1  0.44699897  0.69148246  0.94388699  1
  Zn  Zn159  1  0.93444644  0.18997860  0.43477147  1
  Zn  Zn160  1  0.93786055  0.18870695  0.93242471  1
  Zn  Zn161  1  0.93745995  0.68907768  0.44042440  1
  Zn  Zn162  1  0.93861715  0.68320416  0.94019027  1
  Zn  Zn163  1  0.06799920  0.31055299  0.06158714  1
  Zn  Zn164  1  0.05984880  0.31080572  0.56340799  1
  Zn  Zn165  1  0.06552707  0.81328111  0.06184152  1
  Zn  Zn166  1  0.06265584  0.81716413  0.56177675  1
  Zn  Zn167  1  0.56233009  0.31171466  -0.06973242  1
  Zn  Zn168  1  0.58161535  0.29478897  0.60019195  1
  Zn  Zn169  1  0.56125320  0.81013175  0.05818635  1
  Zn  Zn170  1  0.56037941  0.80993085  0.56208500  1
  O  O171  1  0.12015418  0.11869446  0.12067784  1
  O  O172  1  0.12865950  0.10816323  0.62011149  1
  O  O173  1  0.12677056  0.61429178  0.12701729  1
  O  O174  1  0.11127297  0.62153747  0.62798798  1
  O  O175  1  0.61268152  0.11438919  0.12137623  1
  O  O176  1  0.61169278  0.11585051  0.62772271  1
  O  O177  1  0.61643820  0.62115218  0.12562511  1
  O  O178  1  0.62802261  0.62002787  0.62105621  1
  O  O179  1  0.37904878  0.38121515  0.38179297  1
  O  O180  1  0.36892520  0.38040592  0.88667291  1
  O  O181  1  0.37866058  0.87623991  0.37838778  1
  O  O182  1  0.38695603  0.87396784  0.89108842  1
  O  O183  1  0.88367355  0.37978358  0.38460144  1
  O  O184  1  0.89291328  0.37667926  0.86718572  1
  O  O185  1  0.87707626  0.88047748  0.38236107  1
  O  O186  1  0.88455475  0.87810312  0.88182609  1
  O  O187  1  0.25322590  0.01028687  0.37908184  1
  O  O188  1  0.24094641  0.00423420  0.86600123  1
  O  O189  1  0.25957130  0.50241121  0.37112422  1
  O  O190  1  0.25965395  0.49978359  0.86451932  1
  O  O191  1  0.75597174  -0.00445280  0.35931798  1
  O  O192  1  0.75802785  0.00918812  0.87470417  1
  O  O193  1  0.75072845  0.51211439  0.36891167  1
  O  O194  1  0.75089055  0.51672329  0.87487711  1
  O  O195  1  0.24706170  0.49262217  0.12952910  1
  O  O196  1  0.24967914  0.50522603  0.64255441  1
  O  O197  1  0.23541328  1.00101162  0.12643313  1
  O  O198  1  0.24104919  0.99281609  0.62937247  1
  O  O199  1  0.74285074  0.50439009  0.13430725  1
  O  O200  1  0.74384897  0.50022198  0.62402907  1
  O  O201  1  0.74113295  0.99602958  0.12971567  1
  O  O202  1  0.74014125  0.98661894  0.62860393  1
  O  O203  1  0.00590469  0.37091597  0.25550829  1
  O  O204  1  0.01052596  0.36860028  0.75622003  1
  O  O205  1  0.00206077  0.86439104  0.26070861  1
  O  O206  1  -0.00421241  0.86087676  0.75896999  1
  O  O207  1  0.49218855  0.36535686  0.25587679  1
  O  O208  1  0.50097479  0.37172975  0.75596289  1
  O  O209  1  0.50732949  0.87720381  0.25664967  1
  O  O210  1  0.48477123  0.87189867  0.76401578  1
  O  O211  1  0.48707673  0.12883666  0.24337103  1
  O  O212  1  0.48697153  0.12230464  0.74178081  1
  O  O213  1  0.48820663  0.61891602  0.24447162  1
  O  O214  1  0.49974780  0.62662618  0.73772309  1
  O  O215  1  0.99340743  0.13103087  0.24298263  1
  O  O216  1  1.00693759  0.14194739  0.75708601  1
  O  O217  1  0.99440834  0.63796478  0.24973606  1
  O  O218  1  0.99422565  0.63488041  0.74382204  1
  O  O219  1  0.36414924  0.25496059  -0.00156595  1
  O  O220  1  0.36480985  0.25939059  0.50900215  1
  O  O221  1  0.37048965  0.75441503  0.00927612  1
  O  O222  1  0.36372736  0.76029214  0.49356228  1
  O  O223  1  0.86978170  0.24325058  0.01059113  1
  O  O224  1  0.88042570  0.26707348  0.50253937  1
  O  O225  1  0.87567932  0.76230859  0.00503014  1
  O  O226  1  0.87925771  0.75705963  0.51391062  1
  O  O227  1  0.13213192  0.25044509  0.49414031  1
  O  O228  1  0.13613772  0.23636543  1.00138560  1
  O  O229  1  0.13103703  0.75462390  0.48847013  1
  O  O230  1  0.13541463  0.75001388  0.99302133  1
  O  O231  1  0.61078380  0.25843243  0.49832448  1
  O  O232  1  0.63910805  0.24911141  1.00554002  1
  O  O233  1  0.62400681  0.74012410  0.49242842  1
  O  O234  1  0.62544530  0.74780550  0.98619928  1
  O  O235  1  0.49583914  0.23413951  0.13106781  1
  O  O236  1  0.47942200  0.23766527  0.62388831  1
  O  O237  1  0.49232460  0.73627804  0.12035640  1
  O  O238  1  0.50395722  0.73447732  0.62911396  1
  O  O239  1  0.99484768  0.24399886  0.12719411  1
  O  O240  1  0.99669790  0.25086129  0.63791717  1
  O  O241  1  0.99497003  0.75192213  0.13452968  1
  O  O242  1  0.99675663  0.74613105  0.63033627  1
  O  O243  1  0.00542534  0.25874995  0.36642384  1
  O  O244  1  0.00277080  0.25910679  0.86633090  1
  O  O245  1  0.00619317  0.75502418  0.37053997  1
  O  O246  1  0.00708758  0.75438958  0.86893667  1
  O  O247  1  0.49734134  0.26392130  0.36367036  1
  O  O248  1  0.50746004  0.23151213  0.87646883  1
  O  O249  1  0.50825369  0.75828898  0.37802576  1
  O  O250  1  0.50982570  0.75764126  0.87284620  1
  O  O251  1  0.24934317  0.13480512  0.49037547  1
  O  O252  1  0.24698840  0.12780936  0.99572006  1
  O  O253  1  0.25414223  0.63517975  0.49602141  1
  O  O254  1  0.25001175  0.63772832  1.00164012  1
  O  O255  1  0.75353433  0.12101603  0.48040522  1
  O  O256  1  0.74564648  0.13455816  0.99290873  1
  O  O257  1  0.74682298  0.62391307  0.48888971  1
  O  O258  1  0.74861431  0.63332732  0.98927823  1
  O  O259  1  0.25606087  0.36545053  0.00511125  1
  O  O260  1  0.25814824  0.36171194  0.49449200  1
  O  O261  1  0.26115487  0.86108152  -0.00681239  1
  O  O262  1  0.25417939  0.86331327  0.50439059  1
  O  O263  1  0.75445364  0.36079733  0.00455621  1
  O  O264  1  0.76535317  0.38355440  0.50353866  1
  O  O265  1  0.75862805  0.87499216  0.00542788  1
  O  O266  1  0.76140846  0.87328220  0.51508194  1
  O  O267  1  0.13353876  0.49378084  0.24153978  1
  O  O268  1  0.13214165  0.48823688  0.74983746  1
  O  O269  1  0.11824105  0.98989091  0.24433355  1
  O  O270  1  0.13472483  1.00247451  0.73822986  1
  O  O271  1  0.63716453  0.51192790  0.24564348  1
  O  O272  1  0.62581072  0.50019011  0.73652217  1
  O  O273  1  0.62801170  0.99124320  0.23923621  1
  O  O274  1  0.62673573  0.99864207  0.73689679  1
  O  O275  1  0.37518463  0.00359768  0.26123256  1
  O  O276  1  0.35816509  0.01133856  0.74436590  1
  O  O277  1  0.37046055  0.50539250  0.25705623  1
  O  O278  1  0.36934037  0.49289850  0.76224956  1
  O  O279  1  0.86525557  0.00529325  0.25372501  1
  O  O280  1  0.87309883  -0.00594029  0.76430857  1
  O  O281  1  0.86375066  0.50878925  0.25155254  1
  O  O282  1  0.88344926  0.51430086  0.75432877  1
  O  O283  1  0.12286410  0.36861465  0.36734653  1
  O  O284  1  0.11668021  0.37022682  0.86428796  1
  O  O285  1  0.11476468  0.86956698  0.37060384  1
  O  O286  1  0.11321646  0.86509029  0.88143978  1
  O  O287  1  0.61327383  0.38910307  0.37037229  1
  O  O288  1  0.63718552  0.37415707  0.87790543  1
  O  O289  1  0.61470125  0.86656021  0.36571665  1
  O  O290  1  0.61710308  0.86557765  0.87881064  1
  O  O291  1  0.38033309  0.11433435  0.13621193  1
  O  O292  1  0.37459268  0.12834358  0.63278724  1
  O  O293  1  0.38160220  0.63025057  0.13350153  1
  O  O294  1  0.38998306  0.62149286  0.62183256  1
  O  O295  1  0.88123445  0.12869982  0.13184984  1
  O  O296  1  0.87340297  0.11890351  0.62729579  1
  O  O297  1  0.87561801  0.63714813  0.13366600  1
  O  O298  1  0.88254812  0.63249208  0.63054569  1
  O  O299  1  0.24716805  0.25875140  0.11637293  1
  O  O300  1  0.25880334  0.24312853  0.61681988  1
  O  O301  1  0.26113684  0.74714622  0.11957622  1
  O  O302  1  0.24324352  0.75639073  0.61629687  1
  O  O303  1  0.75796940  0.25014448  0.11299502  1
  O  O304  1  0.75401014  0.26545442  0.62321805  1
  O  O305  1  0.75748861  0.75889268  0.12483995  1
  O  O306  1  0.75774573  0.76074792  0.62870656  1
  O  O307  1  0.24578691  0.24008088  0.38144994  1
  O  O308  1  0.24589837  0.23886256  0.88461724  1
  O  O309  1  0.24130674  0.74434927  0.38313628  1
  O  O310  1  0.24827178  0.74324799  0.87626401  1
  O  O311  1  0.73233346  0.26949393  0.35713149  1
  O  O312  1  0.75960530  0.23966682  0.88774889  1
  O  O313  1  0.73697016  0.74564127  0.37111835  1
  O  O314  1  0.73958270  0.74997629  0.87408568  1
  O  O315  1  0.01009800  0.12479286  0.00477547  1
  O  O316  1  0.00478877  0.12085656  0.48645376  1
  O  O317  1  0.00806038  0.62123838  0.00467036  1
  O  O318  1  -0.00552312  0.61614688  0.50883731  1
  O  O319  1  0.49699130  0.11325177  0.00798905  1
  O  O320  1  0.48444209  0.11556109  0.51595997  1
  O  O321  1  0.50121988  0.61532032  0.01070784  1
  O  O322  1  0.50925408  0.62394944  0.51036135  1
  O  O323  1  0.48733652  0.38142735  0.48963659  1
  O  O324  1  0.48986288  0.38127247  1.00062506  1
  O  O325  1  0.48879971  0.87198756  0.49323975  1
  O  O326  1  0.49262556  0.88025290  0.99402565  1
  O  O327  1  0.99327222  0.38151153  0.49558160  1
  O  O328  1  1.00944883  0.37266462  0.98456677  1
  O  O329  1  0.98971741  0.87064575  0.48764116  1
  O  O330  1  0.99378900  0.87596211  0.99202244  1
  O  O331  1  0.48772981  0.49408593  0.37561648  1
  O  O332  1  0.49369254  0.50792650  0.88745487  1
  O  O333  1  0.48853865  0.98337222  0.37665552  1
  O  O334  1  0.50819717  0.99367493  0.88778555  1
  O  O335  1  1.00103065  0.49524467  0.37963781  1
  O  O336  1  1.00321444  0.48576252  0.87661693  1
  O  O337  1  0.98451266  0.98897002  0.36508242  1
  O  O338  1  0.99613163  0.99173165  0.87609642  1
  O  O339  1  0.00597584  0.00877473  0.12348397  1
  O  O340  1  0.01680436  -0.00951218  0.62982615  1
  O  O341  1  0.01286693  0.49973981  0.12501945  1
  O  O342  1  0.00123656  0.50803844  0.61764680  1
  O  O343  1  0.50580956  0.00353088  0.11781254  1
  O  O344  1  0.50288008  0.00366280  0.62576800  1
  O  O345  1  0.50510982  0.50798258  0.11776896  1
  O  O346  1  0.51346072  0.51294132  0.62370566  1
  O  O347  1  0.24968141  0.37715186  0.24224599  1
  O  O348  1  0.23617386  0.37790302  0.75526654  1
  O  O349  1  0.23458911  0.87116412  0.25766190  1
  O  O350  1  0.25103431  0.88408515  0.74048223  1
  O  O351  1  0.74452384  0.38511864  0.25256351  1
  O  O352  1  0.75142776  0.37491094  0.73805862  1
  O  O353  1  0.74054194  0.88331808  0.24264290  1
  O  O354  1  0.75669293  0.87664591  0.73560574  1
  O  O355  1  0.26114758  0.13149824  0.25789238  1
  O  O356  1  0.25061502  0.11866711  0.75877793  1
  O  O357  1  0.26173251  0.61914203  0.25731370  1
  O  O358  1  0.25060002  0.61931752  0.75505179  1
  O  O359  1  0.75679819  0.11552642  0.23985558  1
  O  O360  1  0.74812192  0.12736914  0.76628362  1
  O  O361  1  0.75460901  0.62322417  0.26047846  1
  O  O362  1  0.76201377  0.63378214  0.75901247  1
  O  O363  1  0.36666555  0.11113218  0.36608656  1
  O  O364  1  0.35964180  0.12075888  0.86821502  1
  O  O365  1  0.37256738  0.61843976  0.37082328  1
  O  O366  1  0.37389475  0.61791859  0.88042338  1
  O  O367  1  0.87845713  0.11876058  0.35762164  1
  O  O368  1  0.86431466  0.11399215  0.88382849  1
  O  O369  1  0.86653681  0.62886552  0.36984703  1
  O  O370  1  0.86694132  0.63142279  0.86556357  1
  O  O371  1  0.13670245  0.38031633  0.12908710  1
  O  O372  1  0.12055673  0.37765674  0.63874685  1
  O  O373  1  0.11781504  0.88373983  0.13711739  1
  O  O374  1  0.13693755  0.88402866  0.61989844  1
  O  O375  1  0.63002925  0.39266054  0.13276746  1
  O  O376  1  0.64581831  0.39482068  0.61431644  1
  O  O377  1  0.62596091  0.87872756  0.13025093  1
  O  O378  1  0.63552591  0.87303970  0.62527223  1
  O  O379  1  0.12022769  0.25553709  0.25317443  1
  O  O380  1  0.11940579  0.25843312  0.74922480  1
  O  O381  1  0.11814770  0.75577169  0.25840973  1
  O  O382  1  0.11719796  0.74878649  0.75894907  1
  O  O383  1  0.61128132  0.25215589  0.24036919  1
  O  O384  1  0.61079408  0.26717585  0.71281381  1
  O  O385  1  0.62737130  0.76093914  0.25570610  1
  O  O386  1  0.61956627  0.75114085  0.76427641  1
  O  O387  1  0.38393980  0.23921686  0.25253315  1
  O  O388  1  0.36988766  0.23722704  0.74411126  1
  O  O389  1  0.37169347  0.74029712  0.24347585  1
  O  O390  1  0.36491507  0.73751789  0.76922153  1
  O  O391  1  0.88065954  0.24048668  0.24077988  1
  O  O392  1  0.88880550  0.25341047  0.74646676  1
  O  O393  1  0.88201014  0.75013402  0.24687423  1
  O  O394  1  0.88421640  0.74449257  0.73837479  1
  O  O395  1  0.37267981  0.49213296  0.49325981  1
  O  O396  1  0.38121455  0.49156239  0.99165991  1
  O  O397  1  0.37060440  0.98556713  0.48764426  1
  O  O398  1  0.38302213  0.98723759  1.00795379  1
  O  O399  1  0.88798115  0.49146546  0.49673435  1
  O  O400  1  0.87580994  0.50035758  0.99552461  1
  O  O401  1  0.86953579  0.99296000  0.48752655  1
  O  O402  1  0.87695818  0.98884865  0.99356090  1
  O  O403  1  0.12496016  0.00861174  0.00838700  1
  O  O404  1  0.13063906  -0.00078061  0.51305303  1
  O  O405  1  0.13155520  0.49796604  0.01145306  1
  O  O406  1  0.11304648  0.49308515  0.50181264  1
  O  O407  1  0.61729555  -0.00313581  0.01105185  1
  O  O408  1  0.61918292  -0.00980458  0.51952264  1
  O  O409  1  0.61776279  0.50407371  0.00909681  1
  O  O410  1  0.62442284  0.51617905  0.50862771  1
  O  O411  1  0.36459054  0.38134082  0.11475075  1
  O  O412  1  0.37874465  0.36875962  0.61626016  1
  O  O413  1  0.38211659  0.86158209  0.11951685  1
  O  O414  1  0.36041637  0.87853881  0.61497414  1
  O  O415  1  0.87304970  0.36089008  0.13499483  1
  O  O416  1  0.86414013  0.38079958  0.61733118  1
  O  O417  1  0.87252456  0.87250877  0.11865187  1
  O  O418  1  0.87065032  0.86891173  0.61921230  1
  O  O419  1  0.13418314  0.13060485  0.37176404  1
  O  O420  1  0.13344099  0.12395344  0.88507631  1
  O  O421  1  0.13335242  0.63506157  0.36824599  1
  O  O422  1  0.12179669  0.63658520  0.87531494  1
  O  O423  1  0.60775176  0.11676059  0.38232695  1
  O  O424  1  0.64186221  0.11665697  0.87938291  1
  O  O425  1  0.62955433  0.63311006  0.38281866  1
  O  O426  1  0.63254670  0.63632444  0.87423535  1
