# generated using pymatgen
data_V85Zn86O256
_symmetry_space_group_name_H-M   'P 1'
_cell_length_a   16.94989196
_cell_length_b   16.93832034
_cell_length_c   16.94203139
_cell_angle_alpha   90.01304177
_cell_angle_beta   90.07049801
_cell_angle_gamma   89.92158298
_symmetry_Int_Tables_number   1
_chemical_formula_structural   V85Zn86O256
_chemical_formula_sum   'V85 Zn86 O256'
_cell_volume   4864.09459105
_cell_formula_units_Z   1
loop_
 _symmetry_equiv_pos_site_id
 _symmetry_equiv_pos_as_xyz
  1  'x, y, z'
loop_
 _atom_site_type_symbol
 _atom_site_label
 _atom_site_symmetry_multiplicity
 _atom_site_fract_x
 _atom_site_fract_y
 _atom_site_fract_z
 _atom_site_occupancy
  V  V0  1  0.86941051  0.26200542  0.63132417  1
  V  V1  1  0.36387585  -0.00209904  0.86422031  1
  V  V2  1  0.37433444  0.87674979  0.49844885  1
  V  V3  1  0.11624432  0.24323760  0.87425137  1
  V  V4  1  0.24877711  0.74668873  -0.00298347  1
  V  V5  1  0.37126519  0.23789732  0.63843471  1
  V  V6  1  0.50587261  0.01574822  0.51186560  1
  V  V7  1  0.87245453  0.87777152  0.50553478  1
  V  V8  1  0.87248141  0.37358958  0.49890008  1
  V  V9  1  0.00251084  0.62555650  0.63175945  1
  V  V10  1  -0.00128365  0.38016486  0.36985658  1
  V  V11  1  0.12445373  0.62516936  0.50062654  1
  V  V12  1  0.37326404  0.62150898  0.75032037  1
  V  V13  1  0.88615770  0.37664123  0.00036435  1
  V  V14  1  0.12288274  0.36413860  0.74389014  1
  V  V15  1  0.86910486  0.75571763  0.12781672  1
  V  V16  1  0.75323629  0.37188918  0.12755958  1
  V  V17  1  0.24437200  0.49838836  0.22988880  1
  V  V18  1  -0.00890613  0.87421213  0.87943880  1
  V  V19  1  0.74566249  0.01060967  0.25528993  1
  V  V20  1  0.00016198  0.87767753  0.37904174  1
  V  V21  1  0.75025965  0.61138672  0.37900239  1
  V  V22  1  0.88174358  0.12921100  0.25518055  1
  V  V23  1  0.87144221  0.12997147  0.75480986  1
  V  V24  1  0.49747005  0.36651876  0.37473612  1
  V  V25  1  0.11706232  0.25187943  0.36883222  1
  V  V26  1  0.62214990  0.00500975  0.12700890  1
  V  V27  1  0.00121928  0.13918111  0.63176264  1
  V  V28  1  0.62511357  0.88035482  0.25239117  1
  V  V29  1  0.25090583  0.48667931  0.74510035  1
  V  V30  1  0.49910431  0.87836826  0.37628305  1
  V  V31  1  0.37462007  0.74913082  0.62405235  1
  V  V32  1  0.64036233  0.37675173  0.74557405  1
  V  V33  1  0.49912118  0.00112090  -0.00335345  1
  V  V34  1  0.37450891  0.00297076  0.37163906  1
  V  V35  1  0.37626799  0.75023372  0.12409498  1
  V  V36  1  0.37655312  0.87599740  0.00211194  1
  V  V37  1  0.25002158  0.74992162  0.49923465  1
  V  V38  1  0.37294913  0.49715419  0.37238156  1
  V  V39  1  0.75422637  0.76003778  -0.00186141  1
  V  V40  1  0.32584086  0.30356953  0.04541447  1
  V  V41  1  0.63114266  0.49906875  0.12497986  1
  V  V42  1  0.68117200  0.19553167  0.46134672  1
  V  V43  1  0.87351884  0.61720444  0.25729683  1
  V  V44  1  0.50453650  0.62454703  0.12524882  1
  V  V45  1  0.50050172  0.61985237  0.62340588  1
  V  V46  1  0.86695235  0.00284040  0.87871990  1
  V  V47  1  0.49697942  0.25014024  0.24128202  1
  V  V48  1  0.63440458  0.24805061  0.87199664  1
  V  V49  1  0.74051338  0.88515908  0.63080586  1
  V  V50  1  0.86582561  0.61813528  0.74685697  1
  V  V51  1  0.36933082  0.37691157  0.51243549  1
  V  V52  1  -0.00082769  0.50181001  0.49635233  1
  V  V53  1  0.24943631  0.88298088  0.62857823  1
  V  V54  1  0.12560621  0.88256708  0.75116326  1
  V  V55  1  0.37824932  0.49437183  0.87517347  1
  V  V56  1  -0.00177445  -0.00554791  0.01003324  1
  V  V57  1  0.24774380  0.62313867  0.37173250  1
  V  V58  1  0.23725231  0.87942229  0.12481937  1
  V  V59  1  0.62788581  0.74921392  0.37713706  1
  V  V60  1  0.12557365  0.74653996  0.87080680  1
  V  V61  1  0.63742495  0.62578503  -0.00109652  1
  V  V62  1  0.12514073  0.37511529  0.23512738  1
  V  V63  1  -0.00390633  0.75069516  0.25296793  1
  V  V64  1  0.24372552  0.11927363  0.85756487  1
  V  V65  1  0.13209854  0.11899780  0.01051107  1
  V  V66  1  0.50117666  0.75023839  0.25054413  1
  V  V67  1  0.24882009  0.25697463  0.50224234  1
  V  V68  1  0.88644114  0.24720646  0.13118772  1
  V  V69  1  0.50141685  0.49569348  0.50050482  1
  V  V70  1  0.50206841  0.49814031  0.00120619  1
  V  V71  1  0.63746223  0.49269065  0.62559362  1
  V  V72  1  0.37596464  0.62195339  0.24838832  1
  V  V73  1  0.87318933  0.49557884  0.87020908  1
  V  V74  1  0.37381878  0.13072861  0.24236175  1
  V  V75  1  0.12462577  0.12787300  0.50030501  1
  V  V76  1  0.50558966  0.74889858  0.75022636  1
  V  V77  1  0.50831030  0.37662794  0.87331622  1
  V  V78  1  0.24830669  0.12748189  0.37237173  1
  V  V79  1  0.87247325  0.75163072  0.62634424  1
  V  V80  1  0.75453452  0.24422382  0.00114042  1
  V  V81  1  0.62511317  0.36870131  0.25183884  1
  V  V82  1  0.86566053  0.00883291  0.38232495  1
  V  V83  1  0.62891406  0.12451744  -0.00396275  1
  V  V84  1  -0.00006111  0.00355918  0.50787541  1
  Zn  Zn85  1  -0.00106075  0.75261922  0.75036610  1
  Zn  Zn86  1  0.61617368  0.89370000  0.74929808  1
  Zn  Zn87  1  0.50260454  0.24363110  0.74515070  1
  Zn  Zn88  1  0.00120112  0.37193872  0.87412776  1
  Zn  Zn89  1  0.12912761  0.49656045  0.62673884  1
  Zn  Zn90  1  0.12481517  0.75255228  0.37376882  1
  Zn  Zn91  1  0.00872347  0.11858815  0.13292567  1
  Zn  Zn92  1  0.50054819  0.87251539  0.87352807  1
  Zn  Zn93  1  0.24783828  0.61918041  0.87710744  1
  Zn  Zn94  1  0.74788261  0.75089448  0.50007933  1
  Zn  Zn95  1  0.62698068  0.61922498  0.49946984  1
  Zn  Zn96  1  0.00620616  0.61535950  0.12577418  1
  Zn  Zn97  1  0.75056616  0.62216412  0.87064428  1
  Zn  Zn98  1  0.12709764  0.59431946  0.02491399  1
  Zn  Zn99  1  0.75011470  0.88155763  0.12364032  1
  Zn  Zn100  1  0.73791167  0.01586570  0.75494567  1
  Zn  Zn101  1  0.11699114  0.88059972  0.24278041  1
  Zn  Zn102  1  0.24066279  0.00677223  0.24183332  1
  Zn  Zn103  1  0.13064273  0.00680408  0.63104041  1
  Zn  Zn104  1  0.49127167  0.13482971  0.11280520  1
  Zn  Zn105  1  0.75357873  0.49139226  0.25963907  1
  Zn  Zn106  1  0.62778400  0.75122411  0.87255886  1
  Zn  Zn107  1  0.19684329  0.19908823  0.18088545  1
  Zn  Zn108  1  0.19220815  0.18968856  0.68508450  1
  Zn  Zn109  1  0.18285185  0.69311527  0.18672001  1
  Zn  Zn110  1  0.18833868  0.68965474  0.69011774  1
  Zn  Zn111  1  0.68666623  0.18769316  0.18853566  1
  Zn  Zn112  1  0.68988192  0.18888961  0.67315918  1
  Zn  Zn113  1  0.69187526  0.68721955  0.18994615  1
  Zn  Zn114  1  0.68710023  0.68638515  0.67944441  1
  Zn  Zn115  1  0.30827189  0.31345891  0.30925455  1
  Zn  Zn116  1  0.30592109  0.31304626  0.83444016  1
  Zn  Zn117  1  0.31183715  0.81210592  0.30947032  1
  Zn  Zn118  1  0.31369253  0.81256023  0.81067055  1
  Zn  Zn119  1  0.80729022  0.30246858  0.32319072  1
  Zn  Zn120  1  0.81510989  0.30940523  0.81181885  1
  Zn  Zn121  1  0.81082628  0.81757297  0.31481054  1
  Zn  Zn122  1  0.81107512  0.81158479  0.81040837  1
  Zn  Zn123  1  0.18413240  0.43904687  0.43257574  1
  Zn  Zn124  1  0.19611282  0.42561748  0.94018828  1
  Zn  Zn125  1  0.18654401  0.94120381  0.43690351  1
  Zn  Zn126  1  0.18242281  0.93494082  0.94059011  1
  Zn  Zn127  1  0.67040597  0.39562761  0.45413662  1
  Zn  Zn128  1  0.69866415  0.43829941  0.93694969  1
  Zn  Zn129  1  0.68503691  0.94116283  0.44350453  1
  Zn  Zn130  1  0.68292854  0.93514024  0.93169155  1
  Zn  Zn131  1  0.31104395  0.06344976  0.05932174  1
  Zn  Zn132  1  0.31560154  0.06476314  0.55911576  1
  Zn  Zn133  1  0.31716591  0.56309817  0.05734823  1
  Zn  Zn134  1  0.31098618  0.56048608  0.56339486  1
  Zn  Zn135  1  0.81511305  0.06161755  0.06609745  1
  Zn  Zn136  1  0.81036875  0.07021495  0.56797043  1
  Zn  Zn137  1  0.84584892  0.54740180  0.08004861  1
  Zn  Zn138  1  0.81509264  0.56017590  0.55784190  1
  Zn  Zn139  1  0.43154832  0.43170028  0.17979427  1
  Zn  Zn140  1  0.44510519  0.43044820  0.69019736  1
  Zn  Zn141  1  0.43605725  0.94198034  0.18624815  1
  Zn  Zn142  1  0.43759482  0.93711784  0.68515228  1
  Zn  Zn143  1  0.94347151  0.43921313  0.18769779  1
  Zn  Zn144  1  0.94556636  0.44142850  0.68942175  1
  Zn  Zn145  1  0.93172139  0.93752760  0.19258653  1
  Zn  Zn146  1  0.93486648  0.94180159  0.69371430  1
  Zn  Zn147  1  0.06178622  0.05800604  0.31450843  1
  Zn  Zn148  1  0.05474452  0.05925564  0.81473671  1
  Zn  Zn149  1  0.06434672  0.56149175  0.30784181  1
  Zn  Zn150  1  0.08324014  0.53492918  0.85236552  1
  Zn  Zn151  1  0.56406430  0.07605599  0.32697175  1
  Zn  Zn152  1  0.55504848  0.06915443  0.80880810  1
  Zn  Zn153  1  0.56588721  0.55681110  0.31288189  1
  Zn  Zn154  1  0.56813602  0.56233065  0.81028291  1
  Zn  Zn155  1  0.43443832  0.19086806  0.43634465  1
  Zn  Zn156  1  0.44262922  0.18024577  0.91199924  1
  Zn  Zn157  1  0.43829399  0.68556650  0.43600738  1
  Zn  Zn158  1  0.44051117  0.68340458  0.93608545  1
  Zn  Zn159  1  0.93370906  0.19096268  0.44158425  1
  Zn  Zn160  1  0.94097381  0.18033167  0.94233733  1
  Zn  Zn161  1  0.93435043  0.68828661  0.43960267  1
  Zn  Zn162  1  0.93893110  0.67940108  0.93897145  1
  Zn  Zn163  1  0.06609514  0.30193253  0.05854916  1
  Zn  Zn164  1  0.06356540  0.31646719  0.56143892  1
  Zn  Zn165  1  0.04406104  0.77816910  0.04438941  1
  Zn  Zn166  1  0.06372742  0.81241176  0.56408976  1
  Zn  Zn167  1  0.56234839  0.31212687  0.06022477  1
  Zn  Zn168  1  0.57286678  0.28036695  0.57499104  1
  Zn  Zn169  1  0.56701013  0.81409457  0.06270827  1
  Zn  Zn170  1  0.56006582  0.81440698  0.56103188  1
  O  O171  1  0.12787304  0.12880804  0.11455843  1
  O  O172  1  0.11854176  0.12538058  0.61989420  1
  O  O173  1  0.12129563  0.61756729  0.13431044  1
  O  O174  1  0.11808844  0.62648017  0.61985604  1
  O  O175  1  0.62099491  0.12155675  0.11409672  1
  O  O176  1  0.63867098  0.18494200  0.57377673  1
  O  O177  1  0.62310049  0.61932594  0.12034340  1
  O  O178  1  0.61689166  0.61338921  0.62116047  1
  O  O179  1  0.37928666  0.38171831  0.37771379  1
  O  O180  1  0.39277059  0.38718486  0.86515730  1
  O  O181  1  0.37759298  0.88325314  0.37707780  1
  O  O182  1  0.37254143  0.88193433  0.88658105  1
  O  O183  1  0.88892124  0.36582686  0.38643992  1
  O  O184  1  0.87634797  0.37589417  0.88239658  1
  O  O185  1  0.88206772  0.88448147  0.38520555  1
  O  O186  1  0.88537527  0.88220068  0.86712524  1
  O  O187  1  0.26083435  0.00771379  0.37602263  1
  O  O188  1  0.25683697  -0.00177360  0.87616022  1
  O  O189  1  0.25408026  0.51089823  0.36881929  1
  O  O190  1  0.26572027  0.50001420  0.86266674  1
  O  O191  1  0.75966321  -0.00377453  0.37276073  1
  O  O192  1  0.76351794  -0.00460605  0.87613153  1
  O  O193  1  0.74185693  0.51129396  0.37817113  1
  O  O194  1  0.76376926  0.50401625  0.87113614  1
  O  O195  1  0.25468337  0.50197560  0.13074870  1
  O  O196  1  0.24837103  0.50360536  0.64044886  1
  O  O197  1  0.25400648  0.98281293  0.12324450  1
  O  O198  1  0.25000080  0.98659937  0.61534904  1
  O  O199  1  0.75190928  0.48378854  0.12850191  1
  O  O200  1  0.73594439  0.50309772  0.61849737  1
  O  O201  1  0.74123635  1.00142436  0.13558835  1
  O  O202  1  0.75545509  0.98742078  0.62806346  1
  O  O203  1  0.01184478  0.38123719  0.25749354  1
  O  O204  1  0.01953077  0.37756528  0.75339810  1
  O  O205  1  -0.00469294  0.87113580  0.26393642  1
  O  O206  1  0.00658549  0.87473530  0.75863678  1
  O  O207  1  0.50192060  0.36939771  0.25257748  1
  O  O208  1  0.51230205  0.36703590  0.76029864  1
  O  O209  1  0.50433164  0.87242299  0.25656470  1
  O  O210  1  0.49875547  0.86234455  0.74766461  1
  O  O211  1  0.49293118  0.13577664  0.25200682  1
  O  O212  1  0.48285591  0.15190940  0.80523041  1
  O  O213  1  0.49637603  0.62792447  0.24495931  1
  O  O214  1  0.49025863  0.62644881  0.74411362  1
  O  O215  1  0.98655257  0.11775801  0.24939292  1
  O  O216  1  0.98835086  0.11771092  0.73892013  1
  O  O217  1  0.98973788  0.63426102  0.25583216  1
  O  O218  1  0.99055690  0.62765587  0.73483665  1
  O  O219  1  0.38861366  0.23826169  -0.00206383  1
  O  O220  1  0.36640833  0.25898473  0.50516937  1
  O  O221  1  0.36823999  0.75492240  0.00138448  1
  O  O222  1  0.37045014  0.75520997  0.50343628  1
  O  O223  1  0.87037350  0.25105387  0.00911423  1
  O  O224  1  0.88470164  0.26626811  0.51295033  1
  O  O225  1  0.86315599  0.74188638  0.01326151  1
  O  O226  1  0.87396782  0.75816599  0.51208900  1
  O  O227  1  0.13174697  0.24838983  0.49278970  1
  O  O228  1  0.12150064  0.22841089  0.98987016  1
  O  O229  1  0.13179721  0.74311468  0.49701809  1
  O  O230  1  0.14358947  0.76162117  0.98618677  1
  O  O231  1  0.62126850  0.29400513  0.47558590  1
  O  O232  1  0.63552798  0.24363854  0.99783639  1
  O  O233  1  0.62101558  0.74691814  0.48728107  1
  O  O234  1  0.63360842  0.74216318  1.00029400  1
  O  O235  1  0.50214502  0.25059823  0.13592569  1
  O  O236  1  0.47702951  0.25331258  0.63112607  1
  O  O237  1  0.49715710  0.74484396  0.13052290  1
  O  O238  1  0.49338108  0.74161869  0.62814459  1
  O  O239  1  0.98865078  0.24411554  0.12532584  1
  O  O240  1  0.99911303  0.24204552  0.62232581  1
  O  O241  1  0.98749187  0.75544407  0.14404412  1
  O  O242  1  0.99137471  0.74341201  0.62366455  1
  O  O243  1  0.01286597  0.25674722  0.37987512  1
  O  O244  1  0.01242010  0.24331302  0.87479054  1
  O  O245  1  -0.00362786  0.75979592  0.36973070  1
  O  O246  1  0.00669994  0.75835310  0.87317169  1
  O  O247  1  0.49139338  0.26326768  0.36491257  1
  O  O248  1  0.52333166  0.27180322  0.89350421  1
  O  O249  1  0.50516330  0.75564784  0.36884773  1
  O  O250  1  0.49905554  0.74994346  0.86369462  1
  O  O251  1  0.24446612  0.13387915  0.49203824  1
  O  O252  1  0.23346269  0.11119610  0.98991678  1
  O  O253  1  0.24596279  0.62859113  0.49190280  1
  O  O254  1  0.24755180  0.63365449  0.99678458  1
  O  O255  1  0.75730067  0.13168406  0.49292940  1
  O  O256  1  0.74523799  0.13671248  1.00812930  1
  O  O257  1  0.74805005  0.62902791  0.49235079  1
  O  O258  1  0.74094001  0.63067740  1.00338482  1
  O  O259  1  0.27426324  0.35195025  -0.03303149  1
  O  O260  1  0.25693772  0.36861602  0.49034533  1
  O  O261  1  0.25843786  0.87001529  0.00851928  1
  O  O262  1  0.25498754  0.86866208  0.50299582  1
  O  O263  1  0.75565380  0.36179050  0.01004390  1
  O  O264  1  0.77549131  0.38983108  0.49862531  1
  O  O265  1  0.74358486  0.86333897  0.00269883  1
  O  O266  1  0.75512561  0.87568226  0.51199990  1
  O  O267  1  0.13280663  0.48660176  0.25151645  1
  O  O268  1  0.13651094  0.48720248  0.75584928  1
  O  O269  1  0.12958609  0.99182732  0.25764939  1
  O  O270  1  0.11928855  0.98698669  0.74865847  1
  O  O271  1  0.62900703  0.49304447  0.23826193  1
  O  O272  1  0.62133897  0.48624290  0.74054657  1
  O  O273  1  0.62852157  1.00432898  0.25184006  1
  O  O274  1  0.62503816  1.00767358  0.75215274  1
  O  O275  1  0.37047997  0.00727917  0.25779053  1
  O  O276  1  0.37609244  -0.00910579  0.76654097  1
  O  O277  1  0.36702244  0.50272486  0.25159332  1
  O  O278  1  0.37395465  0.50352665  0.75288393  1
  O  O279  1  0.86564470  0.00760803  0.26179689  1
  O  O280  1  0.86942011  0.01173201  0.75957299  1
  O  O281  1  0.87210728  0.51357431  0.25589925  1
  O  O282  1  0.87582153  0.50807295  0.75140730  1
  O  O283  1  0.11533869  0.36943519  0.36807269  1
  O  O284  1  0.12425336  0.35715564  0.86795511  1
  O  O285  1  0.10820596  0.87438827  0.38324572  1
  O  O286  1  0.11918757  0.86747776  0.86711494  1
  O  O287  1  0.60878855  0.39356538  0.35526744  1
  O  O288  1  0.62735091  0.37466490  0.86429058  1
  O  O289  1  0.61896572  0.86901326  0.37187316  1
  O  O290  1  0.61880323  0.86867437  0.86673003  1
  O  O291  1  0.37599953  0.11629132  0.13821786  1
  O  O292  1  0.36579653  0.13842237  0.63003048  1
  O  O293  1  0.38353390  0.63084047  0.12884486  1
  O  O294  1  0.38059971  0.62819329  0.63028957  1
  O  O295  1  0.87590126  0.13188804  0.13692301  1
  O  O296  1  0.88325695  0.14190871  0.62906750  1
  O  O297  1  0.86460728  0.64265396  0.14544847  1
  O  O298  1  0.87996402  0.63159374  0.62729325  1
  O  O299  1  0.26008004  0.25408630  0.10582598  1
  O  O300  1  0.25665323  0.25054820  0.61024550  1
  O  O301  1  0.25765020  0.75641631  0.11656540  1
  O  O302  1  0.25630641  0.75667900  0.61825915  1
  O  O303  1  0.75700528  0.25737216  0.12150339  1
  O  O304  1  0.77208359  0.26500805  0.62795353  1
  O  O305  1  0.75206879  0.75569169  0.11926663  1
  O  O306  1  0.75701640  0.75939935  0.62143232  1
  O  O307  1  0.24119661  0.24630804  0.38254730  1
  O  O308  1  0.23794977  0.22481966  0.86815799  1
  O  O309  1  0.25116157  0.73858642  0.37797208  1
  O  O310  1  0.24666262  0.74796411  0.88009604  1
  O  O311  1  0.74219308  0.25330344  0.39819438  1
  O  O312  1  0.74194665  0.25505229  0.88570738  1
  O  O313  1  0.73939477  0.74824262  0.37762322  1
  O  O314  1  0.75158730  0.74521049  0.88441253  1
  O  O315  1  0.01057037  0.11227616  0.00691585  1
  O  O316  1  0.00418994  0.12053393  0.50837201  1
  O  O317  1  0.02057325  0.66219186  0.01462348  1
  O  O318  1  0.00362704  0.61991039  0.50575077  1
  O  O319  1  0.50928411  0.11620701  -0.00362191  1
  O  O320  1  0.48967855  0.11442646  0.49779798  1
  O  O321  1  0.51280519  0.61773520  0.00510432  1
  O  O322  1  0.49961618  0.60997015  0.50171369  1
  O  O323  1  0.48558741  0.38540578  0.48992127  1
  O  O324  1  0.51483292  0.39312460  0.99341622  1
  O  O325  1  0.49018581  0.87952938  0.49287876  1
  O  O326  1  0.49240225  0.88040188  0.99974772  1
  O  O327  1  0.99956456  0.38441909  0.49103376  1
  O  O328  1  0.98907820  0.36544492  0.99824662  1
  O  O329  1  0.99280422  0.88401966  0.50004871  1
  O  O330  1  1.00607888  0.87824481  0.98876567  1
  O  O331  1  0.49121627  0.49473289  0.38022985  1
  O  O332  1  0.50120174  0.49415297  0.88024375  1
  O  O333  1  0.48815629  0.99788541  0.37830830  1
  O  O334  1  0.48496703  0.99596362  0.88670767  1
  O  O335  1  1.00542052  0.49196592  0.38264559  1
  O  O336  1  0.97930567  0.49250180  0.87087425  1
  O  O337  1  0.98989315  0.99577952  0.38972856  1
  O  O338  1  0.98993927  0.99138712  0.88502140  1
  O  O339  1  -0.00835682  -0.00441534  0.11398351  1
  O  O340  1  -0.00262881  0.00777482  0.61608403  1
  O  O341  1  -0.04417595  0.51546172  0.10981717  1
  O  O342  1  0.00819133  0.50994242  0.61720787  1
  O  O343  1  0.50432525  0.00320978  0.11265982  1
  O  O344  1  0.49183877  0.00103333  0.61090791  1
  O  O345  1  0.50739400  0.50450903  0.11776440  1
  O  O346  1  0.50380537  0.50137299  0.61625888  1
  O  O347  1  0.23633583  0.38539326  0.25234575  1
  O  O348  1  0.23963467  0.37869036  0.75904559  1
  O  O349  1  0.25026030  0.87098837  0.23257014  1
  O  O350  1  0.24226257  0.86937458  0.73843311  1
  O  O351  1  0.74266554  0.37085354  0.24740763  1
  O  O352  1  0.73888441  0.37334826  0.75079343  1
  O  O353  1  0.74097021  0.89070679  0.25327178  1
  O  O354  1  0.74654833  0.87518280  0.73682352  1
  O  O355  1  0.25641940  0.12819137  0.25447918  1
  O  O356  1  0.24079598  0.11271509  0.75866766  1
  O  O357  1  0.25481526  0.61963701  0.25560969  1
  O  O358  1  0.26370745  0.62018750  0.75046545  1
  O  O359  1  0.75631045  0.11575943  0.25014708  1
  O  O360  1  0.76514510  0.13046262  0.73817337  1
  O  O361  1  0.75517169  0.62265790  0.26232061  1
  O  O362  1  0.76281827  0.63133491  0.74701074  1
  O  O363  1  0.36889210  0.12010604  0.36542332  1
  O  O364  1  0.35174771  0.10572023  0.88267464  1
  O  O365  1  0.36843191  0.61830473  0.36795155  1
  O  O366  1  0.37790410  0.61306932  0.86546839  1
  O  O367  1  0.88121826  0.11743759  0.37092783  1
  O  O368  1  0.87993972  0.11815626  0.86594638  1
  O  O369  1  0.86160196  0.63271471  0.36978126  1
  O  O370  1  0.87673894  0.61744565  0.86394776  1
  O  O371  1  0.11802116  0.36935240  0.13595077  1
  O  O372  1  0.12660254  0.37493159  0.63920819  1
  O  O373  1  0.13828773  0.86705246  0.11983903  1
  O  O374  1  0.13255672  0.87738472  0.63150970  1
  O  O375  1  0.63374092  0.37799460  0.13233994  1
  O  O376  1  0.61968660  0.37684705  0.63932376  1
  O  O377  1  0.62404067  0.88638230  0.13539831  1
  O  O378  1  0.63753620  0.87068109  0.62620677  1
  O  O379  1  0.13324152  0.26410414  0.25675420  1
  O  O380  1  0.12969772  0.25795772  0.75425260  1
  O  O381  1  0.11216658  0.75915850  0.25526280  1
  O  O382  1  0.12226573  0.76248478  0.75340820  1
  O  O383  1  0.61545899  0.25935813  0.24730080  1
  O  O384  1  0.62766688  0.25659113  0.75714905  1
  O  O385  1  0.62045442  0.75573278  0.25987576  1
  O  O386  1  0.61046223  0.74173280  0.74681558  1
  O  O387  1  0.38119631  0.24230696  0.25296587  1
  O  O388  1  0.36118070  0.25873738  0.73722393  1
  O  O389  1  0.38224394  0.74252121  0.24461394  1
  O  O390  1  0.38254210  0.74051945  0.74434900  1
  O  O391  1  0.86733635  0.23991232  0.24521811  1
  O  O392  1  0.88094583  0.24800301  0.74010548  1
  O  O393  1  0.87799318  0.74612484  0.25098209  1
  O  O394  1  0.87742646  0.74405912  0.73831945  1
  O  O395  1  0.37707792  0.49415894  0.49371747  1
  O  O396  1  0.39025015  0.50870154  0.98727887  1
  O  O397  1  0.37973449  0.99465191  0.49023900  1
  O  O398  1  0.38123668  0.99150486  0.99713374  1
  O  O399  1  0.89221961  0.49041469  0.50619188  1
  O  O400  1  0.86105081  0.48146025  0.98706736  1
  O  O401  1  0.87991378  0.99919092  0.49796273  1
  O  O402  1  0.88369861  1.00647649  0.99181287  1
  O  O403  1  0.11356604  0.00909037  -0.00335334  1
  O  O404  1  0.11563244  0.00939735  0.50226867  1
  O  O405  1  0.12611032  0.50760819  -0.04314739  1
  O  O406  1  0.11857430  0.50704466  0.50224119  1
  O  O407  1  0.61917265  0.00645737  0.00243444  1
  O  O408  1  0.60439556  -0.00119079  0.49628404  1
  O  O409  1  0.62599448  0.50720084  0.00613217  1
  O  O410  1  0.61444207  0.49096695  0.50708236  1
  O  O411  1  0.37710502  0.37232615  0.10205750  1
  O  O412  1  0.37426321  0.37588595  0.61402345  1
  O  O413  1  0.37323422  0.86871958  0.11538464  1
  O  O414  1  0.36711943  0.86857776  0.61891453  1
  O  O415  1  0.86993905  0.36492844  0.12116665  1
  O  O416  1  0.89225877  0.36745653  0.61619334  1
  O  O417  1  0.86699877  0.86168677  0.13501191  1
  O  O418  1  0.86844422  0.86930352  0.62470455  1
  O  O419  1  0.12759313  0.13432850  0.37901165  1
  O  O420  1  0.13054410  0.12149204  0.87812327  1
  O  O421  1  0.13343639  0.62702749  0.37944497  1
  O  O422  1  0.12805661  0.64340515  0.85867971  1
  O  O423  1  0.62513629  0.14047432  0.39656626  1
  O  O424  1  0.63010719  0.13508448  0.88898813  1
  O  O425  1  0.63165601  0.63208283  0.37558548  1
  O  O426  1  0.62874492  0.62724490  0.88403600  1
