# generated using pymatgen
data_V85Zn86O256
_symmetry_space_group_name_H-M   'P 1'
_cell_length_a   16.92812977
_cell_length_b   16.92865190
_cell_length_c   16.91807483
_cell_angle_alpha   89.99915723
_cell_angle_beta   90.04464054
_cell_angle_gamma   90.01750812
_symmetry_Int_Tables_number   1
_chemical_formula_structural   V85Zn86O256
_chemical_formula_sum   'V85 Zn86 O256'
_cell_volume   4848.21804673
_cell_formula_units_Z   1
loop_
 _symmetry_equiv_pos_site_id
 _symmetry_equiv_pos_as_xyz
  1  'x, y, z'
loop_
 _atom_site_type_symbol
 _atom_site_label
 _atom_site_symmetry_multiplicity
 _atom_site_fract_x
 _atom_site_fract_y
 _atom_site_fract_z
 _atom_site_occupancy
  V  V0  1  0.37538262  0.25215699  0.12726989  1
  V  V1  1  0.13025787  0.39432928  0.74414192  1
  V  V2  1  0.50087347  0.26270671  0.75286506  1
  V  V3  1  0.62325886  0.12927715  0.49857054  1
  V  V4  1  0.87584818  0.38490164  0.50160308  1
  V  V5  1  0.37530491  0.12463596  0.75024140  1
  V  V6  1  0.74961318  0.74900623  0.00410077  1
  V  V7  1  0.62427007  -0.00314642  0.12632098  1
  V  V8  1  0.11970241  0.87921195  0.24733103  1
  V  V9  1  0.73419451  0.26455709  0.01630846  1
  V  V10  1  0.12091236  0.86825500  0.74657168  1
  V  V11  1  0.25157247  0.38158269  0.12153459  1
  V  V12  1  -0.00071484  0.00018097  0.50123869  1
  V  V13  1  0.73303086  0.49552586  0.75033107  1
  V  V14  1  0.62053597  0.26786588  0.87228110  1
  V  V15  1  0.87465075  0.00105385  0.37896084  1
  V  V16  1  0.88101570  0.13346162  0.75294649  1
  V  V17  1  0.12543782  0.38721917  0.24397521  1
  V  V18  1  0.49159271  0.74697554  0.25134017  1
  V  V19  1  0.74904176  0.12990285  0.87863012  1
  V  V20  1  0.75144360  0.12841264  0.37669898  1
  V  V21  1  0.00043310  0.37338574  0.86707084  1
  V  V22  1  0.50182810  0.37237535  0.36012048  1
  V  V23  1  0.38551143  0.74486745  0.62518255  1
  V  V24  1  0.00515797  -0.00229629  0.00345048  1
  V  V25  1  0.38174103  0.62173883  0.75045350  1
  V  V26  1  0.25317735  0.25473942  -0.00206620  1
  V  V27  1  0.61849441  0.87196940  0.25687964  1
  V  V28  1  0.00181942  0.11975825  0.12669836  1
  V  V29  1  0.25049620  0.74002749  0.50185672  1
  V  V30  1  0.62177977  0.74510805  0.37841077  1
  V  V31  1  0.62294236  0.12113746  -0.00333536  1
  V  V32  1  0.25220041  0.62530907  0.87183542  1
  V  V33  1  0.49133447  0.61825445  0.12875005  1
  V  V34  1  0.87811089  0.25887155  0.62971828  1
  V  V35  1  0.75516168  0.86292577  0.62654517  1
  V  V36  1  0.49885868  0.87212853  0.87504001  1
  V  V37  1  0.49562870  0.48825509  -0.00467042  1
  V  V38  1  0.01174156  0.63055466  0.62155834  1
  V  V39  1  0.50139237  -0.00781794  0.49577912  1
  V  V40  1  0.87570480  0.87479308  0.00472465  1
  V  V41  1  0.24730676  0.00041690  0.24463413  1
  V  V42  1  0.63168513  0.62199201  0.51743832  1
  V  V43  1  0.00733781  0.38633254  0.38033168  1
  V  V44  1  -0.00068601  0.73667970  0.25650880  1
  V  V45  1  -0.00046069  0.12902860  0.62964094  1
  V  V46  1  0.62271253  0.61871238  0.00740086  1
  V  V47  1  0.12844369  0.25104496  0.37226050  1
  V  V48  1  0.38746387  0.51326726  0.36837372  1
  V  V49  1  0.00258211  0.25229487  0.24909662  1
  V  V50  1  0.87797195  0.74234088  0.13267730  1
  V  V51  1  0.62651328  0.00346926  0.62488539  1
  V  V52  1  0.74891262  -0.00290687  0.25215743  1
  V  V53  1  0.37161212  -0.00199382  0.87586217  1
  V  V54  1  0.73616890  0.37986285  0.62761723  1
  V  V55  1  0.12496661  -0.00077669  0.62577356  1
  V  V56  1  0.62369155  0.25460209  0.36225442  1
  V  V57  1  0.37748384  -0.00602347  0.37327645  1
  V  V58  1  0.75065245  0.00687526  0.74993412  1
  V  V59  1  0.75045913  0.62726951  0.36630818  1
  V  V60  1  0.36912999  0.86389293  0.00019770  1
  V  V61  1  0.87166972  0.86316504  0.50392328  1
  V  V62  1  0.38057005  0.12867819  0.25006593  1
  V  V63  1  0.12999132  0.74924584  0.87946884  1
  V  V64  1  0.87400441  0.25274531  0.12520959  1
  V  V65  1  0.25353202  0.87387568  0.62211520  1
  V  V66  1  -0.00097743  0.86865162  0.87187118  1
  V  V67  1  0.86987018  0.37866631  0.00077386  1
  V  V68  1  0.12140771  0.24792381  0.86419329  1
  V  V69  1  0.12635279  0.12562876  0.00301927  1
  V  V70  1  0.62388689  0.74797634  0.87660669  1
  V  V71  1  0.37049825  0.48447055  0.87400541  1
  V  V72  1  0.12570969  0.75000507  0.38200020  1
  V  V73  1  0.87817400  0.50412128  0.86484915  1
  V  V74  1  0.62423961  0.87816024  0.75195290  1
  V  V75  1  0.86745424  0.50140766  0.36368719  1
  V  V76  1  0.12986899  0.62433756  0.00625139  1
  V  V77  1  0.75374139  0.62059828  0.87227896  1
  V  V78  1  0.12513009  0.12714859  0.49964643  1
  V  V79  1  0.49879166  0.12644071  0.62544916  1
  V  V80  1  0.50614522  0.50102609  0.51541093  1
  V  V81  1  0.00666191  0.49989878  0.00447138  1
  V  V82  1  0.24412706  0.86979881  0.12194190  1
  V  V83  1  0.25845699  0.50745155  0.24888872  1
  V  V84  1  0.49718409  -0.00248365  0.00214832  1
  Zn  Zn85  1  0.36880707  0.74533412  0.12651072  1
  Zn  Zn86  1  0.00620972  0.61674222  0.13394615  1
  Zn  Zn87  1  0.63337264  0.37153744  0.21727305  1
  Zn  Zn88  1  0.51008939  0.74190609  0.74113155  1
  Zn  Zn89  1  0.87608930  0.00326838  0.87716245  1
  Zn  Zn90  1  0.37969640  0.37107264  0.49961356  1
  Zn  Zn91  1  0.49949488  0.12681382  0.12738901  1
  Zn  Zn92  1  0.25163122  0.38237793  0.61862457  1
  Zn  Zn93  1  0.38143367  0.87051755  0.49681976  1
  Zn  Zn94  1  0.74320430  0.49281776  0.23097979  1
  Zn  Zn95  1  0.74924213  0.87191172  0.12895975  1
  Zn  Zn96  1  0.04488405  0.50506137  0.52266033  1
  Zn  Zn97  1  0.25902053  0.63068495  0.36967094  1
  Zn  Zn98  1  0.37198169  0.25529457  0.62401450  1
  Zn  Zn99  1  0.24895018  0.12455150  0.87478990  1
  Zn  Zn100  1  0.25011213  0.12284920  0.37387105  1
  Zn  Zn101  1  0.24936231  -0.00022149  0.74917531  1
  Zn  Zn102  1  0.87646369  0.12568099  0.25115156  1
  Zn  Zn103  1  0.25640719  0.24909270  0.50255319  1
  Zn  Zn104  1  -0.09802015  0.69603405  0.70702492  1
  Zn  Zn105  1  0.74982221  0.25642038  0.50077821  1
  Zn  Zn106  1  -0.00202918  0.87258094  0.37652016  1
  Zn  Zn107  1  0.18994598  0.18846126  0.18580330  1
  Zn  Zn108  1  0.19192069  0.19070702  0.68512064  1
  Zn  Zn109  1  0.18462994  0.69036325  0.19088618  1
  Zn  Zn110  1  0.19228659  0.68606421  0.69104835  1
  Zn  Zn111  1  0.68711086  0.18365889  0.18779382  1
  Zn  Zn112  1  0.68838240  0.19484655  0.68789312  1
  Zn  Zn113  1  0.68511010  0.68439320  0.18879335  1
  Zn  Zn114  1  0.71421974  0.69816913  0.69408754  1
  Zn  Zn115  1  0.31148842  0.31737141  0.31506363  1
  Zn  Zn116  1  0.30621364  0.31018311  0.80599378  1
  Zn  Zn117  1  0.31121027  0.81651630  0.31253922  1
  Zn  Zn118  1  0.31052504  0.80796779  0.80809155  1
  Zn  Zn119  1  0.81361167  0.31558472  0.30999200  1
  Zn  Zn120  1  0.80721122  0.31672123  0.81681891  1
  Zn  Zn121  1  0.81044701  0.81045056  0.31606936  1
  Zn  Zn122  1  0.80734366  0.81828922  0.81949501  1
  Zn  Zn123  1  0.21032601  0.45965691  0.46722608  1
  Zn  Zn124  1  0.18757658  0.43794911  0.93331634  1
  Zn  Zn125  1  0.18951405  0.93499094  0.43625751  1
  Zn  Zn126  1  0.18632259  0.93724351  0.93834904  1
  Zn  Zn127  1  0.68682099  0.43970182  0.43581539  1
  Zn  Zn128  1  0.68359133  0.44261641  1.06221756  1
  Zn  Zn129  1  0.68760836  0.93452856  0.43800105  1
  Zn  Zn130  1  0.69074628  0.93821283  0.93754844  1
  Zn  Zn131  1  0.30992199  0.06035900  0.06417770  1
  Zn  Zn132  1  0.31281637  0.06338162  0.56137764  1
  Zn  Zn133  1  0.31210302  0.56146267  0.05661057  1
  Zn  Zn134  1  0.31832289  0.55858190  0.56550756  1
  Zn  Zn135  1  0.81231057  0.06462546  0.06440857  1
  Zn  Zn136  1  0.81255361  0.06452972  0.56432546  1
  Zn  Zn137  1  0.82202119  0.56697655  0.05553349  1
  Zn  Zn138  1  0.81352642  0.56593883  0.56382496  1
  Zn  Zn139  1  0.43955260  0.43570348  0.18564383  1
  Zn  Zn140  1  0.43379745  0.43785950  0.68973501  1
  Zn  Zn141  1  0.43617831  0.93450629  0.18720453  1
  Zn  Zn142  1  0.43902031  0.93615295  0.68677042  1
  Zn  Zn143  1  0.93393967  0.43824230  0.18689016  1
  Zn  Zn144  1  0.94184846  0.44739366  0.68468687  1
  Zn  Zn145  1  0.93785215  0.93586212  0.18966588  1
  Zn  Zn146  1  0.93605989  0.93842236  0.68859872  1
  Zn  Zn147  1  0.06181224  0.06111671  0.31284846  1
  Zn  Zn148  1  0.06184316  0.05729005  0.81543897  1
  Zn  Zn149  1  0.07768014  0.55479461  0.33919545  1
  Zn  Zn150  1  0.05545280  0.57150981  0.80633397  1
  Zn  Zn151  1  0.56092885  0.06293938  0.31350001  1
  Zn  Zn152  1  0.55832428  0.06424594  0.81403026  1
  Zn  Zn153  1  0.57503526  0.55373661  0.30247754  1
  Zn  Zn154  1  0.56009933  0.55963993  0.81808250  1
  Zn  Zn155  1  0.43846891  0.18555141  0.43387084  1
  Zn  Zn156  1  0.43689837  0.18873970  0.93713718  1
  Zn  Zn157  1  0.44632991  0.68528487  0.44372131  1
  Zn  Zn158  1  0.43849261  0.68304840  0.93705066  1
  Zn  Zn159  1  0.93868562  0.19486495  0.44090499  1
  Zn  Zn160  1  0.93636895  0.19223496  0.94061876  1
  Zn  Zn161  1  0.93750781  0.67896576  0.44714100  1
  Zn  Zn162  1  0.94048377  0.68720088  0.93958537  1
  Zn  Zn163  1  0.06383161  0.31276148  0.05987873  1
  Zn  Zn164  1  0.06221448  0.31174924  0.56390557  1
  Zn  Zn165  1  0.06360710  0.80750844  0.06551353  1
  Zn  Zn166  1  0.05693915  0.80466181  0.56504651  1
  Zn  Zn167  1  0.55247773  0.30681620  0.05597089  1
  Zn  Zn168  1  0.55581796  0.31264583  0.55830571  1
  Zn  Zn169  1  0.55989094  0.80965448  0.06657857  1
  Zn  Zn170  1  0.57410117  0.80983656  0.56354242  1
  O  O171  1  0.11686814  0.13144047  0.11173114  1
  O  O172  1  0.11940932  0.12110185  0.61992680  1
  O  O173  1  0.12471288  0.63214728  0.11038344  1
  O  O174  1  0.11404122  0.63468389  0.63059535  1
  O  O175  1  0.62209154  0.11904943  0.11402530  1
  O  O176  1  0.62276839  0.12353633  0.61687546  1
  O  O177  1  0.61452903  0.63214605  0.11194331  1
  O  O178  1  0.63772990  0.63395759  0.61484046  1
  O  O179  1  0.39200072  0.38226017  0.37111393  1
  O  O180  1  0.36748781  0.38584309  0.87098923  1
  O  O181  1  0.37403375  0.88923848  0.37733821  1
  O  O182  1  0.37641919  0.87901280  0.87950454  1
  O  O183  1  0.88354104  0.37918676  0.38346435  1
  O  O184  1  0.88356387  0.37982821  0.88109864  1
  O  O185  1  0.87198582  0.88435418  0.38702651  1
  O  O186  1  0.88079001  0.87536482  0.88685546  1
  O  O187  1  0.25698695  0.00045305  0.36421461  1
  O  O188  1  0.26073927  0.00013357  0.87315158  1
  O  O189  1  0.27388642  0.50472084  0.36752111  1
  O  O190  1  0.26441896  0.50674673  0.87921779  1
  O  O191  1  0.75575073  0.00767260  0.37297238  1
  O  O192  1  0.75395873  0.00907832  0.86853398  1
  O  O193  1  0.75271956  0.51056487  0.37306259  1
  O  O194  1  0.75936203  0.50746472  0.86524769  1
  O  O195  1  0.25935924  0.48965746  0.13095379  1
  O  O196  1  0.23356314  0.48990748  0.57974753  1
  O  O197  1  0.25357087  0.98904899  0.13774656  1
  O  O198  1  0.24312419  0.99196113  0.62495260  1
  O  O199  1  0.75887214  0.50242390  0.11717205  1
  O  O200  1  0.75333098  0.49462182  0.64250493  1
  O  O201  1  0.74380233  0.99924590  0.13397622  1
  O  O202  1  0.74478894  0.99977691  0.63376355  1
  O  O203  1  0.00855023  0.37187754  0.25243805  1
  O  O204  1  0.00703738  0.38035273  0.76255544  1
  O  O205  1  0.00737925  0.87030048  0.25415000  1
  O  O206  1  0.00627922  0.87961355  0.75943569  1
  O  O207  1  0.50839444  0.37287632  0.25723824  1
  O  O208  1  0.49872797  0.36135080  0.75021437  1
  O  O209  1  0.51152159  0.86522479  0.24558256  1
  O  O210  1  0.50779430  0.87243994  0.75778289  1
  O  O211  1  0.48528508  0.12031321  0.24733909  1
  O  O212  1  0.49032386  0.12887883  0.74629084  1
  O  O213  1  0.50747114  0.62963120  0.23319408  1
  O  O214  1  0.48817310  0.62762171  0.75853259  1
  O  O215  1  1.00089976  0.13057851  0.24175136  1
  O  O216  1  0.98702190  0.11890047  0.74873824  1
  O  O217  1  1.01078710  0.63490290  0.25446431  1
  O  O218  1  0.99035822  0.62995802  0.73727880  1
  O  O219  1  0.35937746  0.24248866  0.00494486  1
  O  O220  1  0.37806966  0.24737454  0.50412506  1
  O  O221  1  0.37723106  0.76175052  -0.00121117  1
  O  O222  1  0.37210163  0.75142502  0.50669790  1
  O  O223  1  0.86608266  0.25897141  0.00734297  1
  O  O224  1  0.87311947  0.26401480  0.50882292  1
  O  O225  1  0.87164240  0.75776055  0.00741625  1
  O  O226  1  0.87250413  0.76556916  0.49279312  1
  O  O227  1  0.12204842  0.24227233  0.49029939  1
  O  O228  1  0.13351811  0.24312889  0.99264392  1
  O  O229  1  0.13687454  0.76191675  0.49263918  1
  O  O230  1  0.11956808  0.74204425  0.98760375  1
  O  O231  1  0.62502446  0.23852037  0.49304126  1
  O  O232  1  0.61938652  0.23731731  0.98569251  1
  O  O233  1  0.61358956  0.73293516  0.48774319  1
  O  O234  1  0.62998852  0.74514987  0.99550975  1
  O  O235  1  0.48023260  0.24500144  0.11790488  1
  O  O236  1  0.50237506  0.24314983  0.63777406  1
  O  O237  1  0.49546226  0.73900338  0.13216340  1
  O  O238  1  0.48949164  0.75612679  0.62374099  1
  O  O239  1  0.99342480  0.24051800  0.12638945  1
  O  O240  1  0.98609975  0.24430651  0.62332653  1
  O  O241  1  0.99486688  0.74815986  0.13778144  1
  O  O242  1  0.99238113  0.73856489  0.62749936  1
  O  O243  1  0.00716604  0.26003141  0.36970700  1
  O  O244  1  0.00932484  0.26147862  0.88398578  1
  O  O245  1  0.00640785  0.75107286  0.37355042  1
  O  O246  1  0.00530078  0.76264072  0.87811934  1
  O  O247  1  0.50800453  0.26340464  0.37726695  1
  O  O248  1  0.51006692  0.24495325  0.86555083  1
  O  O249  1  0.51019605  0.74125198  0.36415812  1
  O  O250  1  0.51266389  0.75397085  0.87744619  1
  O  O251  1  0.23604640  0.12498575  0.49756545  1
  O  O252  1  0.24029514  0.12898889  0.99898402  1
  O  O253  1  0.25820000  0.63875409  0.49465252  1
  O  O254  1  0.24121555  0.62146631  0.98745390  1
  O  O255  1  0.74280345  0.12592841  0.49082887  1
  O  O256  1  0.74056726  0.13364647  0.99859875  1
  O  O257  1  0.73475688  0.61674038  0.49048168  1
  O  O258  1  0.74157333  0.62902428  0.99098561  1
  O  O259  1  0.24181578  0.36706949  0.00912813  1
  O  O260  1  0.26349697  0.36313463  0.48550616  1
  O  O261  1  0.25606245  0.88114874  0.00979339  1
  O  O262  1  0.25418158  0.87114579  0.51191359  1
  O  O263  1  0.76581876  0.37541879  -0.00840289  1
  O  O264  1  0.75688056  0.37742556  0.50931730  1
  O  O265  1  0.75984015  0.86991497  0.00303374  1
  O  O266  1  0.76548893  0.88955161  0.51102368  1
  O  O267  1  0.13520608  0.49114774  0.25446489  1
  O  O268  1  0.12576535  0.49231655  0.75706545  1
  O  O269  1  0.13181718  0.98919766  0.25534356  1
  O  O270  1  0.12696499  0.98902206  0.74529759  1
  O  O271  1  0.62579456  0.48831959  0.22935351  1
  O  O272  1  0.63436647  0.49717989  0.75687534  1
  O  O273  1  0.62711974  0.99170319  0.24866447  1
  O  O274  1  0.63167506  1.00095421  0.74719394  1
  O  O275  1  0.36868377  0.00396462  0.25528590  1
  O  O276  1  0.37539708  0.00514592  0.75858786  1
  O  O277  1  0.37381728  0.49799734  0.25898846  1
  O  O278  1  0.38096738  0.50678965  0.76557569  1
  O  O279  1  0.87057253  0.00004498  0.26352948  1
  O  O280  1  0.86573462  0.01030214  0.75221641  1
  O  O281  1  0.86699194  0.49542216  0.26040048  1
  O  O282  1  0.87070344  0.49440877  0.76317243  1
  O  O283  1  0.11728795  0.36261867  0.35962247  1
  O  O284  1  0.11975145  0.36778781  0.86486320  1
  O  O285  1  0.12341235  0.86804844  0.36685429  1
  O  O286  1  0.11870554  0.86992691  0.86971173  1
  O  O287  1  0.61440442  0.36634205  0.38081299  1
  O  O288  1  0.62337050  0.36228783  0.87975191  1
  O  O289  1  0.63080817  0.86093614  0.36925720  1
  O  O290  1  0.62215454  0.86853674  0.87215698  1
  O  O291  1  0.37212180  0.13055622  0.13316979  1
  O  O292  1  0.38146322  0.12369993  0.63445281  1
  O  O293  1  0.38741984  0.62839412  0.11781785  1
  O  O294  1  0.37143074  0.63241297  0.63592896  1
  O  O295  1  0.88639265  0.13083149  0.12674083  1
  O  O296  1  0.87797924  0.13508791  0.63328689  1
  O  O297  1  0.88550572  0.63989462  0.11913523  1
  O  O298  1  0.89003648  0.62382962  0.61741200  1
  O  O299  1  0.25581820  0.25745905  0.11715331  1
  O  O300  1  0.25193119  0.25916005  0.62146120  1
  O  O301  1  0.25214235  0.76419206  0.13225965  1
  O  O302  1  0.25969470  0.75590869  0.61951176  1
  O  O303  1  0.76842240  0.23528172  0.12532266  1
  O  O304  1  0.76116151  0.25987613  0.62476197  1
  O  O305  1  0.75866882  0.74903583  0.12229748  1
  O  O306  1  0.72434778  0.77128174  0.60294533  1
  O  O307  1  0.23610891  0.24456049  0.36954685  1
  O  O308  1  0.24127384  0.24718953  0.88158861  1
  O  O309  1  0.24707108  0.75489656  0.38482509  1
  O  O310  1  0.24057775  0.74289861  0.87441638  1
  O  O311  1  0.74368295  0.24229077  0.37891574  1
  O  O312  1  0.73525776  0.24822030  0.88380169  1
  O  O313  1  0.74189684  0.73542190  0.37271829  1
  O  O314  1  0.74010226  0.74410675  0.88475895  1
  O  O315  1  0.00393231  0.11756351  0.00583834  1
  O  O316  1  0.00868716  0.12182489  0.50606881  1
  O  O317  1  0.01059199  0.61585475  -0.00169793  1
  O  O318  1  0.00960538  0.62244949  0.51133949  1
  O  O319  1  0.50644650  0.11545791  -0.00034052  1
  O  O320  1  0.50864012  0.11687746  0.50427361  1
  O  O321  1  0.50590445  0.62042333  0.00869960  1
  O  O322  1  0.51555048  0.61014910  0.49882988  1
  O  O323  1  0.50179397  0.38933533  0.48984778  1
  O  O324  1  0.49561481  0.38966877  1.00306583  1
  O  O325  1  0.50447612  0.88928073  0.50649060  1
  O  O326  1  0.49183473  0.87894123  0.99529029  1
  O  O327  1  0.99556668  0.37967548  0.49341630  1
  O  O328  1  0.99715412  0.38227292  0.99053162  1
  O  O329  1  0.98638195  0.88173518  0.50133142  1
  O  O330  1  0.99541365  0.88069313  0.99775001  1
  O  O331  1  0.49860532  0.49112131  0.37076023  1
  O  O332  1  0.48749303  0.50249454  0.88762564  1
  O  O333  1  0.49214509  1.00426521  0.38434694  1
  O  O334  1  0.48916182  0.99227767  0.88014331  1
  O  O335  1  0.98312411  0.48868607  0.36069064  1
  O  O336  1  0.99487081  0.49501687  0.88083928  1
  O  O337  1  0.99054163  0.99844025  0.38142343  1
  O  O338  1  0.99678221  0.98757913  0.88496633  1
  O  O339  1  -0.00388973  0.01092427  0.11979795  1
  O  O340  1  0.00492285  0.00809729  0.62076230  1
  O  O341  1  -0.00523878  0.50073203  0.11022420  1
  O  O342  1  0.00766937  0.51489379  0.62527535  1
  O  O343  1  0.50593961  0.00033691  0.11891460  1
  O  O344  1  0.50703516  0.00748962  0.61965914  1
  O  O345  1  0.49043074  0.51067973  0.11207509  1
  O  O346  1  0.50019471  0.49733448  0.61361996  1
  O  O347  1  0.24417479  0.38549148  0.24374435  1
  O  O348  1  0.23325955  0.37577778  0.74715511  1
  O  O349  1  0.24147163  0.88147599  0.24357221  1
  O  O350  1  0.24280504  0.87556468  0.73742235  1
  O  O351  1  0.74068572  0.37821029  0.25834276  1
  O  O352  1  0.75047839  0.38750204  0.74525708  1
  O  O353  1  0.73912569  0.87951732  0.25089872  1
  O  O354  1  0.74398436  0.89366571  0.74599913  1
  O  O355  1  0.25539042  0.11477340  0.24872129  1
  O  O356  1  0.26315022  0.12262105  0.75211055  1
  O  O357  1  0.24844082  0.61130996  0.24583848  1
  O  O358  1  0.26197101  0.62829356  0.76311517  1
  O  O359  1  0.75110612  0.11764446  0.26321167  1
  O  O360  1  0.75644503  0.12125835  0.75482100  1
  O  O361  1  0.74688376  0.62087733  0.26289490  1
  O  O362  1  0.74343846  0.61119629  0.76374413  1
  O  O363  1  0.37192613  0.11517911  0.36645307  1
  O  O364  1  0.37488391  0.11469214  0.86905525  1
  O  O365  1  0.38322811  0.61616160  0.37152576  1
  O  O366  1  0.36736892  0.62298477  0.87014371  1
  O  O367  1  0.86807217  0.12148991  0.37680846  1
  O  O368  1  0.86854347  0.12879713  0.86994092  1
  O  O369  1  0.86015404  0.61603438  0.38331657  1
  O  O370  1  0.86573191  0.61869495  0.88130612  1
  O  O371  1  0.13473089  0.36762973  0.13538437  1
  O  O372  1  0.11603475  0.37288187  0.64346591  1
  O  O373  1  0.13049048  0.87323674  0.13347313  1
  O  O374  1  0.12873910  0.87737270  0.63105283  1
  O  O375  1  0.64991153  0.34010141  0.10031140  1
  O  O376  1  0.63796225  0.36581671  0.62024491  1
  O  O377  1  0.62715350  0.87998085  0.13354634  1
  O  O378  1  0.63026460  0.88657167  0.63319498  1
  O  O379  1  0.11976558  0.25310691  0.25427202  1
  O  O380  1  0.12395185  0.24481215  0.76289877  1
  O  O381  1  0.11732013  0.76231275  0.25652933  1
  O  O382  1  0.12962701  0.76305801  0.76079177  1
  O  O383  1  0.62462046  0.24774719  0.25960771  1
  O  O384  1  0.61543237  0.24416072  0.76365271  1
  O  O385  1  0.61747460  0.75489068  0.25666994  1
  O  O386  1  0.62821965  0.75685603  0.76045630  1
  O  O387  1  0.36415098  0.23924939  0.24185561  1
  O  O388  1  0.38513341  0.24160383  0.75277049  1
  O  O389  1  0.38831744  0.75639459  0.25063383  1
  O  O390  1  0.37987785  0.74246582  0.74183381  1
  O  O391  1  0.88491940  0.24888718  0.24348519  1
  O  O392  1  0.86813619  0.24382469  0.74500155  1
  O  O393  1  0.88587552  0.75754896  0.24462072  1
  O  O394  1  0.81548373  0.75842952  0.72679462  1
  O  O395  1  0.39504372  0.50424384  0.48528405  1
  O  O396  1  0.38491479  0.50373631  0.98626474  1
  O  O397  1  0.38425229  1.00034010  0.49239490  1
  O  O398  1  0.37777629  0.99251184  0.99292648  1
  O  O399  1  0.87003574  0.48927241  0.48846988  1
  O  O400  1  0.88550572  0.49382511  0.98727350  1
  O  O401  1  0.88019333  1.00215118  0.49124033  1
  O  O402  1  0.88441047  0.99276182  1.00136408  1
  O  O403  1  0.11246281  0.00740169  -0.00367276  1
  O  O404  1  0.11918080  0.00565579  0.50416932  1
  O  O405  1  0.11704387  0.50962055  -0.00800950  1
  O  O406  1  0.11005899  0.49511752  0.43591613  1
  O  O407  1  0.62047578  0.00316467  0.00512213  1
  O  O408  1  0.62044555  0.01052944  0.50116180  1
  O  O409  1  0.60845726  0.50765499  -0.00191646  1
  O  O410  1  0.61642348  0.50955973  0.50035910  1
  O  O411  1  0.36395919  0.36476748  0.13148787  1
  O  O412  1  0.37275362  0.37446444  0.62098732  1
  O  O413  1  0.36672694  0.87295338  0.11558471  1
  O  O414  1  0.36802080  0.86749368  0.62461225  1
  O  O415  1  0.88431717  0.36389022  0.11336294  1
  O  O416  1  0.87325637  0.37327152  0.62065682  1
  O  O417  1  0.87515076  0.86742284  0.11652017  1
  O  O418  1  0.86890094  0.88057195  0.61385575  1
  O  O419  1  0.12256053  0.13156155  0.38309154  1
  O  O420  1  0.12247426  0.13003930  0.88542762  1
  O  O421  1  0.13821540  0.64783287  0.36604565  1
  O  O422  1  0.13088855  0.63320399  0.87677276  1
  O  O423  1  0.63066289  0.13151150  0.38008118  1
  O  O424  1  0.63018415  0.12065859  0.88619109  1
  O  O425  1  0.63470625  0.62833523  0.37504562  1
  O  O426  1  0.62933474  0.63153998  0.88547043  1
