# generated using pymatgen
data_V85Zn86O256
_symmetry_space_group_name_H-M   'P 1'
_cell_length_a   16.95516586
_cell_length_b   16.96115710
_cell_length_c   16.95504452
_cell_angle_alpha   89.92082336
_cell_angle_beta   89.99284635
_cell_angle_gamma   89.95290798
_symmetry_Int_Tables_number   1
_chemical_formula_structural   V85Zn86O256
_chemical_formula_sum   'V85 Zn86 O256'
_cell_volume   4875.91233961
_cell_formula_units_Z   1
loop_
 _symmetry_equiv_pos_site_id
 _symmetry_equiv_pos_as_xyz
  1  'x, y, z'
loop_
 _atom_site_type_symbol
 _atom_site_label
 _atom_site_symmetry_multiplicity
 _atom_site_fract_x
 _atom_site_fract_y
 _atom_site_fract_z
 _atom_site_occupancy
  V  V0  1  0.38657992  0.74828458  0.12584784  1
  V  V1  1  0.00100485  0.62523217  0.12432542  1
  V  V2  1  0.61488674  0.12946925  0.49169056  1
  V  V3  1  0.12460349  -0.00062908  0.12267153  1
  V  V4  1  0.24781102  0.00185230  0.25152401  1
  V  V5  1  0.49490117  0.00322383  -0.00432446  1
  V  V6  1  0.62309409  0.87777202  0.74558272  1
  V  V7  1  0.87408357  0.25298772  0.12563738  1
  V  V8  1  0.49406206  -0.01523487  0.49924985  1
  V  V9  1  0.83491789  0.67975986  0.69511777  1
  V  V10  1  0.49672374  0.62422482  0.62256395  1
  V  V11  1  0.62035455  0.01387326  0.62816496  1
  V  V12  1  0.62238343  0.75053487  0.88032323  1
  V  V13  1  0.26274118  0.11394556  0.87449306  1
  V  V14  1  0.62300767  0.37473010  0.74940828  1
  V  V15  1  0.25527731  0.25775328  -0.00179537  1
  V  V16  1  0.63684771  0.63134834  0.49510550  1
  V  V17  1  0.00117667  0.88955973  0.86843192  1
  V  V18  1  0.25199302  0.74804661  0.00375626  1
  V  V19  1  0.37339723  0.12469282  0.25660159  1
  V  V20  1  0.12662491  0.62015956  0.49881636  1
  V  V21  1  0.14066703  0.87877612  0.74527572  1
  V  V22  1  -0.00016646  0.12500250  0.12597051  1
  V  V23  1  0.26152091  0.62269484  0.37506236  1
  V  V24  1  0.37129238  0.75196232  0.61066135  1
  V  V25  1  0.12489714  0.49519470  0.61964251  1
  V  V26  1  0.74021845  0.37750803  0.12618290  1
  V  V27  1  0.49743339  0.37701239  0.88840517  1
  V  V28  1  0.37516494  0.62355619  0.74981662  1
  V  V29  1  0.49667528  0.49990409  0.48947928  1
  V  V30  1  0.00273630  0.74739626  0.75058759  1
  V  V31  1  0.75175923  0.24234360  0.49057178  1
  V  V32  1  0.12076384  0.87486473  0.24807868  1
  V  V33  1  0.49892020  0.60833106  0.13146977  1
  V  V34  1  0.75046441  0.87956008  0.12139831  1
  V  V35  1  0.00308957  0.61816219  0.62768621  1
  V  V36  1  0.75434226  0.00026327  0.75150187  1
  V  V37  1  0.37470073  0.37423423  0.48979520  1
  V  V38  1  0.62376096  0.49786590  0.62072889  1
  V  V39  1  0.25307794  0.87467990  0.60280612  1
  V  V40  1  0.00097008  0.49872580  0.00157147  1
  V  V41  1  0.24554769  0.37382647  0.13092836  1
  V  V42  1  0.75302370  0.49929483  0.74803505  1
  V  V43  1  0.49634179  0.87841554  0.87478769  1
  V  V44  1  0.49933872  0.25197558  0.25541386  1
  V  V45  1  0.00173198  0.01092944  0.50005622  1
  V  V46  1  0.75181366  0.62509104  0.87636239  1
  V  V47  1  0.62481965  0.24829407  0.87266451  1
  V  V48  1  0.87771895  0.50352412  0.87043721  1
  V  V49  1  0.12876722  0.25152341  0.87488752  1
  V  V50  1  0.00407053  0.74989074  0.24954270  1
  V  V51  1  0.24850500  0.24049445  0.50298105  1
  V  V52  1  0.87605350  0.75049145  0.12158124  1
  V  V53  1  0.74980165  0.25047146  -0.00119794  1
  V  V54  1  0.00143950  0.25089113  0.74918588  1
  V  V55  1  0.12363379  0.49748699  0.13704915  1
  V  V56  1  0.64049666  0.74347083  0.36156125  1
  V  V57  1  0.37246378  0.87984644  -0.00299771  1
  V  V58  1  0.87556764  0.12313781  0.75772865  1
  V  V59  1  0.37467678  0.25333263  0.12462970  1
  V  V60  1  0.86314553  0.12095280  0.25450370  1
  V  V61  1  0.68511436  0.93326570  0.29770672  1
  V  V62  1  0.00716022  0.38061410  0.37953436  1
  V  V63  1  0.26493892  0.49872463  0.25740665  1
  V  V64  1  0.87707126  0.88321934  -0.00694166  1
  V  V65  1  0.86925558  0.49970316  0.37943698  1
  V  V66  1  0.12627312  0.74886277  0.87702981  1
  V  V67  1  0.49510765  0.75118591  0.74937918  1
  V  V68  1  0.37819083  0.49629112  0.88975696  1
  V  V69  1  0.62512912  -0.00365697  0.12441524  1
  V  V70  1  0.87313086  0.24727102  0.62445368  1
  V  V71  1  0.62493182  0.12397506  -0.00044067  1
  V  V72  1  0.37815332  0.11364633  0.74259825  1
  V  V73  1  0.49135220  0.24912922  0.73932356  1
  V  V74  1  0.00828859  0.25686887  0.24976679  1
  V  V75  1  0.12372493  0.74727867  0.38909183  1
  V  V76  1  0.74738107  0.50712326  0.24586002  1
  V  V77  1  0.61766520  0.60910003  0.00200877  1
  V  V78  1  0.26268653  0.37085005  0.62468606  1
  V  V79  1  0.12665754  0.12578140  -0.00327331  1
  V  V80  1  0.25284939  0.49865808  0.75047993  1
  V  V81  1  0.45334522  0.81181954  0.30266194  1
  V  V82  1  0.12755819  0.37468993  0.75006904  1
  V  V83  1  -0.00502941  0.87618977  0.38325044  1
  V  V84  1  0.25192127  0.62256695  0.87591860  1
  Zn  Zn85  1  0.63297943  0.25066942  0.36780264  1
  Zn  Zn86  1  0.13471097  0.00697713  0.61846409  1
  Zn  Zn87  1  0.01076361  0.12915001  0.61978367  1
  Zn  Zn88  1  0.74968048  0.37160869  0.62213996  1
  Zn  Zn89  1  0.24943868  0.87184503  0.12403630  1
  Zn  Zn90  1  0.74963280  0.74927335  -0.00024082  1
  Zn  Zn91  1  0.76736341  0.85819967  0.63025981  1
  Zn  Zn92  1  0.84710135  0.86991141  0.49048064  1
  Zn  Zn93  1  0.12498990  0.24706767  0.37882143  1
  Zn  Zn94  1  0.62301524  0.37889426  0.25155972  1
  Zn  Zn95  1  0.50083541  0.37876857  0.37127570  1
  Zn  Zn96  1  -0.00316664  0.00632764  -0.00783848  1
  Zn  Zn97  1  0.87383341  0.37703287  -0.00034910  1
  Zn  Zn98  1  0.87352746  0.62635256  0.25598684  1
  Zn  Zn99  1  0.37686887  -0.01436633  0.37815090  1
  Zn  Zn100  1  -0.00034650  0.37514832  0.87676111  1
  Zn  Zn101  1  0.86544756  0.00337857  0.37490768  1
  Zn  Zn102  1  0.75343348  0.11716997  0.87814940  1
  Zn  Zn103  1  0.49884980  0.12573454  0.12611048  1
  Zn  Zn104  1  0.24076695  0.11625159  0.38520787  1
  Zn  Zn105  1  0.87565920  0.37235755  0.50033966  1
  Zn  Zn106  1  0.12775984  0.62186357  0.00150581  1
  Zn  Zn107  1  0.18617632  0.18531211  0.18984289  1
  Zn  Zn108  1  0.19569500  0.18662488  0.68762036  1
  Zn  Zn109  1  0.19098476  0.68252283  0.18955239  1
  Zn  Zn110  1  0.18918354  0.69039160  0.68473302  1
  Zn  Zn111  1  0.68488850  0.18758490  0.18496581  1
  Zn  Zn112  1  0.68952425  0.18713634  0.68696449  1
  Zn  Zn113  1  0.68533928  0.68607267  0.18121246  1
  Zn  Zn114  1  0.66938690  0.68297753  0.69194551  1
  Zn  Zn115  1  0.30932898  0.31253474  0.31526643  1
  Zn  Zn116  1  0.31635714  0.31293523  0.81437206  1
  Zn  Zn117  1  0.29319637  0.81085715  0.31251602  1
  Zn  Zn118  1  0.31565722  0.80907534  0.81487039  1
  Zn  Zn119  1  0.81710157  0.31503714  0.31031127  1
  Zn  Zn120  1  0.81279566  0.31638312  0.81208181  1
  Zn  Zn121  1  0.82005864  0.80712426  0.31329626  1
  Zn  Zn122  1  0.80992555  0.81938384  0.81789872  1
  Zn  Zn123  1  0.18750028  0.43485750  0.43702581  1
  Zn  Zn124  1  0.18775237  0.43776963  0.94103570  1
  Zn  Zn125  1  0.17997439  0.93941489  0.43483360  1
  Zn  Zn126  1  0.18596971  0.93715501  0.93671497  1
  Zn  Zn127  1  0.68825608  0.43088009  0.43543788  1
  Zn  Zn128  1  0.68979512  0.43416247  0.93467493  1
  Zn  Zn129  1  0.67866408  0.93366766  0.45848287  1
  Zn  Zn130  1  0.68640120  0.93706591  0.93620197  1
  Zn  Zn131  1  0.31142380  0.06664536  0.06474578  1
  Zn  Zn132  1  0.31849369  0.05821831  0.56728326  1
  Zn  Zn133  1  0.31355248  0.56357150  0.06858034  1
  Zn  Zn134  1  0.31177288  0.56099639  0.55933725  1
  Zn  Zn135  1  0.81206631  0.06325622  0.06430504  1
  Zn  Zn136  1  0.81261156  0.06019991  0.56342176  1
  Zn  Zn137  1  0.81117573  0.56363842  0.06106065  1
  Zn  Zn138  1  0.81050900  0.55671440  0.55653578  1
  Zn  Zn139  1  0.43571967  0.43355153  0.18359483  1
  Zn  Zn140  1  0.43996169  0.43682072  0.69034506  1
  Zn  Zn141  1  0.43330811  0.94299564  0.17918833  1
  Zn  Zn142  1  0.43520713  0.93782266  0.68060046  1
  Zn  Zn143  1  0.93342868  0.43629351  0.19165488  1
  Zn  Zn144  1  0.93697193  0.43444818  0.68698518  1
  Zn  Zn145  1  0.93629508  0.93956220  0.18786545  1
  Zn  Zn146  1  0.93951305  0.94062548  0.68572123  1
  Zn  Zn147  1  0.06031321  0.06559708  0.31468886  1
  Zn  Zn148  1  0.07749176  0.07212026  0.79412708  1
  Zn  Zn149  1  0.05963294  0.56119522  0.31318549  1
  Zn  Zn150  1  0.06453194  0.56206396  0.81107326  1
  Zn  Zn151  1  0.55428510  0.06657748  0.31828127  1
  Zn  Zn152  1  0.55874585  0.06514515  0.81267002  1
  Zn  Zn153  1  0.56652807  0.56574958  0.31124611  1
  Zn  Zn154  1  0.56064083  0.56043158  0.81398377  1
  Zn  Zn155  1  0.43129469  0.18853403  0.44033077  1
  Zn  Zn156  1  0.43858296  0.19105458  0.93715511  1
  Zn  Zn157  1  0.44578894  0.68607540  0.43669008  1
  Zn  Zn158  1  0.43809471  0.68585791  0.94040102  1
  Zn  Zn159  1  0.93689408  0.18926855  0.43194177  1
  Zn  Zn160  1  0.93836443  0.19015024  0.93666687  1
  Zn  Zn161  1  0.93775183  0.68035934  0.44063313  1
  Zn  Zn162  1  0.93847138  0.68774142  0.93709638  1
  Zn  Zn163  1  0.06473649  0.31402449  0.06265819  1
  Zn  Zn164  1  0.06448552  0.31224911  0.56141418  1
  Zn  Zn165  1  0.06057899  0.81576814  0.05788247  1
  Zn  Zn166  1  -0.03479054  0.80603844  0.56713981  1
  Zn  Zn167  1  0.56143913  0.31067192  0.06538725  1
  Zn  Zn168  1  0.56189483  0.31263992  0.55932280  1
  Zn  Zn169  1  0.56150985  0.81440419  0.06421638  1
  Zn  Zn170  1  0.56982986  0.80898317  0.56121992  1
  O  O171  1  0.11759592  0.12066440  0.11845122  1
  O  O172  1  0.11861085  0.11301609  0.65784665  1
  O  O173  1  0.11848192  0.61654776  0.12325545  1
  O  O174  1  0.12424213  0.61560476  0.62047356  1
  O  O175  1  0.62477455  0.11197678  0.11886735  1
  O  O176  1  0.62183208  0.11710607  0.62277102  1
  O  O177  1  0.61383327  0.62824059  0.10939960  1
  O  O178  1  0.61578426  0.61775885  0.61664751  1
  O  O179  1  0.37710728  0.37636394  0.38644347  1
  O  O180  1  0.38509630  0.38398102  0.87264033  1
  O  O181  1  0.38527186  0.86515332  0.36042478  1
  O  O182  1  0.38033378  0.87005808  0.88890875  1
  O  O183  1  0.88386605  0.38431812  0.37542017  1
  O  O184  1  0.87670493  0.38864985  0.87818415  1
  O  O185  1  0.88244247  0.88269404  0.37190714  1
  O  O186  1  0.88745822  0.87344065  0.88143199  1
  O  O187  1  0.25549037  -0.00320424  0.36658354  1
  O  O188  1  0.24986454  0.01607962  0.88142092  1
  O  O189  1  0.24574557  0.50398379  0.36345187  1
  O  O190  1  0.25637357  0.50291063  0.87003814  1
  O  O191  1  0.73925450  -0.01311460  0.36508050  1
  O  O192  1  0.74256464  -0.00046618  0.85814578  1
  O  O193  1  0.76256005  0.49342200  0.36337775  1
  O  O194  1  0.75642355  0.50619383  0.86896021  1
  O  O195  1  0.24483066  0.49397676  0.13483197  1
  O  O196  1  0.24320122  0.49235754  0.63116847  1
  O  O197  1  0.24012631  0.99934929  0.13040658  1
  O  O198  1  0.25041700  0.98042444  0.61811635  1
  O  O199  1  0.75942045  0.49076180  0.13612000  1
  O  O200  1  0.73839577  0.49844640  0.62848500  1
  O  O201  1  0.74376019  0.98785592  0.12115955  1
  O  O202  1  0.73784807  1.00147620  0.63801713  1
  O  O203  1  -0.00638518  0.36616920  0.26079294  1
  O  O204  1  0.00608727  0.36400377  0.75230007  1
  O  O205  1  0.00239058  0.86945656  0.25712389  1
  O  O206  1  0.01056687  0.86597558  0.75418623  1
  O  O207  1  0.50087958  0.36714160  0.24987122  1
  O  O208  1  0.50450993  0.36428363  0.75710596  1
  O  O209  1  0.50258102  0.87572579  0.24428601  1
  O  O210  1  0.50366957  0.87254874  0.75595953  1
  O  O211  1  0.48936470  0.13049065  0.24687775  1
  O  O212  1  0.48906488  0.13868079  0.75823078  1
  O  O213  1  0.50684146  0.61966207  0.23043164  1
  O  O214  1  0.49595144  0.62982607  0.74306638  1
  O  O215  1  0.99305431  0.13289822  0.23667850  1
  O  O216  1  0.99206202  0.13939208  0.75426341  1
  O  O217  1  0.99839439  0.63361912  0.24201360  1
  O  O218  1  1.00482178  0.63141594  0.74079658  1
  O  O219  1  0.36636721  0.24401573  0.01096896  1
  O  O220  1  0.36363876  0.26119793  0.50105319  1
  O  O221  1  0.37105457  0.75625423  0.00711853  1
  O  O222  1  0.38238684  0.74575726  0.51228841  1
  O  O223  1  0.86876935  0.25197362  0.00742780  1
  O  O224  1  0.86799964  0.24459596  0.50795342  1
  O  O225  1  0.87612110  0.76153496  0.00581883  1
  O  O226  1  0.89017251  0.76190086  0.49455888  1
  O  O227  1  0.14360625  0.25418615  0.50170205  1
  O  O228  1  0.13303646  0.24429206  0.99527984  1
  O  O229  1  0.12100428  0.73867724  0.48920298  1
  O  O230  1  0.12955545  0.74953203  0.98981391  1
  O  O231  1  0.63076192  0.24008936  0.50081554  1
  O  O232  1  0.62897849  0.24342465  0.99413008  1
  O  O233  1  0.61707855  0.73910189  0.48518611  1
  O  O234  1  0.62418119  0.74980268  0.98791561  1
  O  O235  1  0.49026304  0.24879026  0.13422436  1
  O  O236  1  0.50319061  0.25423187  0.64147642  1
  O  O237  1  0.49034678  0.74442011  0.11933081  1
  O  O238  1  0.49432766  0.74556209  0.63130416  1
  O  O239  1  0.99267748  0.24666939  0.12810566  1
  O  O240  1  0.99493032  0.24876585  0.63211430  1
  O  O241  1  0.99457684  0.74849310  0.12879529  1
  O  O242  1  1.01065838  0.73717601  0.64359753  1
  O  O243  1  -0.00006402  0.26016257  0.36534415  1
  O  O244  1  0.00923127  0.25342538  0.86880548  1
  O  O245  1  0.00627746  0.75570303  0.36504961  1
  O  O246  1  0.00980455  0.75272624  0.86798162  1
  O  O247  1  0.49564890  0.24907329  0.36190742  1
  O  O248  1  0.51028199  0.25679219  0.87029207  1
  O  O249  1  0.50974904  0.75185700  0.36566206  1
  O  O250  1  0.50485175  0.75570261  0.87040023  1
  O  O251  1  0.25854659  0.13706323  0.50420297  1
  O  O252  1  0.24752506  0.13449841  0.99105030  1
  O  O253  1  0.23620335  0.61607134  0.49083887  1
  O  O254  1  0.24924135  0.63083181  0.99499970  1
  O  O255  1  0.73466762  0.13215500  0.50900593  1
  O  O256  1  0.74433534  0.13076894  0.99760606  1
  O  O257  1  0.73545559  0.62435883  0.50490030  1
  O  O258  1  0.73637793  0.62827570  0.99669563  1
  O  O259  1  0.24720174  0.36327775  0.00881276  1
  O  O260  1  0.25803813  0.37253699  0.50735269  1
  O  O261  1  0.25625633  0.86849038  0.00080842  1
  O  O262  1  0.24494616  0.87033458  0.50464411  1
  O  O263  1  0.75164742  0.36928465  0.00753267  1
  O  O264  1  0.75175952  0.36025644  0.50399429  1
  O  O265  1  0.75847523  0.87278271  0.00360660  1
  O  O266  1  0.73817096  0.86903988  0.52134411  1
  O  O267  1  0.12759373  0.50084603  0.23896851  1
  O  O268  1  0.13345722  0.49260548  0.74453428  1
  O  O269  1  0.12960863  0.99615519  0.24320070  1
  O  O270  1  0.12575409  0.97936009  0.74945487  1
  O  O271  1  0.64362970  0.49898964  0.25474865  1
  O  O272  1  0.63022316  0.49749083  0.74161543  1
  O  O273  1  0.62341718  1.00046975  0.24552984  1
  O  O274  1  0.62560551  0.99555699  0.74472243  1
  O  O275  1  0.36600792  0.00669100  0.24903752  1
  O  O276  1  0.38709870  0.01437681  0.75257642  1
  O  O277  1  0.36299228  0.49889562  0.24844626  1
  O  O278  1  0.36966915  0.50598692  0.75478083  1
  O  O279  1  0.87741769  0.01697275  0.24830262  1
  O  O280  1  0.86752781  0.01064303  0.74539358  1
  O  O281  1  0.86568768  0.50192519  0.25833645  1
  O  O282  1  0.86783619  0.49573284  0.75832918  1
  O  O283  1  0.11088935  0.37238780  0.37616103  1
  O  O284  1  0.12626270  0.36949643  0.86823058  1
  O  O285  1  0.11846391  0.86458137  0.36668001  1
  O  O286  1  0.11999488  0.86662240  0.86916053  1
  O  O287  1  0.61936193  0.36769930  0.37083591  1
  O  O288  1  0.61841089  0.36920602  0.86819763  1
  O  O289  1  0.63324761  0.87146865  0.36158325  1
  O  O290  1  0.61899293  0.86832570  0.86632099  1
  O  O291  1  0.37261018  0.13634810  0.13659072  1
  O  O292  1  0.37075703  0.12532679  0.64385002  1
  O  O293  1  0.39053186  0.63228570  0.11905854  1
  O  O294  1  0.37755759  0.63030291  0.62962524  1
  O  O295  1  0.88127280  0.13477198  0.12812107  1
  O  O296  1  0.87870305  0.13541667  0.63671798  1
  O  O297  1  0.88050998  0.63934506  0.12047458  1
  O  O298  1  0.88469011  0.61615007  0.62522457  1
  O  O299  1  0.25276021  0.25615930  0.12139149  1
  O  O300  1  0.24905956  0.25961204  0.61562258  1
  O  O301  1  0.26231546  0.74718191  0.12195869  1
  O  O302  1  0.25927393  0.76138232  0.62795760  1
  O  O303  1  0.75646687  0.25660263  0.11992644  1
  O  O304  1  0.75917161  0.24997326  0.61979527  1
  O  O305  1  0.75758026  0.76091840  0.12261465  1
  O  O306  1  0.76162921  0.73747875  0.64780140  1
  O  O307  1  0.24830779  0.25085689  0.39092104  1
  O  O308  1  0.24842158  0.24740183  0.88384297  1
  O  O309  1  0.23328295  0.73393646  0.36527276  1
  O  O310  1  0.24416174  0.74298933  0.88206950  1
  O  O311  1  0.75420296  0.25137771  0.38652148  1
  O  O312  1  0.73738491  0.25323523  0.87873613  1
  O  O313  1  0.73998930  0.74978704  0.37008994  1
  O  O314  1  0.74021224  0.74356072  0.87478449  1
  O  O315  1  0.00474062  0.12635258  0.00915695  1
  O  O316  1  -0.00456698  0.11465159  0.49908138  1
  O  O317  1  0.00247251  0.61456657  0.00561548  1
  O  O318  1  0.01343137  0.62482993  0.51696623  1
  O  O319  1  0.50527723  0.11917941  0.00213376  1
  O  O320  1  0.51201470  0.12776637  0.50056608  1
  O  O321  1  0.51317605  0.62571176  0.00301640  1
  O  O322  1  0.50617052  0.61558508  0.50638887  1
  O  O323  1  0.49203058  0.38187604  0.49927940  1
  O  O324  1  0.50366542  0.37005821  0.98774722  1
  O  O325  1  0.50812836  0.88673306  0.50055656  1
  O  O326  1  0.49251464  0.88339131  0.99558022  1
  O  O327  1  0.99616188  0.36674072  0.48352139  1
  O  O328  1  0.99923876  0.38745014  0.99957852  1
  O  O329  1  1.00640685  0.88410564  0.48633810  1
  O  O330  1  0.99477013  0.87949136  0.98663376  1
  O  O331  1  0.50431944  0.50217950  0.38641377  1
  O  O332  1  0.49058382  0.48926763  0.86994881  1
  O  O333  1  0.49707830  1.00224645  0.39267341  1
  O  O334  1  0.50641636  0.99480255  0.88880887  1
  O  O335  1  0.99111745  0.48558094  0.36796014  1
  O  O336  1  0.99459331  0.50082212  0.88207180  1
  O  O337  1  0.99735036  0.99358036  0.38224087  1
  O  O338  1  1.01049959  0.99118598  0.86954285  1
  O  O339  1  0.00702015  0.00954678  0.12326598  1
  O  O340  1  0.00259629  0.00237464  0.60903410  1
  O  O341  1  0.00478597  0.50212854  0.12104533  1
  O  O342  1  0.01310286  0.50513524  0.63498226  1
  O  O343  1  0.50806140  0.00217920  0.11291693  1
  O  O344  1  0.50828766  -0.00283357  0.61305064  1
  O  O345  1  0.49452943  0.50903230  0.12061607  1
  O  O346  1  0.51046777  0.50302807  0.62046870  1
  O  O347  1  0.25052412  0.38675753  0.24516890  1
  O  O348  1  0.24799779  0.37719481  0.74266175  1
  O  O349  1  0.24063127  0.88640223  0.24408545  1
  O  O350  1  0.24069093  0.87209233  0.75759116  1
  O  O351  1  0.75082980  0.38242948  0.24100455  1
  O  O352  1  0.74063274  0.38105712  0.74682436  1
  O  O353  1  0.75242564  0.87695394  0.24122100  1
  O  O354  1  0.74172728  0.88117411  0.74711669  1
  O  O355  1  0.25475193  0.11248758  0.24752498  1
  O  O356  1  0.26723828  0.13218904  0.76555231  1
  O  O357  1  0.24584418  0.60812189  0.25922867  1
  O  O358  1  0.25477190  0.61973157  0.75622697  1
  O  O359  1  0.76509311  0.12908504  0.24221717  1
  O  O360  1  0.75796028  0.11863530  0.75278908  1
  O  O361  1  0.75511271  0.61114535  0.23851219  1
  O  O362  1  0.75670707  0.62121777  0.75322982  1
  O  O363  1  0.36761299  0.12381877  0.36316411  1
  O  O364  1  0.36651637  0.12795179  0.87277711  1
  O  O365  1  0.36044724  0.63125164  0.38231631  1
  O  O366  1  0.37181585  0.61799656  0.87010512  1
  O  O367  1  0.87560730  0.12357986  0.35862297  1
  O  O368  1  0.87177333  0.13196646  0.86275456  1
  O  O369  1  0.88658099  0.60414686  0.37305333  1
  O  O370  1  0.86817827  0.61307416  0.88204218  1
  O  O371  1  0.13739650  0.38166429  0.12251971  1
  O  O372  1  0.13266849  0.38052125  0.63052445  1
  O  O373  1  0.12346460  0.88208446  0.12920998  1
  O  O374  1  0.14319909  0.87064411  0.63872533  1
  O  O375  1  0.63709362  0.37139267  0.12730530  1
  O  O376  1  0.62395521  0.38332944  0.63043155  1
  O  O377  1  0.63354677  0.88666074  0.11883958  1
  O  O378  1  0.62040439  0.87906549  0.64058491  1
  O  O379  1  0.11052006  0.25129720  0.24406098  1
  O  O380  1  0.12021842  0.25659562  0.75479286  1
  O  O381  1  0.11491131  0.75269444  0.25007677  1
  O  O382  1  0.12244347  0.75603032  0.76095468  1
  O  O383  1  0.61330515  0.24838978  0.24885745  1
  O  O384  1  0.61754249  0.25197001  0.75706161  1
  O  O385  1  0.62871228  0.74421619  0.26161840  1
  O  O386  1  0.61603384  0.75747496  0.76124687  1
  O  O387  1  0.37703476  0.24398682  0.24537528  1
  O  O388  1  0.38846743  0.24578010  0.75450812  1
  O  O389  1  0.38250286  0.75958509  0.24385385  1
  O  O390  1  0.38021162  0.74181405  0.74555811  1
  O  O391  1  0.88258610  0.24171827  0.24174074  1
  O  O392  1  0.88215775  0.24740639  0.74543094  1
  O  O393  1  0.88754918  0.74742403  0.24116067  1
  O  O394  1  0.88572300  0.74594822  0.76078908  1
  O  O395  1  0.38687219  0.49037010  0.50791633  1
  O  O396  1  0.36848772  0.50189157  0.98835743  1
  O  O397  1  0.38954680  0.99937397  0.49924042  1
  O  O398  1  0.38269886  0.99291124  1.00768114  1
  O  O399  1  0.87033440  0.49260171  0.48482993  1
  O  O400  1  0.88419450  0.49926646  0.99481025  1
  O  O401  1  0.88337747  0.99674278  0.49484322  1
  O  O402  1  0.87805252  0.98773220  1.00508864  1
  O  O403  1  0.12257064  0.00757510  0.00576785  1
  O  O404  1  0.10862837  0.00041951  0.50017193  1
  O  O405  1  0.11750142  0.50068986  0.01033160  1
  O  O406  1  0.12717213  0.50213098  0.51220354  1
  O  O407  1  0.61916965  0.00436895  0.00617732  1
  O  O408  1  0.61447590  0.01407739  0.50771044  1
  O  O409  1  0.62655465  0.51129695  -0.00659119  1
  O  O410  1  0.62024486  0.50469107  0.50541727  1
  O  O411  1  0.36188376  0.36167596  0.12881095  1
  O  O412  1  0.36527426  0.37991506  0.62142085  1
  O  O413  1  0.37347098  0.86728714  0.11254283  1
  O  O414  1  0.36080651  0.86608573  0.62778880  1
  O  O415  1  0.86889769  0.36306099  0.12447261  1
  O  O416  1  0.87517451  0.36097518  0.62293329  1
  O  O417  1  0.87120070  0.86797122  0.11870059  1
  O  O418  1  0.88301753  0.86909552  0.62113635  1
  O  O419  1  0.13065899  0.13395053  0.36456833  1
  O  O420  1  0.13873911  0.13302124  0.87541286  1
  O  O421  1  0.12361885  0.62689288  0.38362379  1
  O  O422  1  0.13207638  0.63247606  0.87679330  1
  O  O423  1  0.62413347  0.12972319  0.38815795  1
  O  O424  1  0.62671906  0.13373240  0.88051600  1
  O  O425  1  0.62560865  0.63579396  0.38077237  1
  O  O426  1  0.62764967  0.63145425  0.88260095  1
