# generated using pymatgen
data_V85Zn86O256
_symmetry_space_group_name_H-M   'P 1'
_cell_length_a   16.92736728
_cell_length_b   16.92396183
_cell_length_c   16.92638067
_cell_angle_alpha   90.00767789
_cell_angle_beta   90.04619714
_cell_angle_gamma   90.02146688
_symmetry_Int_Tables_number   1
_chemical_formula_structural   V85Zn86O256
_chemical_formula_sum   'V85 Zn86 O256'
_cell_volume   4849.03571573
_cell_formula_units_Z   1
loop_
 _symmetry_equiv_pos_site_id
 _symmetry_equiv_pos_as_xyz
  1  'x, y, z'
loop_
 _atom_site_type_symbol
 _atom_site_label
 _atom_site_symmetry_multiplicity
 _atom_site_fract_x
 _atom_site_fract_y
 _atom_site_fract_z
 _atom_site_occupancy
  V  V0  1  0.00452495  0.37194588  0.36189669  1
  V  V1  1  0.37466007  0.87183974  0.50626207  1
  V  V2  1  0.74854472  0.25114713  0.50022050  1
  V  V3  1  0.14036046  0.12319121  -0.00438082  1
  V  V4  1  0.50149206  0.74748713  0.25113355  1
  V  V5  1  0.13601350  0.50007402  0.13599682  1
  V  V6  1  -0.00035513  0.75248312  0.25061282  1
  V  V7  1  0.75100960  0.49991590  0.24660137  1
  V  V8  1  -0.00031563  0.62507259  0.62706423  1
  V  V9  1  0.00143612  0.23812367  0.74607584  1
  V  V10  1  0.86855279  0.00285634  0.87904074  1
  V  V11  1  0.51095275  0.12508677  0.12561367  1
  V  V12  1  0.92562997  0.31652501  0.05456197  1
  V  V13  1  0.24738672  0.87731977  0.63091159  1
  V  V14  1  0.12309380  0.25154893  0.36625224  1
  V  V15  1  0.62669825  0.87474048  0.74973824  1
  V  V16  1  0.87512026  0.49970142  0.37217010  1
  V  V17  1  0.75105669  0.12657072  0.36902216  1
  V  V18  1  0.36426175  0.36175873  -0.00111535  1
  V  V19  1  0.74864491  0.63159361  0.37873998  1
  V  V20  1  0.74816353  0.62054929  0.87140919  1
  V  V21  1  0.87502707  0.37417851  0.50069945  1
  V  V22  1  0.62909521  0.12652751  -0.01583963  1
  V  V23  1  0.49605976  0.49837586  -0.00190906  1
  V  V24  1  0.00058612  0.87948086  0.38362201  1
  V  V25  1  0.74703473  0.87227121  0.61452619  1
  V  V26  1  0.87725624  0.24189241  0.62417423  1
  V  V27  1  0.25409678  0.36656589  0.13811306  1
  V  V28  1  0.87624581  0.76139472  0.11926482  1
  V  V29  1  0.13034860  0.75569317  0.87666558  1
  V  V30  1  0.36982757  0.00733988  0.87701717  1
  V  V31  1  0.87801396  0.00376223  0.37910634  1
  V  V32  1  -0.00123676  0.50076813  0.00067130  1
  V  V33  1  0.11850784  0.00542351  0.12561149  1
  V  V34  1  0.62216364  0.75072607  0.87651796  1
  V  V35  1  0.37426676  0.49610129  0.38689906  1
  V  V36  1  0.49086309  0.75275773  0.74039939  1
  V  V37  1  0.62389564  0.37422014  0.25023664  1
  V  V38  1  0.62354915  0.12461286  0.49735115  1
  V  V39  1  0.25146601  0.24700163  0.50128777  1
  V  V40  1  0.12555789  0.49851374  0.62558508  1
  V  V41  1  0.74514924  0.25104367  -0.01467931  1
  V  V42  1  -0.00312135  0.36918823  0.87183340  1
  V  V43  1  0.75297940  0.75580911  -0.00167661  1
  V  V44  1  0.62742329  0.88207661  0.24168060  1
  V  V45  1  0.10959439  0.12284014  0.50398200  1
  V  V46  1  -0.00054561  0.62596114  0.12414478  1
  V  V47  1  0.49483094  0.25302285  0.24414342  1
  V  V48  1  0.89347513  0.13610925  0.23846400  1
  V  V49  1  0.37353224  0.12722898  0.24222711  1
  V  V50  1  0.24978326  -0.00308084  0.24999389  1
  V  V51  1  0.36643237  0.87174720  0.00004873  1
  V  V52  1  -0.00542349  0.87607998  0.88101155  1
  V  V53  1  0.12620993  0.62511895  0.50106810  1
  V  V54  1  0.25546510  0.37801908  0.62071869  1
  V  V55  1  0.14132801  0.24415606  0.87338214  1
  V  V56  1  0.50047148  0.87385088  0.37496656  1
  V  V57  1  0.87324286  0.62052043  0.75077964  1
  V  V58  1  0.37950684  0.25493908  0.62108081  1
  V  V59  1  0.12533840  0.37367050  0.74909368  1
  V  V60  1  0.62719364  0.38934083  0.75596274  1
  V  V61  1  0.49849375  0.61275574  0.62467851  1
  V  V62  1  0.37275042  -0.00021044  0.37400605  1
  V  V63  1  0.25045887  0.62075662  0.37419711  1
  V  V64  1  0.24739005  0.00839817  0.75074584  1
  V  V65  1  0.87021822  0.74938791  0.61779898  1
  V  V66  1  -0.00553735  0.00561271  0.00298407  1
  V  V67  1  0.00185630  0.75724456  0.75145584  1
  V  V68  1  0.49843693  0.12453096  0.62559626  1
  V  V69  1  0.11105542  0.00008769  0.62726148  1
  V  V70  1  0.50308733  -0.00210580  0.00469362  1
  V  V71  1  0.74800436  0.00631245  0.75164796  1
  V  V72  1  0.51135193  0.24905196  0.75721568  1
  V  V73  1  0.74463240  0.38737369  0.62769146  1
  V  V74  1  0.25200610  0.74896577  0.50652107  1
  V  V75  1  0.13372692  0.62896522  -0.00098332  1
  V  V76  1  0.49831347  -0.00047749  0.50062256  1
  V  V77  1  0.37324973  0.61646254  0.25075705  1
  V  V78  1  0.12399665  0.87690149  0.25070124  1
  V  V79  1  0.62548568  0.50176478  0.12233772  1
  V  V80  1  0.00126038  0.49805638  0.49946917  1
  V  V81  1  0.87504107  0.49798522  0.87576782  1
  V  V82  1  0.74983271  0.36740966  0.11847169  1
  V  V83  1  0.49699009  0.37350872  0.38326129  1
  V  V84  1  0.36642331  0.74819313  0.12418788  1
  Zn  Zn85  1  0.62376967  0.25076503  0.37301232  1
  Zn  Zn86  1  0.63025423  0.62641738  0.51018266  1
  Zn  Zn87  1  0.50849322  0.49390633  0.50466630  1
  Zn  Zn88  1  0.87441139  0.87776466  0.49952535  1
  Zn  Zn89  1  0.36818104  0.50178757  0.87663129  1
  Zn  Zn90  1  0.50253632  0.37022370  0.88020876  1
  Zn  Zn91  1  0.62450420  -0.00124386  0.62394145  1
  Zn  Zn92  1  0.24879211  0.12521828  0.37613650  1
  Zn  Zn93  1  0.63301560  0.75462415  0.37954764  1
  Zn  Zn94  1  0.62359875  0.62457915  -0.00014901  1
  Zn  Zn95  1  0.49891097  0.62363886  0.12487702  1
  Zn  Zn96  1  0.87420884  0.62752954  0.24675704  1
  Zn  Zn97  1  0.75081469  0.00665100  0.24150967  1
  Zn  Zn98  1  0.12513309  0.75112606  0.37640362  1
  Zn  Zn99  1  0.37099947  0.62436286  0.75176076  1
  Zn  Zn100  1  0.24460721  0.87066098  0.12165786  1
  Zn  Zn101  1  0.25184035  0.62689652  0.87292202  1
  Zn  Zn102  1  0.74909048  0.88436870  0.11598087  1
  Zn  Zn103  1  0.49769805  0.87498596  0.87642819  1
  Zn  Zn104  1  0.87231848  0.12314715  0.74880137  1
  Zn  Zn105  1  0.25176138  0.50337409  0.75322178  1
  Zn  Zn106  1  0.37266800  0.13166041  0.75637783  1
  Zn  Zn107  1  0.18641662  0.18218364  0.18591362  1
  Zn  Zn108  1  0.18696738  0.18581277  0.68440221  1
  Zn  Zn109  1  0.18697285  0.68514659  0.19039828  1
  Zn  Zn110  1  0.18649528  0.69009841  0.69017767  1
  Zn  Zn111  1  0.68785410  0.19053313  0.18441589  1
  Zn  Zn112  1  0.68625172  0.18933777  0.68443466  1
  Zn  Zn113  1  0.68930750  0.68959790  0.18973988  1
  Zn  Zn114  1  0.68515151  0.68734755  0.68885695  1
  Zn  Zn115  1  0.31269881  0.31156509  0.31461901  1
  Zn  Zn116  1  0.31874837  0.31850702  0.80662140  1
  Zn  Zn117  1  0.31236690  0.80846364  0.31505732  1
  Zn  Zn118  1  0.31111857  0.81965934  0.81456642  1
  Zn  Zn119  1  0.81420587  0.31191258  0.30979069  1
  Zn  Zn120  1  0.81315102  0.31379580  0.80757760  1
  Zn  Zn121  1  0.81596117  0.81582433  0.30867368  1
  Zn  Zn122  1  0.81300673  0.81418193  0.80993469  1
  Zn  Zn123  1  0.18892980  0.43481026  0.43712514  1
  Zn  Zn124  1  0.18600974  0.43717808  0.93927466  1
  Zn  Zn125  1  0.18528765  0.93998769  0.44073923  1
  Zn  Zn126  1  0.18443695  0.93653416  0.93492957  1
  Zn  Zn127  1  0.68412911  0.44310194  0.43884143  1
  Zn  Zn128  1  0.68839821  0.43688227  0.93641746  1
  Zn  Zn129  1  0.68672339  0.94035820  0.43193649  1
  Zn  Zn130  1  0.68492960  0.94002722  0.93834205  1
  Zn  Zn131  1  0.31407782  0.05810916  0.06734474  1
  Zn  Zn132  1  0.31114284  0.06360290  0.56483886  1
  Zn  Zn133  1  0.31366332  0.56078768  0.06030241  1
  Zn  Zn134  1  0.31972659  0.56562818  0.56842144  1
  Zn  Zn135  1  0.81023310  0.06595318  0.06484833  1
  Zn  Zn136  1  0.81054405  0.06061709  0.56078896  1
  Zn  Zn137  1  0.81335876  0.56629084  0.05925187  1
  Zn  Zn138  1  0.81380346  0.56283059  0.55928767  1
  Zn  Zn139  1  0.43393891  0.43649152  0.18549942  1
  Zn  Zn140  1  0.43654058  0.43582439  0.69332632  1
  Zn  Zn141  1  0.43866583  0.93602338  0.18461998  1
  Zn  Zn142  1  0.43492577  0.93801196  0.68945402  1
  Zn  Zn143  1  0.94188809  0.44065003  0.18852155  1
  Zn  Zn144  1  0.93573491  0.43392031  0.68796190  1
  Zn  Zn145  1  0.93467780  0.94501682  0.19226934  1
  Zn  Zn146  1  0.93201541  0.93464689  0.69084186  1
  Zn  Zn147  1  0.06195656  0.06501997  0.31637676  1
  Zn  Zn148  1  0.06383506  0.05955697  0.81431542  1
  Zn  Zn149  1  0.06184947  0.56469562  0.31293448  1
  Zn  Zn150  1  0.06520716  0.56384854  0.81308237  1
  Zn  Zn151  1  0.56144792  0.06215946  0.31283535  1
  Zn  Zn152  1  0.55774419  0.05900852  0.81358268  1
  Zn  Zn153  1  0.56270093  0.55994984  0.31515356  1
  Zn  Zn154  1  0.55683855  0.56473108  0.81340075  1
  Zn  Zn155  1  0.43509574  0.18813116  0.43408104  1
  Zn  Zn156  1  0.43716897  0.18702360  0.93978644  1
  Zn  Zn157  1  0.43795831  0.68817351  0.44074942  1
  Zn  Zn158  1  0.43716774  0.68555200  0.93805966  1
  Zn  Zn159  1  0.93637266  0.19019159  0.43234743  1
  Zn  Zn160  1  0.94299114  0.17782459  0.93178400  1
  Zn  Zn161  1  0.93680484  0.68685710  0.43627900  1
  Zn  Zn162  1  0.93859450  0.68732770  0.93864946  1
  Zn  Zn163  1  0.09791168  0.30273211  0.06974170  1
  Zn  Zn164  1  0.06238887  0.31109200  0.55929776  1
  Zn  Zn165  1  0.06113314  0.81711936  0.05996153  1
  Zn  Zn166  1  0.06430373  0.81275184  0.56483158  1
  Zn  Zn167  1  0.56091933  0.31079746  0.06085772  1
  Zn  Zn168  1  0.56710007  0.31266568  0.56567067  1
  Zn  Zn169  1  0.55734042  0.80961627  0.06343657  1
  Zn  Zn170  1  0.56733670  0.80567319  0.55904373  1
  O  O171  1  0.12640304  0.11747816  0.11057947  1
  O  O172  1  0.12483646  0.11463198  0.61438631  1
  O  O173  1  0.12105334  0.61795843  0.11910801  1
  O  O174  1  0.11799216  0.61909238  0.62027326  1
  O  O175  1  0.61362894  0.12612203  0.12130826  1
  O  O176  1  0.61351213  0.12365290  0.61670467  1
  O  O177  1  0.62697700  0.61187012  0.12580656  1
  O  O178  1  0.60551275  0.63237688  0.62977970  1
  O  O179  1  0.38309198  0.38472584  0.37061740  1
  O  O180  1  0.37628921  0.37666023  0.88850074  1
  O  O181  1  0.37928724  0.88091403  0.38328260  1
  O  O182  1  0.37764009  0.88402317  0.88426227  1
  O  O183  1  0.88048528  0.38276775  0.37915732  1
  O  O184  1  0.88891461  0.38070428  0.86682778  1
  O  O185  1  0.88177418  0.88382693  0.37479593  1
  O  O186  1  0.88526752  0.88429451  0.87023229  1
  O  O187  1  0.25492692  0.00127241  0.36805744  1
  O  O188  1  0.25555589  -0.00915828  0.86196568  1
  O  O189  1  0.25745083  0.51096144  0.38300831  1
  O  O190  1  0.24586001  0.50435442  0.87298594  1
  O  O191  1  0.75637232  0.01034341  0.36846977  1
  O  O192  1  0.75767426  -0.00832393  0.86593077  1
  O  O193  1  0.75996655  0.50422228  0.36727938  1
  O  O194  1  0.75987340  0.50988202  0.88159927  1
  O  O195  1  0.23966890  0.49741442  0.12476196  1
  O  O196  1  0.24471076  0.49203748  0.62128551  1
  O  O197  1  0.23902909  0.99621442  0.13442862  1
  O  O198  1  0.24296041  0.99505330  0.63063288  1
  O  O199  1  0.74584788  0.49193475  0.12523859  1
  O  O200  1  0.75804264  0.48578673  0.62378532  1
  O  O201  1  0.75282328  0.99562874  0.12918986  1
  O  O202  1  0.74728524  0.99068857  0.63198341  1
  O  O203  1  -0.00037066  0.37692074  0.26257776  1
  O  O204  1  0.00649082  0.36680448  0.75626023  1
  O  O205  1  0.00513707  0.87030967  0.25867988  1
  O  O206  1  -0.00548414  0.86298764  0.75759883  1
  O  O207  1  0.50191911  0.36795209  0.25375754  1
  O  O208  1  0.51433495  0.36767924  0.74897926  1
  O  O209  1  0.50736240  0.86870399  0.25318790  1
  O  O210  1  0.50697047  0.86799647  0.75128125  1
  O  O211  1  0.49553989  0.13044355  0.24379150  1
  O  O212  1  0.50034940  0.13161971  0.74167570  1
  O  O213  1  0.49334145  0.63153230  0.25035759  1
  O  O214  1  0.49911589  0.63852886  0.74339636  1
  O  O215  1  0.99335958  0.12669407  0.25015609  1
  O  O216  1  0.99999280  0.13538596  0.75107250  1
  O  O217  1  0.99950517  0.63527237  0.24344629  1
  O  O218  1  0.99295859  0.63258371  0.74551139  1
  O  O219  1  0.37633229  0.26289284  0.00124515  1
  O  O220  1  0.36802307  0.24445415  0.51152016  1
  O  O221  1  0.38400265  0.75971397  0.01142311  1
  O  O222  1  0.36538570  0.76099117  0.49719992  1
  O  O223  1  0.87253173  0.24714389  -0.00104537  1
  O  O224  1  0.86943453  0.25604264  0.50504640  1
  O  O225  1  0.86714943  0.74760184  0.00694996  1
  O  O226  1  0.87916450  0.75003138  0.51453817  1
  O  O227  1  0.13133763  0.23800466  0.49870445  1
  O  O228  1  0.12625636  0.23233160  0.98847553  1
  O  O229  1  0.13200132  0.74271156  0.49840105  1
  O  O230  1  0.11567930  0.74122031  0.99060791  1
  O  O231  1  0.63171371  0.24240542  0.49780461  1
  O  O232  1  0.63014148  0.23791048  1.00062737  1
  O  O233  1  0.62305334  0.74003132  0.49077042  1
  O  O234  1  0.62832952  0.74688251  0.99227582  1
  O  O235  1  0.50125794  0.24289308  0.13658970  1
  O  O236  1  0.49519343  0.24405732  0.62838763  1
  O  O237  1  0.49064579  0.74684398  0.13755123  1
  O  O238  1  0.49896047  0.75338300  0.63932486  1
  O  O239  1  0.99200325  0.26917478  0.11032850  1
  O  O240  1  0.98947461  0.25862118  0.63375082  1
  O  O241  1  0.99503307  0.74797998  0.12993362  1
  O  O242  1  0.99464735  0.74641556  0.63370781  1
  O  O243  1  0.01066733  0.26092056  0.38224914  1
  O  O244  1  0.00488951  0.25452131  0.86557613  1
  O  O245  1  0.00028876  0.75569782  0.36590199  1
  O  O246  1  0.00136908  0.75740007  0.86992034  1
  O  O247  1  0.49928950  0.25652499  0.36408258  1
  O  O248  1  0.49404574  0.25066838  0.86092394  1
  O  O249  1  0.49476598  0.75631746  0.36357326  1
  O  O250  1  0.51188590  0.75001471  0.86783471  1
  O  O251  1  0.24463682  0.13590582  0.50124189  1
  O  O252  1  0.23956429  0.11544377  0.99984289  1
  O  O253  1  0.24852994  0.63276959  0.49893097  1
  O  O254  1  0.23650264  0.62447169  1.00040220  1
  O  O255  1  0.74429334  0.13029579  0.49000878  1
  O  O256  1  0.73512873  0.13344545  1.00286417  1
  O  O257  1  0.75378995  0.62172073  0.48225617  1
  O  O258  1  0.74815407  0.63568127  0.98772326  1
  O  O259  1  0.26027220  0.37718293  0.00821670  1
  O  O260  1  0.24323026  0.36126064  0.51219462  1
  O  O261  1  0.26217930  0.87972184  0.00210407  1
  O  O262  1  0.25551107  0.86948124  0.50584637  1
  O  O263  1  0.74757267  0.36598048  0.00612582  1
  O  O264  1  0.75349852  0.37102439  0.50843161  1
  O  O265  1  0.74333375  0.86030442  -0.00159894  1
  O  O266  1  0.74873570  0.87948031  0.51100853  1
  O  O267  1  0.12185330  0.50635709  0.23406417  1
  O  O268  1  0.12284477  0.49237335  0.74049722  1
  O  O269  1  0.12882242  0.99886080  0.24347004  1
  O  O270  1  0.13091362  1.00542564  0.73591114  1
  O  O271  1  0.62987222  0.49350516  0.24185095  1
  O  O272  1  0.62126958  0.48819167  0.75171068  1
  O  O273  1  0.62264037  0.98500860  0.25235078  1
  O  O274  1  0.62746680  0.98873235  0.75042766  1
  O  O275  1  0.36949401  0.00232146  0.25429060  1
  O  O276  1  0.36777413  0.00197742  0.75956693  1
  O  O277  1  0.38078720  0.51305330  0.25782648  1
  O  O278  1  0.37195868  0.50052955  0.75717099  1
  O  O279  1  0.87370210  0.01403837  0.26195775  1
  O  O280  1  0.86421831  0.00116233  0.75542070  1
  O  O281  1  0.87154873  0.50115789  0.25806220  1
  O  O282  1  0.88307638  0.51355158  0.75648047  1
  O  O283  1  0.11692615  0.36495616  0.38090626  1
  O  O284  1  0.11486324  0.36507112  0.87297129  1
  O  O285  1  0.11807680  0.87543764  0.36964658  1
  O  O286  1  0.10955638  0.86743155  0.87896611  1
  O  O287  1  0.61671056  0.37469395  0.36623916  1
  O  O288  1  0.62587772  0.37533158  0.86005941  1
  O  O289  1  0.61667960  0.87376642  0.36589254  1
  O  O290  1  0.62202183  0.86790574  0.86746537  1
  O  O291  1  0.38503193  0.11899690  0.13691813  1
  O  O292  1  0.38689266  0.13122653  0.62610565  1
  O  O293  1  0.37458932  0.62963692  0.13358072  1
  O  O294  1  0.39125037  0.62819361  0.63293394  1
  O  O295  1  0.87565534  0.12501571  0.14000011  1
  O  O296  1  0.86915227  0.13777109  0.62481345  1
  O  O297  1  0.88313399  0.63466372  0.12510382  1
  O  O298  1  0.87806888  0.62967607  0.63145007  1
  O  O299  1  0.23516598  0.26750743  0.12573094  1
  O  O300  1  0.25871953  0.25499014  0.62072566  1
  O  O301  1  0.26197945  0.75075321  0.13075955  1
  O  O302  1  0.24116308  0.76096984  0.61443183  1
  O  O303  1  0.74699820  0.26301402  0.11607449  1
  O  O304  1  0.75599889  0.25701186  0.61657177  1
  O  O305  1  0.75863073  0.75103777  0.11623072  1
  O  O306  1  0.75898964  0.75859329  0.63311336  1
  O  O307  1  0.24398079  0.24949553  0.38567553  1
  O  O308  1  0.23966223  0.25377916  0.86259001  1
  O  O309  1  0.24858566  0.73948452  0.38700525  1
  O  O310  1  0.23340560  0.75561685  0.87053223  1
  O  O311  1  0.74929204  0.24581968  0.38410813  1
  O  O312  1  0.75505370  0.25531598  0.88606852  1
  O  O313  1  0.75667108  0.73414768  0.36680574  1
  O  O314  1  0.74102047  0.74615828  0.87806218  1
  O  O315  1  0.01273400  0.11001051  -0.00511382  1
  O  O316  1  0.01112246  0.12961389  0.50022591  1
  O  O317  1  0.00769658  0.61718175  0.00521798  1
  O  O318  1  0.00455197  0.61877549  0.50584488  1
  O  O319  1  0.50881323  0.12175247  0.00655934  1
  O  O320  1  0.50318932  0.12096730  0.50466423  1
  O  O321  1  0.50326733  0.61455458  0.00534805  1
  O  O322  1  0.49591167  0.62627276  0.51720373  1
  O  O323  1  0.50485751  0.37069823  0.48682141  1
  O  O324  1  0.48898702  0.37936468  1.00195572  1
  O  O325  1  0.49161241  0.87887147  0.49740261  1
  O  O326  1  0.49286977  0.88368220  1.00094252  1
  O  O327  1  0.99262034  0.38210030  0.49528158  1
  O  O328  1  0.99399263  0.37660104  0.99520129  1
  O  O329  1  0.99853025  0.86824364  0.48685337  1
  O  O330  1  1.00098612  0.88983600  0.99211875  1
  O  O331  1  0.49195984  0.49010158  0.37467993  1
  O  O332  1  0.50194216  0.49575882  0.88922412  1
  O  O333  1  0.49240435  0.99350568  0.38008423  1
  O  O334  1  0.49055484  0.99807949  0.88678248  1
  O  O335  1  0.99365298  0.49562703  0.37878094  1
  O  O336  1  0.99966323  0.49046692  0.88264160  1
  O  O337  1  0.99254831  0.99117713  0.37235836  1
  O  O338  1  0.99392916  0.99290416  0.88035883  1
  O  O339  1  0.01046655  -0.00525195  0.11859782  1
  O  O340  1  0.01203397  -0.00690709  0.62981982  1
  O  O341  1  0.00882356  0.50333723  0.11772532  1
  O  O342  1  0.00387458  0.50369902  0.61961514  1
  O  O343  1  0.49574691  0.00817125  0.11249093  1
  O  O344  1  0.49981868  0.00807462  0.62012256  1
  O  O345  1  0.50881906  0.49847090  0.11709367  1
  O  O346  1  0.49824243  0.50942415  0.62591490  1
  O  O347  1  0.25842512  0.37743217  0.23736273  1
  O  O348  1  0.24286982  0.37514160  0.73546423  1
  O  O349  1  0.24148150  0.87934632  0.25218398  1
  O  O350  1  0.25371101  0.88293940  0.73506161  1
  O  O351  1  0.74612783  0.38052200  0.24129455  1
  O  O352  1  0.73902243  0.37164999  0.73843001  1
  O  O353  1  0.73436559  0.87354247  0.25087952  1
  O  O354  1  0.74204005  0.88156028  0.74192864  1
  O  O355  1  0.25825774  0.11654030  0.25068202  1
  O  O356  1  0.25471633  0.11303528  0.74295373  1
  O  O357  1  0.25839254  0.63055828  0.26387348  1
  O  O358  1  0.25148226  0.62371027  0.75119709  1
  O  O359  1  0.74815015  0.12966258  0.26192093  1
  O  O360  1  0.74496260  0.10981452  0.74357733  1
  O  O361  1  0.75465527  0.61602475  0.25547194  1
  O  O362  1  0.75811877  0.63062228  0.76220958  1
  O  O363  1  0.37450094  0.11570585  0.36350214  1
  O  O364  1  0.37631471  0.11192690  0.87638088  1
  O  O365  1  0.36936235  0.61854031  0.37105090  1
  O  O366  1  0.37061243  0.62356454  0.87302821  1
  O  O367  1  0.86821802  0.12127648  0.37034123  1
  O  O368  1  0.87736443  0.10835891  0.86783216  1
  O  O369  1  0.86874619  0.61568587  0.37201986  1
  O  O370  1  0.86989842  0.62101997  0.86822967  1
  O  O371  1  0.13980253  0.39111117  0.12261990  1
  O  O372  1  0.13070997  0.38012947  0.62776535  1
  O  O373  1  0.12548421  0.88258579  0.13279313  1
  O  O374  1  0.13307914  0.89152380  0.61552240  1
  O  O375  1  0.63192339  0.38362528  0.12856223  1
  O  O376  1  0.63814491  0.37486887  0.63218068  1
  O  O377  1  0.62413469  0.86828047  0.13902207  1
  O  O378  1  0.63059015  0.87505523  0.63223454  1
  O  O379  1  0.13003229  0.24011110  0.26747630  1
  O  O380  1  0.11887855  0.25316307  0.75242701  1
  O  O381  1  0.11430442  0.75566422  0.25094598  1
  O  O382  1  0.11065957  0.74544862  0.76062749  1
  O  O383  1  0.61613234  0.25761061  0.25059997  1
  O  O384  1  0.61552903  0.25765207  0.74248705  1
  O  O385  1  0.61648665  0.75712419  0.25439209  1
  O  O386  1  0.61822226  0.76028321  0.75683194  1
  O  O387  1  0.38196725  0.23859831  0.25462472  1
  O  O388  1  0.38545421  0.25034571  0.73713713  1
  O  O389  1  0.38114233  0.74166013  0.24525510  1
  O  O390  1  0.39002256  0.75676955  0.75674460  1
  O  O391  1  0.87541406  0.23521923  0.25520218  1
  O  O392  1  0.88200528  0.24681969  0.74186440  1
  O  O393  1  0.88692029  0.74999827  0.24253217  1
  O  O394  1  0.88221253  0.73964621  0.74434989  1
  O  O395  1  0.38219404  0.50279339  0.48959659  1
  O  O396  1  0.38278328  0.49099339  1.00067632  1
  O  O397  1  0.37790853  0.99484566  0.49349964  1
  O  O398  1  0.38065313  0.99328370  0.99592170  1
  O  O399  1  0.88000822  0.49481175  0.48968246  1
  O  O400  1  0.89043848  0.50580081  0.99402756  1
  O  O401  1  0.87117405  0.99931451  0.48525500  1
  O  O402  1  0.88208739  1.00689579  0.99245617  1
  O  O403  1  0.12085280  0.00626666  0.00606354  1
  O  O404  1  0.12781756  0.01424571  0.51050946  1
  O  O405  1  0.11470705  0.50717833  0.00714384  1
  O  O406  1  0.12059076  0.50476904  0.50635882  1
  O  O407  1  0.61652859  0.01329763  -0.00414715  1
  O  O408  1  0.61650299  0.00684747  0.49974154  1
  O  O409  1  0.61892259  0.49924219  0.00786238  1
  O  O410  1  0.62004853  0.51261550  0.49544907  1
  O  O411  1  0.36151650  0.37893068  0.11591966  1
  O  O412  1  0.36788919  0.36753982  0.62523454  1
  O  O413  1  0.37210399  0.86648537  0.11925957  1
  O  O414  1  0.36553103  0.88292770  0.61274344  1
  O  O415  1  0.86990377  0.37722728  0.11930585  1
  O  O416  1  0.86374403  0.36651506  0.62268818  1
  O  O417  1  0.87492206  0.86406838  0.13137928  1
  O  O418  1  0.86628860  0.86684788  0.62296492  1
  O  O419  1  0.12720934  0.12958262  0.38947868  1
  O  O420  1  0.12611203  0.12908747  0.88460833  1
  O  O421  1  0.13333739  0.62465949  0.38230866  1
  O  O422  1  0.12205151  0.63591283  0.88402239  1
  O  O423  1  0.63154592  0.12690290  0.37983891  1
  O  O424  1  0.62115524  0.12543302  0.88551842  1
  O  O425  1  0.64327994  0.62545641  0.36681593  1
  O  O426  1  0.63256871  0.63215501  0.87342488  1
