# generated using pymatgen
data_V85Zn86O256
_symmetry_space_group_name_H-M   'P 1'
_cell_length_a   16.92991172
_cell_length_b   16.92982711
_cell_length_c   16.92584302
_cell_angle_alpha   90.01962686
_cell_angle_beta   89.93878773
_cell_angle_gamma   90.03662319
_symmetry_Int_Tables_number   1
_chemical_formula_structural   V85Zn86O256
_chemical_formula_sum   'V85 Zn86 O256'
_cell_volume   4851.28918017
_cell_formula_units_Z   1
loop_
 _symmetry_equiv_pos_site_id
 _symmetry_equiv_pos_as_xyz
  1  'x, y, z'
loop_
 _atom_site_type_symbol
 _atom_site_label
 _atom_site_symmetry_multiplicity
 _atom_site_fract_x
 _atom_site_fract_y
 _atom_site_fract_z
 _atom_site_occupancy
  V  V0  1  0.62286310  0.50636228  0.63008555  1
  V  V1  1  0.12365393  0.74874277  0.85683340  1
  V  V2  1  0.12726827  -0.01234229  0.62711284  1
  V  V3  1  0.87215052  0.87240713  -0.00004567  1
  V  V4  1  0.37578480  0.25096201  0.62466062  1
  V  V5  1  0.11397816  0.61604116  0.50051686  1
  V  V6  1  0.00264172  0.74866852  0.24636379  1
  V  V7  1  -0.00401926  0.12442846  0.12918015  1
  V  V8  1  0.62474551  0.49852918  0.12950621  1
  V  V9  1  0.50029401  0.50498625  -0.00289114  1
  V  V10  1  0.62646619  0.12638729  0.49544583  1
  V  V11  1  0.00616404  0.87192578  0.86202760  1
  V  V12  1  0.00089610  -0.00105606  -0.00276536  1
  V  V13  1  0.50754451  0.50614865  0.49576945  1
  V  V14  1  0.24647744  0.87135127  0.13242608  1
  V  V15  1  0.24915127  0.37762723  0.62530327  1
  V  V16  1  0.62569405  0.12568135  0.00284955  1
  V  V17  1  0.37584376  0.63424371  0.74861774  1
  V  V18  1  0.88313137  0.49533966  0.86505836  1
  V  V19  1  0.75340274  0.62067141  0.86420988  1
  V  V20  1  0.62205383  0.74690290  0.37970327  1
  V  V21  1  0.36904227  0.24667612  0.12565789  1
  V  V22  1  0.87929021  0.37776189  0.50255037  1
  V  V23  1  0.00414399  0.12763269  0.62637487  1
  V  V24  1  0.36594383  0.12889730  0.75447415  1
  V  V25  1  0.25352309  0.00586689  0.24983466  1
  V  V26  1  0.36913746  0.37441444  -0.00095377  1
  V  V27  1  0.49945359  0.12413583  0.13851743  1
  V  V28  1  0.00132672  0.00069365  0.49901325  1
  V  V29  1  0.88164287  0.74312565  0.63733063  1
  V  V30  1  0.38078552  0.49642688  0.37292861  1
  V  V31  1  0.11557460  0.37390468  0.75283864  1
  V  V32  1  0.51174429  0.62844504  0.12014334  1
  V  V33  1  0.74379742  0.37379510  0.63151393  1
  V  V34  1  0.25151128  0.24924300  0.49897370  1
  V  V35  1  0.12607138  0.50042985  0.12469206  1
  V  V36  1  0.63835567  -0.01237018  0.13659670  1
  V  V37  1  0.74987820  0.87669675  0.62706256  1
  V  V38  1  0.37390453  0.74840523  0.12302730  1
  V  V39  1  0.12648876  -0.00356541  0.12940553  1
  V  V40  1  0.00541609  0.87510124  0.37005953  1
  V  V41  1  0.62416786  0.25728642  0.87544682  1
  V  V42  1  0.50057548  0.12795356  0.62526507  1
  V  V43  1  0.50379548  0.25565022  0.75062450  1
  V  V44  1  0.37383148  0.62543818  0.24817403  1
  V  V45  1  0.49984913  0.75509054  0.24893291  1
  V  V46  1  0.74408750  0.74601786  0.50586826  1
  V  V47  1  0.62332386  0.74125740  0.87916388  1
  V  V48  1  0.74817820  0.00329584  0.75181309  1
  V  V49  1  0.36943283  0.87014513  0.51172166  1
  V  V50  1  0.37225087  0.87291965  -0.00066397  1
  V  V51  1  0.00003932  0.37934901  0.37710415  1
  V  V52  1  0.87139357  0.24681131  0.12961698  1
  V  V53  1  0.25244281  0.62591418  0.37920381  1
  V  V54  1  0.12468025  0.24648617  0.37542443  1
  V  V55  1  0.74713763  0.37622405  0.12836619  1
  V  V56  1  0.86802635  0.00462876  0.36240935  1
  V  V57  1  0.37716606  0.00481974  0.37106071  1
  V  V58  1  -0.00183008  0.49327459  -0.00274963  1
  V  V59  1  0.74572402  0.62313738  0.37871515  1
  V  V60  1  0.87660488  0.00121792  0.87747747  1
  V  V61  1  0.74744280  0.12696987  0.87680762  1
  V  V62  1  0.49845544  0.27054911  0.25241237  1
  V  V63  1  0.24707330  -0.01077980  0.74581377  1
  V  V64  1  0.49980804  0.00129612  0.50007021  1
  V  V65  1  0.49827493  0.87518248  0.87608591  1
  V  V66  1  0.62256562  0.26596382  0.36993565  1
  V  V67  1  0.75839145  0.74126735  -0.00146293  1
  V  V68  1  0.75176040  0.24976108  0.49647654  1
  V  V69  1  0.36705305  0.00452144  0.87680082  1
  V  V70  1  0.87638915  0.12717635  0.75095359  1
  V  V71  1  0.87540407  0.87518323  0.50154728  1
  V  V72  1  0.50439505  0.87796437  0.37312437  1
  V  V73  1  0.50050613  0.00164971  0.00257617  1
  V  V74  1  0.62365694  0.87747370  0.75378255  1
  V  V75  1  0.25885009  0.49518261  0.76008087  1
  V  V76  1  0.49555296  0.37968269  0.87453465  1
  V  V77  1  0.38291275  0.37494319  0.49497271  1
  V  V78  1  0.13158414  0.25353874  0.88147305  1
  V  V79  1  0.14053344  0.12547799  -0.00408966  1
  V  V80  1  0.12949721  0.75337799  0.37496429  1
  V  V81  1  -0.00929295  0.62505772  0.12287377  1
  V  V82  1  0.87715923  0.50246317  0.37593477  1
  V  V83  1  0.12409625  0.62934306  -0.00007743  1
  V  V84  1  0.12495203  0.37315812  0.24824830  1
  Zn  Zn85  1  0.49542927  0.63358771  0.61872411  1
  Zn  Zn86  1  0.82727210  0.80216516  0.16111296  1
  Zn  Zn87  1  0.87595796  0.25105388  0.62659261  1
  Zn  Zn88  1  0.12920480  0.12369183  0.50247925  1
  Zn  Zn89  1  0.74530457  0.50034183  0.25135545  1
  Zn  Zn90  1  -0.00177862  0.25105203  0.76186822  1
  Zn  Zn91  1  0.49582690  0.75468070  0.74410961  1
  Zn  Zn92  1  0.11692734  0.49573666  0.62192727  1
  Zn  Zn93  1  0.75165188  0.12716769  0.36010489  1
  Zn  Zn94  1  0.25067335  0.49845841  0.24925519  1
  Zn  Zn95  1  -0.00458175  0.24392091  0.25238830  1
  Zn  Zn96  1  -0.00612466  0.61504997  0.63583293  1
  Zn  Zn97  1  0.25128507  0.75247349  0.51540142  1
  Zn  Zn98  1  0.75088745  0.25360688  0.00052952  1
  Zn  Zn99  1  0.25372497  0.62208972  0.87843662  1
  Zn  Zn100  1  0.25602123  0.12775939  0.37179448  1
  Zn  Zn101  1  0.74630893  0.49590783  0.75179523  1
  Zn  Zn102  1  0.87556053  0.37343342  -0.00142004  1
  Zn  Zn103  1  0.24687552  0.36898556  0.12073683  1
  Zn  Zn104  1  0.62594511  0.00278106  0.62470311  1
  Zn  Zn105  1  0.87280913  0.62690866  0.24994911  1
  Zn  Zn106  1  0.24728543  0.74883360  -0.00162529  1
  Zn  Zn107  1  0.18426526  0.18444280  0.18697930  1
  Zn  Zn108  1  0.18618610  0.18805838  0.69042121  1
  Zn  Zn109  1  0.18499658  0.68594447  0.19033039  1
  Zn  Zn110  1  0.19482632  0.68266518  0.68061883  1
  Zn  Zn111  1  0.68107484  0.19186378  0.18739106  1
  Zn  Zn112  1  0.68652401  0.19062071  0.68644012  1
  Zn  Zn113  1  0.69645857  0.71205102  0.20283293  1
  Zn  Zn114  1  0.68177210  0.68930339  0.68852661  1
  Zn  Zn115  1  0.31296709  0.31203926  0.30908919  1
  Zn  Zn116  1  0.30997252  0.31056741  0.81703839  1
  Zn  Zn117  1  0.31463811  0.81743044  0.31577223  1
  Zn  Zn118  1  0.30656907  0.80999612  0.81041974  1
  Zn  Zn119  1  0.81038836  0.31378955  0.30839339  1
  Zn  Zn120  1  0.81324999  0.31436419  0.81457603  1
  Zn  Zn121  1  0.81162386  0.81428967  0.32291125  1
  Zn  Zn122  1  0.80953164  0.81636868  0.81747697  1
  Zn  Zn123  1  0.19283215  0.43651944  0.43459751  1
  Zn  Zn124  1  0.18497797  0.43493192  0.93860248  1
  Zn  Zn125  1  0.18913704  0.93912277  0.43867445  1
  Zn  Zn126  1  0.18791664  0.93424964  0.93715559  1
  Zn  Zn127  1  0.69035626  0.43913048  0.44282015  1
  Zn  Zn128  1  0.68540360  0.44017692  0.94394665  1
  Zn  Zn129  1  0.68704728  0.93591293  0.43626595  1
  Zn  Zn130  1  0.68841378  0.93768284  0.94410108  1
  Zn  Zn131  1  0.31652536  0.06189332  0.06708863  1
  Zn  Zn132  1  0.31302727  0.06148366  0.56251659  1
  Zn  Zn133  1  0.31319229  0.56000329  0.06080974  1
  Zn  Zn134  1  0.31198291  0.56208393  0.56316570  1
  Zn  Zn135  1  0.80927924  0.06216003  0.18180888  1
  Zn  Zn136  1  0.81378685  0.06333058  0.56148842  1
  Zn  Zn137  1  0.81005296  0.56384723  0.05452471  1
  Zn  Zn138  1  0.81066259  0.56122479  0.56143700  1
  Zn  Zn139  1  0.43444194  0.44038605  0.18100256  1
  Zn  Zn140  1  0.43955480  0.43824523  0.68514232  1
  Zn  Zn141  1  0.43844232  0.93770885  0.18716064  1
  Zn  Zn142  1  0.43888008  0.94227629  0.68894473  1
  Zn  Zn143  1  0.93534502  0.43555598  0.18882555  1
  Zn  Zn144  1  0.93876583  0.44118499  0.68346198  1
  Zn  Zn145  1  0.94791822  0.93579487  0.18792271  1
  Zn  Zn146  1  0.93712294  0.94089180  0.68569302  1
  Zn  Zn147  1  0.06489029  0.06021134  0.31116685  1
  Zn  Zn148  1  0.06685519  0.06537868  0.81421870  1
  Zn  Zn149  1  0.06262791  0.56230306  0.31250384  1
  Zn  Zn150  1  0.06850566  0.55900942  0.80950675  1
  Zn  Zn151  1  0.56991000  0.06466241  0.31132115  1
  Zn  Zn152  1  0.55715407  0.06574965  0.81475497  1
  Zn  Zn153  1  0.56117818  0.56648679  0.31041228  1
  Zn  Zn154  1  0.56000109  0.56125027  0.80931169  1
  Zn  Zn155  1  0.44026123  0.18876379  0.43198302  1
  Zn  Zn156  1  0.43660230  0.18869263  0.94088567  1
  Zn  Zn157  1  0.43547544  0.68849158  0.43927232  1
  Zn  Zn158  1  0.43366342  0.68461033  0.93143348  1
  Zn  Zn159  1  0.93891246  0.18725210  0.43834109  1
  Zn  Zn160  1  0.94153960  0.18880052  0.94288831  1
  Zn  Zn161  1  0.93529848  0.69049375  0.43873036  1
  Zn  Zn162  1  0.93846393  0.68355786  0.81637920  1
  Zn  Zn163  1  0.06128596  0.30854362  0.06132940  1
  Zn  Zn164  1  0.06186614  0.31187659  0.56367847  1
  Zn  Zn165  1  0.05951906  0.81236944  0.05915049  1
  Zn  Zn166  1  0.06436505  0.80680878  0.55978156  1
  Zn  Zn167  1  0.56007733  0.31511301  0.06328643  1
  Zn  Zn168  1  0.56451308  0.31628581  0.55977191  1
  Zn  Zn169  1  0.56555100  0.81171292  0.05787209  1
  Zn  Zn170  1  0.55985440  0.81532494  0.56495594  1
  O  O171  1  0.12038374  0.11826594  0.11363457  1
  O  O172  1  0.11754815  0.11833021  0.62560178  1
  O  O173  1  0.11990654  0.61639608  0.12048636  1
  O  O174  1  0.12584788  0.62141645  0.60805174  1
  O  O175  1  0.61668569  0.11790018  0.11751780  1
  O  O176  1  0.62011401  0.12751508  0.61239855  1
  O  O177  1  0.61306017  0.62613914  0.12824213  1
  O  O178  1  0.62495726  0.60995279  0.62502056  1
  O  O179  1  0.36886359  0.38453633  0.38271561  1
  O  O180  1  0.38567841  0.36669890  0.88425643  1
  O  O181  1  0.38641976  0.88527545  0.38210679  1
  O  O182  1  0.37772167  0.88146331  0.87929694  1
  O  O183  1  0.88186029  0.37962893  0.37967490  1
  O  O184  1  0.87007691  0.38962247  0.87983843  1
  O  O185  1  0.88160761  0.88303170  0.38221118  1
  O  O186  1  0.88443143  0.88048554  0.88106830  1
  O  O187  1  0.25782664  0.00008929  0.36644941  1
  O  O188  1  0.25969644  -0.00291959  0.86530715  1
  O  O189  1  0.26254083  0.50802889  0.37329830  1
  O  O190  1  0.24710719  0.49756833  0.86252438  1
  O  O191  1  0.76536769  -0.00127097  0.37726563  1
  O  O192  1  0.75474444  0.00780217  0.87130592  1
  O  O193  1  0.75438134  0.50790437  0.37485483  1
  O  O194  1  0.75377311  0.50528057  0.87400936  1
  O  O195  1  0.23659744  0.49778934  0.12711588  1
  O  O196  1  0.24699237  0.48664465  0.62983702  1
  O  O197  1  0.24660692  0.99349056  0.13139640  1
  O  O198  1  0.24296053  1.00409611  0.63633569  1
  O  O199  1  0.74111721  0.49815194  0.12316287  1
  O  O200  1  0.73945918  0.49321206  0.62385166  1
  O  O201  1  0.73799014  0.99538625  0.12073338  1
  O  O202  1  0.74923379  0.99574040  0.63281791  1
  O  O203  1  0.01046375  0.37242785  0.25791585  1
  O  O204  1  0.01241356  0.37170783  0.74578507  1
  O  O205  1  0.00193902  0.86695779  0.26212646  1
  O  O206  1  -0.00237519  0.88391049  0.76308704  1
  O  O207  1  0.49914646  0.36874691  0.24647217  1
  O  O208  1  0.49326817  0.36452918  0.75819497  1
  O  O209  1  0.49302455  0.86682454  0.26016458  1
  O  O210  1  0.50682803  0.87843038  0.75817134  1
  O  O211  1  0.50297388  0.12907313  0.24017453  1
  O  O212  1  0.49046930  0.13477871  0.74549166  1
  O  O213  1  0.49056114  0.63306193  0.24128285  1
  O  O214  1  0.48465872  0.62403891  0.74956725  1
  O  O215  1  1.00748364  0.12355651  0.23435889  1
  O  O216  1  0.99222835  0.12305735  0.74399920  1
  O  O217  1  0.99996348  0.63063968  0.24213472  1
  O  O218  1  1.00345767  0.62423611  0.74846812  1
  O  O219  1  0.38395028  0.26031547  0.01334554  1
  O  O220  1  0.37262668  0.25694353  0.50221382  1
  O  O221  1  0.37147913  0.75557171  0.00419185  1
  O  O222  1  0.37453844  0.76670801  0.49515519  1
  O  O223  1  0.87380830  0.25176642  0.01189816  1
  O  O224  1  0.86614019  0.25553043  0.49973401  1
  O  O225  1  0.86095447  0.75759074  -0.01018942  1
  O  O226  1  0.86479704  0.76084209  0.50434044  1
  O  O227  1  0.13262912  0.25101103  0.49143501  1
  O  O228  1  0.12591315  0.23761314  0.99465656  1
  O  O229  1  0.12835986  0.73879696  0.48958650  1
  O  O230  1  0.12486618  0.73801048  0.99869129  1
  O  O231  1  0.63064655  0.24561947  0.49210330  1
  O  O232  1  0.62119191  0.24310163  0.99290480  1
  O  O233  1  0.63687866  0.75660814  0.49632458  1
  O  O234  1  0.63941636  0.75851826  0.98643116  1
  O  O235  1  0.49641138  0.24561053  0.13694644  1
  O  O236  1  0.49651884  0.24918888  0.63194185  1
  O  O237  1  0.49626745  0.74695249  0.13020504  1
  O  O238  1  0.50986215  0.74483810  0.63232975  1
  O  O239  1  0.99299458  0.23975416  0.12478798  1
  O  O240  1  0.99880925  0.23730480  0.62837820  1
  O  O241  1  1.00987855  0.73927519  0.13431650  1
  O  O242  1  0.98259677  0.74815959  0.61879939  1
  O  O243  1  0.00629465  0.25870251  0.37377880  1
  O  O244  1  0.01997554  0.23902221  0.87585298  1
  O  O245  1  0.00724856  0.75689118  0.37126808  1
  O  O246  1  0.01353053  0.75728568  0.87213621  1
  O  O247  1  0.50515874  0.25145124  0.36079667  1
  O  O248  1  0.50471776  0.25675190  0.86843599  1
  O  O249  1  0.50405377  0.75651400  0.37222193  1
  O  O250  1  0.50766460  0.75673969  0.87214757  1
  O  O251  1  0.25036182  0.13561281  0.49802521  1
  O  O252  1  0.23865454  0.11967497  1.00465403  1
  O  O253  1  0.24806903  0.62737799  0.48919645  1
  O  O254  1  0.23931418  0.62320211  0.99871618  1
  O  O255  1  0.74484834  0.13513195  0.49782999  1
  O  O256  1  0.73235219  0.12954368  0.99180472  1
  O  O257  1  0.75268949  0.63398529  0.49045582  1
  O  O258  1  0.75226896  0.63440869  0.98171709  1
  O  O259  1  0.26420688  0.37911123  0.00048935  1
  O  O260  1  0.25848519  0.36921451  0.50682092  1
  O  O261  1  0.25719922  0.87514149  0.01155169  1
  O  O262  1  0.26648084  0.87680506  0.49551728  1
  O  O263  1  0.75134306  0.37402127  0.01245357  1
  O  O264  1  0.75944862  0.36598775  0.50549777  1
  O  O265  1  0.76243013  0.86386578  -0.00872591  1
  O  O266  1  0.75688999  0.87026578  0.50616607  1
  O  O267  1  0.12491625  0.49200256  0.24261868  1
  O  O268  1  0.13827637  0.48797241  0.74834269  1
  O  O269  1  0.13251754  1.00049740  0.23664121  1
  O  O270  1  0.14039607  1.00617394  0.74535632  1
  O  O271  1  0.62406821  0.50724960  0.23503104  1
  O  O272  1  0.62400294  0.49682320  0.73440937  1
  O  O273  1  0.62455822  0.99993110  0.23651308  1
  O  O274  1  0.62791634  0.99330133  0.75280113  1
  O  O275  1  0.36653034  -0.00476879  0.25812361  1
  O  O276  1  0.36695708  0.00805685  0.75581696  1
  O  O277  1  0.37405200  0.50575401  0.25592123  1
  O  O278  1  0.36140185  0.49559304  0.74881662  1
  O  O279  1  0.87518692  -0.00634396  0.25797602  1
  O  O280  1  0.86981183  0.01106448  0.75569264  1
  O  O281  1  0.87266980  0.50186788  0.26396956  1
  O  O282  1  0.86976515  0.49232365  0.76176872  1
  O  O283  1  0.11919772  0.36761866  0.37120007  1
  O  O284  1  0.12691761  0.36239070  0.87020690  1
  O  O285  1  0.11700492  0.86647545  0.38275091  1
  O  O286  1  0.12029426  0.85909369  0.87862566  1
  O  O287  1  0.62811804  0.36500256  0.38032480  1
  O  O288  1  0.61593268  0.36345575  0.88185648  1
  O  O289  1  0.61297718  0.86555131  0.38013356  1
  O  O290  1  0.61879187  0.87275167  0.87037425  1
  O  O291  1  0.38772787  0.13414188  0.11911006  1
  O  O292  1  0.38130106  0.13248858  0.63133140  1
  O  O293  1  0.37922157  0.63161958  0.13021617  1
  O  O294  1  0.37608772  0.61265807  0.64324284  1
  O  O295  1  0.88451285  0.13076215  0.12360991  1
  O  O296  1  0.88213957  0.12537790  0.63426363  1
  O  O297  1  0.88759931  0.61795673  0.12574133  1
  O  O298  1  0.87223085  0.64081210  0.61993191  1
  O  O299  1  0.26472380  0.24799171  0.13337984  1
  O  O300  1  0.25536364  0.25917946  0.62114428  1
  O  O301  1  0.25306525  0.75626726  0.12597180  1
  O  O302  1  0.25226391  0.75669927  0.62584227  1
  O  O303  1  0.75411937  0.25814654  0.12302053  1
  O  O304  1  0.74979756  0.25661109  0.61474808  1
  O  O305  1  0.75256004  0.73046397  0.10122516  1
  O  O306  1  0.75630225  0.75550238  0.62205044  1
  O  O307  1  0.24307234  0.24904814  0.37938187  1
  O  O308  1  0.23281864  0.24473105  0.87141388  1
  O  O309  1  0.24433798  0.74472274  0.37673394  1
  O  O310  1  0.23646571  0.74781327  0.87770412  1
  O  O311  1  0.74351249  0.24978993  0.38076279  1
  O  O312  1  0.74016611  0.24597705  0.87568347  1
  O  O313  1  0.74101581  0.74415433  0.38803138  1
  O  O314  1  0.74392987  0.74163716  0.87753662  1
  O  O315  1  0.00695976  0.11145332  0.00834500  1
  O  O316  1  0.00150012  0.11856528  0.50864688  1
  O  O317  1  0.01216193  0.61106015  0.01066212  1
  O  O318  1  0.01317609  0.62757266  0.49656203  1
  O  O319  1  0.50877955  0.12084555  0.00664778  1
  O  O320  1  0.50777872  0.12261211  0.50343641  1
  O  O321  1  0.49179470  0.61807569  0.00772676  1
  O  O322  1  0.49016858  0.61042007  0.50199800  1
  O  O323  1  0.48769744  0.38349656  0.50258624  1
  O  O324  1  0.49247854  0.38177507  0.99276637  1
  O  O325  1  0.49462692  0.88358222  0.49286766  1
  O  O326  1  0.49138050  0.88051512  0.99480819  1
  O  O327  1  0.98731006  0.36733797  0.49289702  1
  O  O328  1  1.00130120  0.38934664  1.00587074  1
  O  O329  1  0.99222700  0.87753023  0.49079756  1
  O  O330  1  0.99852806  0.88376967  0.98922842  1
  O  O331  1  0.48964800  0.50508047  0.37996424  1
  O  O332  1  0.50627548  0.48870915  0.88155372  1
  O  O333  1  0.49751229  0.99501487  0.37744054  1
  O  O334  1  0.48870045  0.99547437  0.88148764  1
  O  O335  1  0.99428202  0.48755324  0.37346268  1
  O  O336  1  0.98949306  0.50243648  0.88063173  1
  O  O337  1  0.99366492  0.99288398  0.37727686  1
  O  O338  1  1.00023815  0.99569847  0.88148047  1
  O  O339  1  0.01009764  0.00333207  0.11795316  1
  O  O340  1  0.00573235  0.00968548  0.62065524  1
  O  O341  1  0.00891548  0.50489753  0.12214687  1
  O  O342  1  0.00307804  0.50194035  0.61794242  1
  O  O343  1  0.50004635  0.00887049  0.11923831  1
  O  O344  1  0.50360022  0.01102636  0.61952564  1
  O  O345  1  0.50490137  0.50984930  0.11941520  1
  O  O346  1  0.51110569  0.49950072  0.61716398  1
  O  O347  1  0.23585437  0.37672805  0.24962711  1
  O  O348  1  0.24633226  0.37997145  0.74422591  1
  O  O349  1  0.25364438  0.88284746  0.23832686  1
  O  O350  1  0.25513410  0.89099601  0.74825631  1
  O  O351  1  0.75194818  0.38087184  0.23489422  1
  O  O352  1  0.75162045  0.37208307  0.73489683  1
  O  O353  1  0.74531352  0.81619396  0.23541989  1
  O  O354  1  0.74304767  0.88410951  0.74910667  1
  O  O355  1  0.24674493  0.11062419  0.25103023  1
  O  O356  1  0.26316541  0.11962629  0.74602377  1
  O  O357  1  0.25497394  0.62381340  0.26191377  1
  O  O358  1  0.25678172  0.60852873  0.75020526  1
  O  O359  1  0.74836685  0.12789870  0.24822279  1
  O  O360  1  0.75546498  0.12260415  0.75495965  1
  O  O361  1  0.75288568  0.62721723  0.26613539  1
  O  O362  1  0.74410275  0.62189024  0.75971216  1
  O  O363  1  0.37619094  0.11001404  0.37857156  1
  O  O364  1  0.38103100  0.11665103  0.86754022  1
  O  O365  1  0.36905112  0.62000250  0.36932083  1
  O  O366  1  0.36983764  0.62231626  0.85809181  1
  O  O367  1  0.87632764  0.10695866  0.37884088  1
  O  O368  1  0.87045013  0.12120911  0.87001548  1
  O  O369  1  0.86868307  0.61753423  0.37745686  1
  O  O370  1  0.86589233  0.60891106  0.87050436  1
  O  O371  1  0.12533722  0.37885650  0.13183700  1
  O  O372  1  0.13367025  0.37177491  0.63306647  1
  O  O373  1  0.13375150  0.88480922  0.11684152  1
  O  O374  1  0.11401513  0.88872117  0.62180026  1
  O  O375  1  0.63177549  0.38596304  0.12096443  1
  O  O376  1  0.63475756  0.38568898  0.61743234  1
  O  O377  1  0.61738625  0.89029353  0.12053238  1
  O  O378  1  0.63233576  0.88029345  0.63615679  1
  O  O379  1  0.12244644  0.25573780  0.25758197  1
  O  O380  1  0.12422183  0.25643743  0.76057324  1
  O  O381  1  0.11689710  0.74345598  0.26575368  1
  O  O382  1  0.12871474  0.74269027  0.75932937  1
  O  O383  1  0.60914419  0.25135570  0.25683881  1
  O  O384  1  0.61289016  0.24456271  0.75913010  1
  O  O385  1  0.60440589  0.74414095  0.26305895  1
  O  O386  1  0.62770502  0.76531468  0.76079024  1
  O  O387  1  0.38912566  0.25405220  0.24337283  1
  O  O388  1  0.38070792  0.24468379  0.74628343  1
  O  O389  1  0.38228219  0.74646065  0.24624367  1
  O  O390  1  0.37434818  0.73811105  0.75173023  1
  O  O391  1  0.87870634  0.25508066  0.23580116  1
  O  O392  1  0.87706032  0.23892106  0.75098829  1
  O  O393  1  0.89321435  0.74742218  0.25277474  1
  O  O394  1  0.87270724  0.75327018  0.74100452  1
  O  O395  1  0.38054561  0.49269238  0.49259380  1
  O  O396  1  0.38894826  0.48922147  1.00790830  1
  O  O397  1  0.38151438  0.99424969  0.49320008  1
  O  O398  1  0.37820403  0.99513340  0.99289664  1
  O  O399  1  0.86800823  0.48949939  0.48759742  1
  O  O400  1  0.88353792  0.49977217  0.98965357  1
  O  O401  1  0.88025019  0.98908672  0.49540972  1
  O  O402  1  0.88730836  0.99090212  0.99038062  1
  O  O403  1  0.12235238  0.00779486  0.00515650  1
  O  O404  1  0.11957747  0.00266371  0.50736862  1
  O  O405  1  0.12014629  0.50433028  0.00607362  1
  O  O406  1  0.13133945  0.51345001  0.49534450  1
  O  O407  1  0.61775795  0.00754612  0.00510841  1
  O  O408  1  0.61997484  0.00955217  0.49867996  1
  O  O409  1  0.60924293  0.50007636  0.01118690  1
  O  O410  1  0.61462740  0.49616297  0.50795402  1
  O  O411  1  0.37192552  0.36666578  0.11821880  1
  O  O412  1  0.36899987  0.36967156  0.61702985  1
  O  O413  1  0.36861557  0.86814189  0.11924886  1
  O  O414  1  0.38209680  0.88307096  0.60967655  1
  O  O415  1  0.86790066  0.36902679  0.12158693  1
  O  O416  1  0.86710216  0.37256807  0.61646709  1
  O  O417  1  0.89199276  0.87446551  0.10652162  1
  O  O418  1  0.87060745  0.86799603  0.61965299  1
  O  O419  1  0.12467921  0.13703974  0.37660692  1
  O  O420  1  0.12762618  0.12812798  0.89055734  1
  O  O421  1  0.13257033  0.62872326  0.38267482  1
  O  O422  1  0.12690714  0.63456589  0.88278156  1
  O  O423  1  0.62696882  0.13376198  0.38566426  1
  O  O424  1  0.62436677  0.13505366  0.88144588  1
  O  O425  1  0.62900751  0.63742138  0.37674909  1
  O  O426  1  0.62773923  0.63651784  0.86857928  1
