# generated using pymatgen
data_V85Zn86O256
_symmetry_space_group_name_H-M   'P 1'
_cell_length_a   16.94844367
_cell_length_b   16.94208223
_cell_length_c   16.94875325
_cell_angle_alpha   90.03259211
_cell_angle_beta   89.94979464
_cell_angle_gamma   89.99572057
_symmetry_Int_Tables_number   1
_chemical_formula_structural   V85Zn86O256
_chemical_formula_sum   'V85 Zn86 O256'
_cell_volume   4866.69498656
_cell_formula_units_Z   1
loop_
 _symmetry_equiv_pos_site_id
 _symmetry_equiv_pos_as_xyz
  1  'x, y, z'
loop_
 _atom_site_type_symbol
 _atom_site_label
 _atom_site_symmetry_multiplicity
 _atom_site_fract_x
 _atom_site_fract_y
 _atom_site_fract_z
 _atom_site_occupancy
  V  V0  1  0.85996637  0.35917223  0.00435742  1
  V  V1  1  0.00085995  0.62605335  0.63015088  1
  V  V2  1  0.37178429  0.12599782  0.24844744  1
  V  V3  1  0.49682346  0.74508564  0.75058505  1
  V  V4  1  0.36855086  0.00240448  0.37974090  1
  V  V5  1  0.26065039  0.00478122  0.74810877  1
  V  V6  1  0.62201597  0.74243371  0.37883371  1
  V  V7  1  0.49677027  0.74814409  0.24869508  1
  V  V8  1  0.62755125  0.50400138  0.62168784  1
  V  V9  1  -0.00458795  -0.00488570  0.50025991  1
  V  V10  1  0.49922963  0.87416842  0.37749627  1
  V  V11  1  0.11251239  0.62084353  0.49053713  1
  V  V12  1  0.75427586  0.37574657  0.62838202  1
  V  V13  1  0.61332792  0.36917129  0.75594054  1
  V  V14  1  0.62032012  0.10915697  -0.00035600  1
  V  V15  1  0.00179045  0.87986600  0.87748110  1
  V  V16  1  0.24843918  0.74915440  0.49899350  1
  V  V17  1  0.62638438  0.61422724  -0.00375643  1
  V  V18  1  0.37889087  -0.01083985  0.88516721  1
  V  V19  1  0.87592233  0.37778154  0.48376596  1
  V  V20  1  0.25084280  0.74885149  0.00418949  1
  V  V21  1  0.12002873  0.25657805  0.87729557  1
  V  V22  1  0.24916702  0.50253371  0.24819641  1
  V  V23  1  0.62578217  0.00835090  0.62078437  1
  V  V24  1  0.63219455  0.74244776  0.87314566  1
  V  V25  1  0.87460310  0.87299955  -0.00037415  1
  V  V26  1  0.12851184  0.75208032  0.87565354  1
  V  V27  1  0.74938165  0.11890255  0.38097292  1
  V  V28  1  0.13125450  0.50147149  0.62854044  1
  V  V29  1  0.74997388  0.00054949  0.74963599  1
  V  V30  1  0.74209175  0.24652932  0.50180571  1
  V  V31  1  -0.00153880  0.48645300  -0.00639915  1
  V  V32  1  0.25233410  0.37292291  0.62922164  1
  V  V33  1  0.50262108  0.00576108  0.50115119  1
  V  V34  1  0.12291161  0.38068259  0.75323798  1
  V  V35  1  0.12312187  0.62401404  0.00106702  1
  V  V36  1  0.62301047  0.87265663  0.75063325  1
  V  V37  1  0.24731112  0.87820020  0.12240422  1
  V  V38  1  0.51408072  0.37316554  0.37389478  1
  V  V39  1  0.62548168  0.87841281  0.24893762  1
  V  V40  1  0.12056707  0.49774485  0.12676599  1
  V  V41  1  0.75242580  0.87415450  0.61978809  1
  V  V42  1  0.37871711  0.24948209  0.62524042  1
  V  V43  1  0.12626876  0.87919872  0.75106632  1
  V  V44  1  -0.01411438  0.24945420  0.25303018  1
  V  V45  1  0.49956263  0.49650205  0.49906426  1
  V  V46  1  0.87791575  0.62668980  0.24975658  1
  V  V47  1  0.49962246  0.62519742  0.61812673  1
  V  V48  1  0.12637447  0.00248296  0.62452803  1
  V  V49  1  0.31771527  0.31725225  0.45041215  1
  V  V50  1  0.12046719  0.12608391  0.00634619  1
  V  V51  1  0.12633165  0.13807188  0.49100926  1
  V  V52  1  0.25080533  0.87576341  0.62501201  1
  V  V53  1  0.87625248  0.75156947  0.61661196  1
  V  V54  1  0.50742075  0.25330415  0.24316308  1
  V  V55  1  0.37684055  0.49985583  0.37770191  1
  V  V56  1  0.25316677  0.61558041  0.86313980  1
  V  V57  1  0.87635024  0.11693406  0.23632635  1
  V  V58  1  0.24778804  0.13020286  0.87123287  1
  V  V59  1  0.62536530  0.49197122  0.12675672  1
  V  V60  1  0.87545574  0.00271471  0.87379257  1
  V  V61  1  0.43169026  0.18265029  0.79741089  1
  V  V62  1  0.74922482  0.88073991  0.12418782  1
  V  V63  1  0.75461386  0.73876251  0.00125040  1
  V  V64  1  -0.00257065  0.75431464  0.75414990  1
  V  V65  1  0.49742307  0.61839756  0.11833710  1
  V  V66  1  0.75202777  0.49206353  0.24939350  1
  V  V67  1  0.38521618  0.38584650  -0.00006581  1
  V  V68  1  0.11321036  0.37140756  0.26521225  1
  V  V69  1  0.50139597  0.10634443  0.12412515  1
  V  V70  1  -0.00844339  0.86899903  0.37764925  1
  V  V71  1  0.74852108  0.50112837  0.76154694  1
  V  V72  1  0.37573440  0.62878519  0.24363253  1
  V  V73  1  0.37302251  0.74451619  0.62863200  1
  V  V74  1  0.74555337  0.74409497  0.50094024  1
  V  V75  1  0.12292813  0.75261669  0.36756760  1
  V  V76  1  0.11741978  0.87719304  0.24793010  1
  V  V77  1  0.74777424  0.13378944  0.87538575  1
  V  V78  1  0.75085580  0.61863343  0.37664906  1
  V  V79  1  0.38681890  0.49811093  0.86222339  1
  V  V80  1  0.00065247  0.12732795  0.62481840  1
  V  V81  1  0.41695212  0.80401839  0.06598317  1
  V  V82  1  -0.00171464  0.25620109  0.75110725  1
  V  V83  1  0.25502602  0.62883710  0.37439126  1
  V  V84  1  0.86936855  0.62616589  0.75899497  1
  Zn  Zn85  1  0.87409482  -0.00303444  0.37887978  1
  Zn  Zn86  1  -0.00047702  0.62862046  0.12815925  1
  Zn  Zn87  1  0.61308226  0.24989701  0.87487394  1
  Zn  Zn88  1  0.87642689  0.25254687  0.62256854  1
  Zn  Zn89  1  0.73896038  0.24467216  0.02132036  1
  Zn  Zn90  1  0.11917438  0.00768318  0.13098049  1
  Zn  Zn91  1  0.50264933  0.13394438  0.62363565  1
  Zn  Zn92  1  0.24918148  0.25690766  0.00430085  1
  Zn  Zn93  1  0.87791522  0.49647151  0.87663308  1
  Zn  Zn94  1  0.75017787  -0.00541307  0.25450565  1
  Zn  Zn95  1  -0.00401300  0.48850881  0.49756232  1
  Zn  Zn96  1  0.37399286  0.87586979  0.50071444  1
  Zn  Zn97  1  0.37514846  0.25271617  0.12037028  1
  Zn  Zn98  1  0.49876621  0.87177283  0.89202808  1
  Zn  Zn99  1  0.68895566  0.32949308  0.18281791  1
  Zn  Zn100  1  0.24481314  0.00505281  0.25087543  1
  Zn  Zn101  1  0.24696064  0.13917686  0.37675893  1
  Zn  Zn102  1  0.87546751  0.12965388  0.75064604  1
  Zn  Zn103  1  0.24950294  0.37736510  0.12074668  1
  Zn  Zn104  1  -0.00509039  0.00803189  0.00796902  1
  Zn  Zn105  1  0.88212247  0.75307023  0.13228070  1
  Zn  Zn106  1  0.62703928  0.24401529  0.37302491  1
  Zn  Zn107  1  0.18660611  0.19588358  0.18937735  1
  Zn  Zn108  1  0.18789790  0.19198278  0.68584218  1
  Zn  Zn109  1  0.18666569  0.68956059  0.18471432  1
  Zn  Zn110  1  0.18488327  0.68883778  0.68757285  1
  Zn  Zn111  1  0.68520714  0.16442723  0.18879682  1
  Zn  Zn112  1  0.68825493  0.19013907  0.69022489  1
  Zn  Zn113  1  0.68887218  0.68578584  0.18677129  1
  Zn  Zn114  1  0.68732090  0.68351482  0.68645996  1
  Zn  Zn115  1  0.31341831  0.31478049  0.28710441  1
  Zn  Zn116  1  0.30497339  0.32460770  0.81703185  1
  Zn  Zn117  1  0.31153090  0.81656580  0.30807942  1
  Zn  Zn118  1  0.31267182  0.81129642  0.81364245  1
  Zn  Zn119  1  0.81427847  0.30397583  0.31479869  1
  Zn  Zn120  1  0.81650731  0.31887843  0.81806665  1
  Zn  Zn121  1  0.81024117  0.80786712  0.31378143  1
  Zn  Zn122  1  0.81125363  0.81218329  0.81229127  1
  Zn  Zn123  1  0.18394973  0.44567478  0.43738251  1
  Zn  Zn124  1  0.18973448  0.43745110  0.93815973  1
  Zn  Zn125  1  0.18237013  0.93935256  0.43937517  1
  Zn  Zn126  1  0.19242841  0.94132918  0.93943876  1
  Zn  Zn127  1  0.68911404  0.43779019  0.44013652  1
  Zn  Zn128  1  0.68616977  0.43175364  0.93710636  1
  Zn  Zn129  1  0.68792864  0.93194604  0.43930713  1
  Zn  Zn130  1  0.69011023  0.93295041  0.93452532  1
  Zn  Zn131  1  0.30595094  0.06528063  0.06239272  1
  Zn  Zn132  1  0.31166939  0.07027516  0.56065327  1
  Zn  Zn133  1  0.31228317  0.55975693  0.05846982  1
  Zn  Zn134  1  0.31171943  0.56130593  0.56322889  1
  Zn  Zn135  1  0.80740167  0.06038053  0.05890339  1
  Zn  Zn136  1  0.81560061  0.06482127  0.56250468  1
  Zn  Zn137  1  0.81345390  0.55668713  0.06746186  1
  Zn  Zn138  1  0.81468751  0.56158567  0.56386759  1
  Zn  Zn139  1  0.43956274  0.43867505  0.18691690  1
  Zn  Zn140  1  0.43356120  0.43630514  0.68477058  1
  Zn  Zn141  1  0.43433899  0.93786570  0.19853018  1
  Zn  Zn142  1  0.43880731  0.93514683  0.68677245  1
  Zn  Zn143  1  0.93510663  0.43804556  0.18469980  1
  Zn  Zn144  1  0.93793427  0.44128866  0.68662696  1
  Zn  Zn145  1  0.93955122  0.93820446  0.18589622  1
  Zn  Zn146  1  0.93636414  0.93866265  0.68708047  1
  Zn  Zn147  1  0.05629410  0.06298551  0.31407445  1
  Zn  Zn148  1  0.06419639  0.06631247  0.81286875  1
  Zn  Zn149  1  0.06231708  0.56196533  0.31580429  1
  Zn  Zn150  1  0.06357055  0.56316678  0.81462594  1
  Zn  Zn151  1  0.56202877  0.06264042  0.31448433  1
  Zn  Zn152  1  0.56478514  0.05442031  0.81694203  1
  Zn  Zn153  1  0.56569907  0.56098884  0.30864531  1
  Zn  Zn154  1  0.56353718  0.56382339  0.80631898  1
  Zn  Zn155  1  0.44652436  0.18262175  0.43320977  1
  Zn  Zn156  1  0.43435181  0.18685081  0.95940608  1
  Zn  Zn157  1  0.43710077  0.68560254  0.44015282  1
  Zn  Zn158  1  0.44265428  0.67421896  0.92861103  1
  Zn  Zn159  1  0.93520476  0.19094958  0.43270514  1
  Zn  Zn160  1  0.93801184  0.19087369  0.93688316  1
  Zn  Zn161  1  0.94531062  0.66831356  0.42937993  1
  Zn  Zn162  1  0.94163807  0.68697233  0.94087662  1
  Zn  Zn163  1  0.06087852  0.30914944  0.07199449  1
  Zn  Zn164  1  0.06079586  0.31471957  0.56281277  1
  Zn  Zn165  1  0.05897353  0.81402147  0.06538587  1
  Zn  Zn166  1  0.06286886  0.81042887  0.56112358  1
  Zn  Zn167  1  0.55721183  0.30466812  0.05439556  1
  Zn  Zn168  1  0.56129502  0.31784116  0.56411214  1
  Zn  Zn169  1  0.57988495  0.80593286  0.06394178  1
  Zn  Zn170  1  0.56358296  0.81567185  0.56083267  1
  O  O171  1  0.13731805  0.12709749  0.10865306  1
  O  O172  1  0.11658788  0.12224156  0.61891620  1
  O  O173  1  0.12557741  0.61534312  0.11779900  1
  O  O174  1  0.12019256  0.61853780  0.62226130  1
  O  O175  1  0.60938002  0.11518384  0.11795134  1
  O  O176  1  0.62532717  0.11120142  0.63112694  1
  O  O177  1  0.61825228  0.61856842  0.11666196  1
  O  O178  1  0.61752655  0.61157437  0.62800774  1
  O  O179  1  0.37397007  0.37552877  0.38174334  1
  O  O180  1  0.37105331  0.39082294  0.88178591  1
  O  O181  1  0.38177943  0.88354689  0.37509552  1
  O  O182  1  0.37492641  0.88473166  0.87828270  1
  O  O183  1  0.87203447  0.37632081  0.38533919  1
  O  O184  1  0.87452879  0.37942348  0.89652513  1
  O  O185  1  0.88851221  0.87022599  0.37094452  1
  O  O186  1  0.88015681  0.88243533  0.87749899  1
  O  O187  1  0.26189930  -0.00236125  0.37687354  1
  O  O188  1  0.26074089  0.00825234  0.86770740  1
  O  O189  1  0.25617517  0.50848226  0.36940547  1
  O  O190  1  0.25033930  0.51321261  0.87328741  1
  O  O191  1  0.75474196  0.00195286  0.37925030  1
  O  O192  1  0.75698569  0.00566328  0.86821902  1
  O  O193  1  0.73937632  0.50932874  0.36465249  1
  O  O194  1  0.75099161  0.49789996  0.86411598  1
  O  O195  1  0.24106003  0.50222903  0.13371505  1
  O  O196  1  0.24357576  0.48858147  0.62126749  1
  O  O197  1  0.24416656  0.99147786  0.12674589  1
  O  O198  1  0.24808789  0.99803882  0.63114742  1
  O  O199  1  0.74129182  0.49973674  0.13866246  1
  O  O200  1  0.74277264  0.49522260  0.63097921  1
  O  O201  1  0.75033590  0.98446221  0.12656627  1
  O  O202  1  0.74578882  0.99236395  0.62732607  1
  O  O203  1  0.00451395  0.36843682  0.24970614  1
  O  O204  1  0.01114084  0.36932892  0.74197217  1
  O  O205  1  0.01153531  0.87540097  0.25935971  1
  O  O206  1  0.00499435  0.87443947  0.75896305  1
  O  O207  1  0.48979615  0.36399551  0.26058188  1
  O  O208  1  0.51618936  0.38066330  0.74349345  1
  O  O209  1  0.50543079  0.86705268  0.25712162  1
  O  O210  1  0.51249392  0.86267248  0.74439040  1
  O  O211  1  0.49527205  0.12891629  0.24131398  1
  O  O212  1  0.49461382  0.12073668  0.74570443  1
  O  O213  1  0.49720998  0.63037162  0.23958349  1
  O  O214  1  0.50515946  0.63804621  0.73571038  1
  O  O215  1  0.98239497  0.12985091  0.25434264  1
  O  O216  1  1.00174568  0.13437155  0.74138943  1
  O  O217  1  0.98064445  0.61346733  0.25209102  1
  O  O218  1  0.99645942  0.63303534  0.74450587  1
  O  O219  1  0.36903287  0.26735730  -0.00062949  1
  O  O220  1  0.37755395  0.25173951  0.50274794  1
  O  O221  1  0.36807351  0.74082238  -0.00331681  1
  O  O222  1  0.36244343  0.74999026  0.50541860  1
  O  O223  1  0.87031601  0.25617299  0.00169445  1
  O  O224  1  0.86582274  0.26202392  0.50132561  1
  O  O225  1  0.86638720  0.75488171  -0.00515918  1
  O  O226  1  0.86844035  0.74277181  0.51434680  1
  O  O227  1  0.11932000  0.23664256  0.50201487  1
  O  O228  1  0.12546855  0.24487400  0.99328852  1
  O  O229  1  0.13567653  0.74557069  0.49248341  1
  O  O230  1  0.13210939  0.74228275  0.99443936  1
  O  O231  1  0.63895947  0.25764855  0.50061808  1
  O  O232  1  0.62162695  0.23419090  0.99174705  1
  O  O233  1  0.63229746  0.75074893  0.49209003  1
  O  O234  1  0.63518644  0.73697604  0.99125130  1
  O  O235  1  0.49505415  0.23986825  0.13096919  1
  O  O236  1  0.48972654  0.25109839  0.62200459  1
  O  O237  1  0.49215546  0.74520907  0.12596099  1
  O  O238  1  0.49365500  0.74431319  0.62651953  1
  O  O239  1  1.02017069  0.24441384  0.15521547  1
  O  O240  1  0.99936086  0.24336042  0.63285475  1
  O  O241  1  0.99461131  0.74100457  0.11736175  1
  O  O242  1  0.99145715  0.75557159  0.63914760  1
  O  O243  1  0.00133451  0.24514797  0.35493528  1
  O  O244  1  0.01184200  0.24659717  0.86616661  1
  O  O245  1  0.01412366  0.75420185  0.38194235  1
  O  O246  1  0.00826330  0.75791754  0.87183788  1
  O  O247  1  0.50571499  0.25614751  0.36780478  1
  O  O248  1  0.48979537  0.23344646  0.86358943  1
  O  O249  1  0.50608894  0.75183615  0.37286124  1
  O  O250  1  0.50764546  0.74974719  0.86540836  1
  O  O251  1  0.23177747  0.12334408  0.49686049  1
  O  O252  1  0.24366943  0.13169237  0.98584404  1
  O  O253  1  0.24117223  0.63117325  0.49400715  1
  O  O254  1  0.23972649  0.62957465  0.99382418  1
  O  O255  1  0.75450030  0.13414920  0.49556318  1
  O  O256  1  0.73980280  0.12461699  0.99203425  1
  O  O257  1  0.75419294  0.63351178  0.49309936  1
  O  O258  1  0.74547012  0.63246927  1.00522932  1
  O  O259  1  0.25938219  0.37649021  0.00171735  1
  O  O260  1  0.25145105  0.37607130  0.50355149  1
  O  O261  1  0.24609556  0.86652101  0.01187405  1
  O  O262  1  0.24879432  0.86688679  0.50728458  1
  O  O263  1  0.75503309  0.36521047  0.00119893  1
  O  O264  1  0.75840153  0.37049910  0.50745220  1
  O  O265  1  0.75333512  0.86481554  0.00575956  1
  O  O266  1  0.74868235  0.85941146  0.50927398  1
  O  O267  1  0.12782103  0.49932949  0.24446570  1
  O  O268  1  0.11807050  0.49538897  0.73819163  1
  O  O269  1  0.12683912  0.99270692  0.25244310  1
  O  O270  1  0.13509764  0.99693307  0.74515479  1
  O  O271  1  0.63750253  0.50329814  0.23949365  1
  O  O272  1  0.63210933  0.49310988  0.74336588  1
  O  O273  1  0.62491791  0.98180922  0.25892094  1
  O  O274  1  0.62899086  0.98894322  0.74338838  1
  O  O275  1  0.37144179  0.01174060  0.26056801  1
  O  O276  1  0.36427784  -0.00550075  0.75587728  1
  O  O277  1  0.36620273  0.50530052  0.25652496  1
  O  O278  1  0.37410657  0.49620909  0.76234913  1
  O  O279  1  0.87462770  0.00734941  0.25518296  1
  O  O280  1  0.86990609  0.00172147  0.76003900  1
  O  O281  1  0.85967404  0.50744354  0.24595558  1
  O  O282  1  0.86811431  0.50751846  0.75288131  1
  O  O283  1  0.11537103  0.39371882  0.36258159  1
  O  O284  1  0.12845508  0.36922373  0.86598246  1
  O  O285  1  0.11936283  0.86922231  0.36824265  1
  O  O286  1  0.12236650  0.87364132  0.87157283  1
  O  O287  1  0.61616533  0.37314946  0.37497509  1
  O  O288  1  0.62395213  0.37186561  0.86131257  1
  O  O289  1  0.61957967  0.86168429  0.37033421  1
  O  O290  1  0.61965500  0.86532372  0.86769888  1
  O  O291  1  0.38196509  0.12317206  0.13206747  1
  O  O292  1  0.37349572  0.14304038  0.62362788  1
  O  O293  1  0.38485779  0.61725566  0.12970513  1
  O  O294  1  0.38072332  0.63675613  0.62151130  1
  O  O295  1  0.87033190  0.11588395  0.13761933  1
  O  O296  1  0.88901926  0.12780818  0.62828444  1
  O  O297  1  0.87211234  0.62597217  0.13961101  1
  O  O298  1  0.88219991  0.63163322  0.63557997  1
  O  O299  1  0.25742042  0.25924658  0.12685174  1
  O  O300  1  0.25550139  0.26355261  0.62588156  1
  O  O301  1  0.25042441  0.75453244  0.11174663  1
  O  O302  1  0.25515854  0.75218845  0.61902515  1
  O  O303  1  0.74076189  0.24491109  0.13405795  1
  O  O304  1  0.75290472  0.25779568  0.62064937  1
  O  O305  1  0.75213655  0.75651546  0.11483708  1
  O  O306  1  0.75393135  0.75366547  0.61994138  1
  O  O307  1  0.26430950  0.26165606  0.38369944  1
  O  O308  1  0.23773001  0.24465177  0.87135072  1
  O  O309  1  0.24606198  0.75060931  0.38280186  1
  O  O310  1  0.24766930  0.74366594  0.88518667  1
  O  O311  1  0.74723895  0.24061065  0.38386627  1
  O  O312  1  0.75055743  0.23683622  0.87103145  1
  O  O313  1  0.74220682  0.74294091  0.38379052  1
  O  O314  1  0.73892194  0.75345775  0.88217140  1
  O  O315  1  0.01659730  0.12731744  -0.00574637  1
  O  O316  1  0.00715082  0.12017856  0.50588171  1
  O  O317  1  0.01492660  0.61713700  -0.00317324  1
  O  O318  1  0.00605711  0.65915633  0.52962797  1
  O  O319  1  0.50261217  0.11858982  0.01538527  1
  O  O320  1  0.50175988  0.11070663  0.50295075  1
  O  O321  1  0.51209681  0.62926824  0.00882077  1
  O  O322  1  0.50081440  0.61984052  0.51136553  1
  O  O323  1  0.49995561  0.38418805  0.48866091  1
  O  O324  1  0.48442258  0.37388904  0.99710127  1
  O  O325  1  0.49616599  0.88366788  0.49399520  1
  O  O326  1  0.49073729  0.85578439  1.00938792  1
  O  O327  1  0.98166703  0.37334546  0.50434991  1
  O  O328  1  1.00328132  0.38542837  1.00305342  1
  O  O329  1  1.00763608  0.88221391  0.49106466  1
  O  O330  1  0.99422795  0.87671862  0.98885975  1
  O  O331  1  0.49733723  0.49303382  0.37812751  1
  O  O332  1  0.48554345  0.51158807  0.87106473  1
  O  O333  1  0.49062738  0.99663567  0.38205591  1
  O  O334  1  0.48374710  0.99153344  0.86919351  1
  O  O335  1  1.01803329  0.56756402  0.41897604  1
  O  O336  1  1.00263425  0.50062219  0.88985519  1
  O  O337  1  0.99833134  0.98843729  0.38442827  1
  O  O338  1  0.99180730  0.99746115  0.87590219  1
  O  O339  1  0.00784662  -0.00617898  0.11862543  1
  O  O340  1  0.00603169  0.00650599  0.62214955  1
  O  O341  1  0.00627964  0.50638973  0.11500714  1
  O  O342  1  0.00542303  0.51301841  0.62101142  1
  O  O343  1  0.49461770  0.00803009  0.13139563  1
  O  O344  1  0.50812452  -0.00117604  0.61827066  1
  O  O345  1  0.51002481  0.51137959  0.13149059  1
  O  O346  1  0.50306891  0.50557865  0.61779532  1
  O  O347  1  0.23909398  0.39189233  0.25022264  1
  O  O348  1  0.23366003  0.37494287  0.74161486  1
  O  O349  1  0.24044736  0.87658918  0.23875133  1
  O  O350  1  0.24554590  0.88246545  0.74508723  1
  O  O351  1  0.75236297  0.38732201  0.25966741  1
  O  O352  1  0.74545140  0.38259240  0.74491803  1
  O  O353  1  0.74328802  0.87204444  0.24351077  1
  O  O354  1  0.73926287  0.87847402  0.74473343  1
  O  O355  1  0.25729577  0.12755166  0.25691148  1
  O  O356  1  0.24311981  0.11801302  0.76020677  1
  O  O357  1  0.25492315  0.61858829  0.25195680  1
  O  O358  1  0.24697847  0.63317946  0.76553824  1
  O  O359  1  0.76183326  0.11485049  0.25891918  1
  O  O360  1  0.75242692  0.11758701  0.75611578  1
  O  O361  1  0.75467403  0.61666325  0.25750394  1
  O  O362  1  0.75868083  0.61494335  0.74457538  1
  O  O363  1  0.37243467  0.11890510  0.36886691  1
  O  O364  1  0.37235589  0.12550494  0.86662289  1
  O  O365  1  0.37289806  0.61974779  0.36689675  1
  O  O366  1  0.36149482  0.61235667  0.87800962  1
  O  O367  1  0.86308624  0.12160044  0.37044444  1
  O  O368  1  0.86808266  0.11793648  0.87475397  1
  O  O369  1  0.85971796  0.62624767  0.36490560  1
  O  O370  1  0.88211179  0.62511594  0.86152618  1
  O  O371  1  0.12398444  0.38871418  0.13589183  1
  O  O372  1  0.13088789  0.38254519  0.62906784  1
  O  O373  1  0.13183039  0.87409759  0.13310063  1
  O  O374  1  0.13144715  0.88084113  0.63068875  1
  O  O375  1  0.61321843  0.38749575  0.11873356  1
  O  O376  1  0.63536270  0.38422659  0.63270463  1
  O  O377  1  0.63526376  0.86828746  0.13709927  1
  O  O378  1  0.63587897  0.87815203  0.63194059  1
  O  O379  1  0.13212528  0.27161753  0.26011899  1
  O  O380  1  0.11580554  0.25839785  0.75538578  1
  O  O381  1  0.13223592  0.75908518  0.25995431  1
  O  O382  1  0.11957694  0.75937193  0.75617634  1
  O  O383  1  0.61473073  0.24925167  0.24837384  1
  O  O384  1  0.62569202  0.26472589  0.75133590  1
  O  O385  1  0.61823108  0.75535882  0.25710023  1
  O  O386  1  0.62242957  0.75304653  0.75592908  1
  O  O387  1  0.38687875  0.23796149  0.24842492  1
  O  O388  1  0.37380379  0.25232465  0.74689098  1
  O  O389  1  0.38212588  0.74085423  0.25503258  1
  O  O390  1  0.38441967  0.75462677  0.74184938  1
  O  O391  1  0.87946640  0.23823443  0.24718541  1
  O  O392  1  0.88806118  0.25274961  0.75116779  1
  O  O393  1  0.86746952  0.73141028  0.25016059  1
  O  O394  1  0.87619435  0.74394749  0.74320999  1
  O  O395  1  0.38877517  0.50769826  0.49271436  1
  O  O396  1  0.37285157  0.49200747  0.98840499  1
  O  O397  1  0.38106982  0.99964125  0.49572076  1
  O  O398  1  0.36865746  1.00705537  0.98210097  1
  O  O399  1  0.87362995  0.48352873  0.50317749  1
  O  O400  1  0.89009766  0.50395280  0.99807429  1
  O  O401  1  0.89118489  1.00092506  0.50321845  1
  O  O402  1  0.87319731  0.99354212  0.98734567  1
  O  O403  1  0.12728957  0.01881937  -0.00498471  1
  O  O404  1  0.11512885  0.00713196  0.50803648  1
  O  O405  1  0.11768111  0.50401118  0.00672586  1
  O  O406  1  0.12237920  0.50351451  0.51512181  1
  O  O407  1  0.62397598  0.00891329  -0.01172954  1
  O  O408  1  0.61642312  -0.01038178  0.51081645  1
  O  O409  1  0.63502863  0.50915258  0.00670037  1
  O  O410  1  0.61340293  0.49539522  0.50922892  1
  O  O411  1  0.37413598  0.38166524  0.11228701  1
  O  O412  1  0.36561063  0.36492739  0.62651542  1
  O  O413  1  0.36679685  0.87274784  0.13002894  1
  O  O414  1  0.36889885  0.86295564  0.62312384  1
  O  O415  1  0.87925475  0.38263476  0.10135425  1
  O  O416  1  0.86192781  0.37568589  0.62661606  1
  O  O417  1  0.86716124  0.87142251  0.11830249  1
  O  O418  1  0.86080109  0.86691189  0.63376703  1
  O  O419  1  0.12577551  0.12213660  0.38732114  1
  O  O420  1  0.13244606  0.13424562  0.88076827  1
  O  O421  1  0.14029893  0.63775654  0.37007478  1
  O  O422  1  0.13491615  0.62997002  0.88077372  1
  O  O423  1  0.64209393  0.12386689  0.36851673  1
  O  O424  1  0.63086975  0.12521185  0.87803653  1
  O  O425  1  0.63248536  0.63581709  0.36963104  1
  O  O426  1  0.62172942  0.63106274  0.88199556  1
