# generated using pymatgen
data_V85Zn86O256
_symmetry_space_group_name_H-M   'P 1'
_cell_length_a   16.94639998
_cell_length_b   16.93302750
_cell_length_c   16.93917545
_cell_angle_alpha   89.98124853
_cell_angle_beta   89.99448937
_cell_angle_gamma   89.96076781
_symmetry_Int_Tables_number   1
_chemical_formula_structural   V85Zn86O256
_chemical_formula_sum   'V85 Zn86 O256'
_cell_volume   4860.76030592
_cell_formula_units_Z   1
loop_
 _symmetry_equiv_pos_site_id
 _symmetry_equiv_pos_as_xyz
  1  'x, y, z'
loop_
 _atom_site_type_symbol
 _atom_site_label
 _atom_site_symmetry_multiplicity
 _atom_site_fract_x
 _atom_site_fract_y
 _atom_site_fract_z
 _atom_site_occupancy
  V  V0  1  0.62546410  0.25069930  0.87185336  1
  V  V1  1  0.25034213  0.00132628  0.24968736  1
  V  V2  1  -0.00069339  0.49862284  -0.00424982  1
  V  V3  1  0.76025191  0.75486774  0.50244661  1
  V  V4  1  0.62534474  0.38840854  0.74712983  1
  V  V5  1  0.74613214  0.86383582  0.12667339  1
  V  V6  1  0.37856095  0.65008017  0.74823070  1
  V  V7  1  0.50131699  0.86414493  0.87728880  1
  V  V8  1  0.87399662  0.86498217  0.00864488  1
  V  V9  1  0.14453626  0.24560024  0.87281520  1
  V  V10  1  0.00329593  0.11584964  0.61803716  1
  V  V11  1  0.00206438  0.37190066  0.87097565  1
  V  V12  1  0.13447018  0.62668734  0.49638356  1
  V  V13  1  0.12732008  0.25022649  0.37602488  1
  V  V14  1  0.12132293  0.87854641  0.25005739  1
  V  V15  1  0.00141309  0.50190613  0.49666794  1
  V  V16  1  0.49940260  0.23523147  0.74781780  1
  V  V17  1  0.13166675  0.75125688  0.37490303  1
  V  V18  1  0.12712527  -0.01346439  0.61549572  1
  V  V19  1  0.74699120  0.25036782  0.50053113  1
  V  V20  1  0.87608520  0.37363962  -0.00242981  1
  V  V21  1  0.87264503  0.12174530  0.24994087  1
  V  V22  1  0.12157586  0.62590521  -0.00844587  1
  V  V23  1  0.62251291  0.86152613  0.74724188  1
  V  V24  1  -0.00396584  0.62982836  0.12176657  1
  V  V25  1  -0.00011095  -0.00204634  -0.00649565  1
  V  V26  1  0.74667533  0.62815602  0.37438845  1
  V  V27  1  0.88032515  -0.01429410  0.87306834  1
  V  V28  1  0.36096545  0.37870194  0.00202749  1
  V  V29  1  -0.00057031  0.12477259  0.12234917  1
  V  V30  1  0.13286131  0.49425869  0.12142265  1
  V  V31  1  0.24248304  0.74897006  -0.00269917  1
  V  V32  1  0.49894293  0.37629980  0.37779110  1
  V  V33  1  0.12808684  0.49652588  0.62200469  1
  V  V34  1  0.87607726  0.24988705  0.62553291  1
  V  V35  1  0.87795244  0.50116255  0.37225762  1
  V  V36  1  0.37797067  -0.00398543  0.37520159  1
  V  V37  1  0.13675264  0.37434335  0.24372608  1
  V  V38  1  -0.00538862  0.75153205  0.76616060  1
  V  V39  1  0.50157403  0.50423128  -0.00164696  1
  V  V40  1  0.75456864  0.12371503  0.87281304  1
  V  V41  1  0.49926027  0.00254013  0.50933303  1
  V  V42  1  -0.00453375  0.87964320  0.38844499  1
  V  V43  1  0.50514376  0.64679352  0.63183906  1
  V  V44  1  0.37084522  0.37881281  0.50945655  1
  V  V45  1  0.50416831  0.50085407  0.51376833  1
  V  V46  1  0.74821872  0.39013735  0.62808358  1
  V  V47  1  0.00105670  0.24985953  0.24953300  1
  V  V48  1  -0.00644801  0.63506509  0.62271374  1
  V  V49  1  0.75305905  0.50112158  0.24865181  1
  V  V50  1  0.37458424  0.87025752  0.51996351  1
  V  V51  1  0.36379124  0.25856867  0.12229970  1
  V  V52  1  0.00508393  0.24685186  0.74945769  1
  V  V53  1  0.87856310  0.12169380  0.75096673  1
  V  V54  1  0.25062708  0.12817975  0.37642809  1
  V  V55  1  0.37138622  0.51234380  0.37592592  1
  V  V56  1  0.76265778  0.86963962  0.62344163  1
  V  V57  1  0.74823320  -0.00486490  0.74844783  1
  V  V58  1  0.37991195  0.23518437  0.62732498  1
  V  V59  1  0.74913650  0.61873610  0.88090309  1
  V  V60  1  0.13407161  0.12832816  -0.00543178  1
  V  V61  1  0.63184874  0.74392936  0.89819202  1
  V  V62  1  0.00226175  0.37619982  0.37306754  1
  V  V63  1  0.37857845  0.12868787  0.24791614  1
  V  V64  1  0.46557024  0.02730844  -0.01769049  1
  V  V65  1  0.75065520  0.25208225  -0.00239797  1
  V  V66  1  0.75009112  0.37701681  0.12301410  1
  V  V67  1  0.13007676  0.37369934  0.74438231  1
  V  V68  1  0.87415725  0.37532105  0.50002196  1
  V  V69  1  0.87759691  0.62705817  0.24486934  1
  V  V70  1  0.24604198  0.63318472  0.86960115  1
  V  V71  1  0.62493631  0.37479802  0.24986344  1
  V  V72  1  0.61895556  0.12602109  0.50580098  1
  V  V73  1  0.87430480  -0.00197279  0.38828650  1
  V  V74  1  0.37622528  0.50287663  0.87099036  1
  V  V75  1  0.24842963  0.87424829  0.12592686  1
  V  V76  1  0.37788397  0.86857567  0.00158107  1
  V  V77  1  0.49382308  0.62208271  0.13356732  1
  V  V78  1  0.25444677  0.49993061  0.74166929  1
  V  V79  1  0.62584105  0.50799367  0.12021722  1
  V  V80  1  -0.00579444  0.75620117  0.24537719  1
  V  V81  1  0.63211775  0.11742795  0.00057970  1
  V  V82  1  0.37016437  0.74230509  0.13770675  1
  V  V83  1  0.24860537  0.25153790  0.51366091  1
  V  V84  1  0.12512633  0.86845009  0.76345637  1
  Zn  Zn85  1  0.61850887  0.87840282  0.25162027  1
  Zn  Zn86  1  0.62359988  0.24881268  0.37506602  1
  Zn  Zn87  1  0.74355471  0.00128504  0.24695996  1
  Zn  Zn88  1  0.62871095  0.62492683  0.50894869  1
  Zn  Zn89  1  0.74697979  0.12337662  0.37536549  1
  Zn  Zn90  1  0.86535423  0.49532825  0.86352129  1
  Zn  Zn91  1  0.24871906  0.76442594  0.51163876  1
  Zn  Zn92  1  0.32823222  0.06534455  0.84158073  1
  Zn  Zn93  1  0.49995038  0.37718024  0.87409373  1
  Zn  Zn94  1  0.62239049  0.00096928  0.62920816  1
  Zn  Zn95  1  0.50015371  0.75055716  0.25436273  1
  Zn  Zn96  1  0.12587386  0.00080601  0.12262694  1
  Zn  Zn97  1  0.50131489  0.87309682  0.37251204  1
  Zn  Zn98  1  0.86366085  0.62126937  0.74391346  1
  Zn  Zn99  1  0.26319541  0.51448325  0.24758826  1
  Zn  Zn100  1  0.87431499  0.24988601  0.12515456  1
  Zn  Zn101  1  0.49932517  0.25376324  0.24730773  1
  Zn  Zn102  1  0.50371738  0.13072211  0.12389463  1
  Zn  Zn103  1  0.12313982  0.12022283  0.49804792  1
  Zn  Zn104  1  0.62339309  0.75556151  0.37424181  1
  Zn  Zn105  1  0.25285082  -0.00704866  0.74247265  1
  Zn  Zn106  1  0.62238086  0.00011535  0.12324838  1
  Zn  Zn107  1  0.18819299  0.18638469  0.18494642  1
  Zn  Zn108  1  0.19670950  0.17205534  0.69621572  1
  Zn  Zn109  1  0.18254900  0.68571606  0.18477840  1
  Zn  Zn110  1  0.18197167  0.69471379  0.68798095  1
  Zn  Zn111  1  0.68914984  0.18935683  0.18591088  1
  Zn  Zn112  1  0.68804607  0.18873103  0.68565785  1
  Zn  Zn113  1  0.68404083  0.69061498  0.18800696  1
  Zn  Zn114  1  0.68832337  0.68541005  0.68864721  1
  Zn  Zn115  1  0.31413406  0.31673397  0.31622214  1
  Zn  Zn116  1  0.31744914  0.31686682  0.80658046  1
  Zn  Zn117  1  0.31191895  0.81334499  0.31445584  1
  Zn  Zn118  1  0.30135022  0.84341357  0.82192358  1
  Zn  Zn119  1  0.81307946  0.31090733  0.31292853  1
  Zn  Zn120  1  0.81213963  0.31437838  0.80857541  1
  Zn  Zn121  1  0.81143815  0.81418024  0.31107221  1
  Zn  Zn122  1  0.80965009  0.80403628  0.81243140  1
  Zn  Zn123  1  0.19107872  0.43616282  0.43712552  1
  Zn  Zn124  1  0.18675518  0.44064791  0.92848718  1
  Zn  Zn125  1  0.19017458  0.93696583  0.43879663  1
  Zn  Zn126  1  0.18858923  0.94133979  0.93542068  1
  Zn  Zn127  1  0.68631712  0.43999399  0.43821458  1
  Zn  Zn128  1  0.68486022  0.43947770  0.93558415  1
  Zn  Zn129  1  0.68803971  0.93835424  0.43657702  1
  Zn  Zn130  1  0.69342918  0.93023058  0.93635318  1
  Zn  Zn131  1  0.31235514  0.06588560  0.06301697  1
  Zn  Zn132  1  0.30964261  0.05871096  0.56218920  1
  Zn  Zn133  1  0.31171403  0.56352090  0.05899366  1
  Zn  Zn134  1  0.29917080  0.60445551  0.58069848  1
  Zn  Zn135  1  0.81155513  0.05658831  0.06435109  1
  Zn  Zn136  1  0.80864683  0.06422825  0.56535678  1
  Zn  Zn137  1  0.81247831  0.56530105  0.05537309  1
  Zn  Zn138  1  0.81490641  0.56656290  0.55845801  1
  Zn  Zn139  1  0.43626636  0.43784071  0.18964056  1
  Zn  Zn140  1  0.43840558  0.43142105  0.68933669  1
  Zn  Zn141  1  0.44250573  0.94121026  0.17835001  1
  Zn  Zn142  1  0.43838065  0.94408593  0.69709365  1
  Zn  Zn143  1  0.94301733  0.43784537  0.18377440  1
  Zn  Zn144  1  0.93860373  0.43925110  0.68484623  1
  Zn  Zn145  1  0.93471268  0.94107932  0.18531240  1
  Zn  Zn146  1  0.94259096  0.93334979  0.68767044  1
  Zn  Zn147  1  0.06008161  0.06139505  0.31462777  1
  Zn  Zn148  1  0.07352461  0.05934349  0.80837931  1
  Zn  Zn149  1  0.09436474  0.57773386  0.29638239  1
  Zn  Zn150  1  0.05784588  0.56286421  0.80681279  1
  Zn  Zn151  1  0.56380775  0.06058733  0.31638963  1
  Zn  Zn152  1  0.56415189  0.05653222  0.81732464  1
  Zn  Zn153  1  0.56128642  0.55942949  0.31427711  1
  Zn  Zn154  1  0.56280979  0.57274991  0.81124636  1
  Zn  Zn155  1  0.43759588  0.18913350  0.43872238  1
  Zn  Zn156  1  0.44004474  0.19980339  0.94132266  1
  Zn  Zn157  1  0.44062318  0.68975945  0.44305387  1
  Zn  Zn158  1  0.43804370  0.68763231  0.94050288  1
  Zn  Zn159  1  0.93586019  0.18651913  0.43642262  1
  Zn  Zn160  1  0.94147092  0.18599892  0.93442889  1
  Zn  Zn161  1  0.94049390  0.68883634  0.43192660  1
  Zn  Zn162  1  0.93033360  0.68409481  0.93423815  1
  Zn  Zn163  1  0.06598876  0.30899420  0.06011402  1
  Zn  Zn164  1  0.06298561  0.31186268  0.56281184  1
  Zn  Zn165  1  0.06145294  0.81427540  0.05964085  1
  Zn  Zn166  1  0.05850975  0.81011328  0.55928506  1
  Zn  Zn167  1  0.55586147  0.31549515  0.06163501  1
  Zn  Zn168  1  0.56145621  0.31310575  0.56800421  1
  Zn  Zn169  1  0.55885331  0.81034272  0.06930100  1
  Zn  Zn170  1  0.57167039  0.81668533  0.55291436  1
  O  O171  1  0.11744501  0.12596554  0.11281325  1
  O  O172  1  0.11341388  0.11590112  0.62553115  1
  O  O173  1  0.11098720  0.61568420  0.11181940  1
  O  O174  1  0.11140882  0.61335987  0.61475141  1
  O  O175  1  0.62555081  0.12678784  0.11352761  1
  O  O176  1  0.63212587  0.12151441  0.61161419  1
  O  O177  1  0.61880354  0.61206390  0.12741249  1
  O  O178  1  0.60956924  0.62551047  0.62872024  1
  O  O179  1  0.38435805  0.37699669  0.38768165  1
  O  O180  1  0.37660295  0.38835996  0.88005006  1
  O  O181  1  0.37340767  0.89088551  0.37336371  1
  O  O182  1  0.39290864  0.85801347  0.88764823  1
  O  O183  1  0.88216078  0.38094338  0.37934979  1
  O  O184  1  0.88227751  0.37482533  0.87973476  1
  O  O185  1  0.88089454  0.89043589  0.36890632  1
  O  O186  1  0.86822379  0.88268765  0.88498121  1
  O  O187  1  0.25598431  0.00903564  0.36986273  1
  O  O188  1  0.26803011  -0.04005892  0.86070703  1
  O  O189  1  0.26937700  0.49289870  0.37685928  1
  O  O190  1  0.25785664  0.51177181  0.86599803  1
  O  O191  1  0.76334142  0.00182311  0.37043159  1
  O  O192  1  0.75881694  0.00185036  0.86442671  1
  O  O193  1  0.75810655  0.50563043  0.36919609  1
  O  O194  1  0.74657175  0.51258493  0.87519133  1
  O  O195  1  0.23594224  0.50560681  0.12611078  1
  O  O196  1  0.24187886  0.51081660  0.63163143  1
  O  O197  1  0.24823049  0.99489952  0.13321448  1
  O  O198  1  0.22973543  1.00473321  0.62516673  1
  O  O199  1  0.74383336  0.49697566  0.12670826  1
  O  O200  1  0.75440838  0.48922852  0.61877731  1
  O  O201  1  0.74741849  0.98900544  0.12724857  1
  O  O202  1  0.75021356  0.99356349  0.63700008  1
  O  O203  1  0.00230282  0.36477288  0.25467298  1
  O  O204  1  0.01030492  0.36622894  0.75043312  1
  O  O205  1  0.00336555  0.87119455  0.25019804  1
  O  O206  1  0.00597512  0.85838812  0.74711413  1
  O  O207  1  0.50938496  0.37738427  0.25900191  1
  O  O208  1  0.51420858  0.36640933  0.75149400  1
  O  O209  1  0.49710769  0.87325994  0.24889435  1
  O  O210  1  0.51171735  0.88328737  0.76658922  1
  O  O211  1  0.48703142  0.12876853  0.25124237  1
  O  O212  1  0.50655833  0.13584964  0.75900822  1
  O  O213  1  0.50289422  0.62136047  0.23680234  1
  O  O214  1  0.49333507  0.63131019  0.74144566  1
  O  O215  1  0.99649823  0.13040424  0.24116282  1
  O  O216  1  0.99779305  0.12814193  0.74085402  1
  O  O217  1  0.99905634  0.63344230  0.23893779  1
  O  O218  1  1.00541420  0.63752539  0.73614402  1
  O  O219  1  0.37656564  0.26425320  0.01247187  1
  O  O220  1  0.36891550  0.25710072  0.50730535  1
  O  O221  1  0.36216743  0.75231029  0.00877895  1
  O  O222  1  0.37384950  0.76862792  0.49636359  1
  O  O223  1  0.87315420  0.26089964  -0.00238350  1
  O  O224  1  0.86917805  0.25615925  0.50529013  1
  O  O225  1  0.88613461  0.76746754  -0.00107991  1
  O  O226  1  0.85966308  0.74423583  0.49398082  1
  O  O227  1  0.13389224  0.24994443  0.49575399  1
  O  O228  1  0.12146503  0.23711320  0.98920582  1
  O  O229  1  0.12780646  0.74456121  0.49379646  1
  O  O230  1  0.13508210  0.74350381  1.00314778  1
  O  O231  1  0.63142467  0.24621210  0.50178503  1
  O  O232  1  0.62968868  0.24874234  0.98733931  1
  O  O233  1  0.63944602  0.74334797  0.49375583  1
  O  O234  1  0.62572201  0.74864270  0.99620923  1
  O  O235  1  0.48865944  0.24988380  0.12834585  1
  O  O236  1  0.49314374  0.24939175  0.63521631  1
  O  O237  1  0.48690216  0.73845364  0.12563943  1
  O  O238  1  0.50420157  0.74430499  0.61917774  1
  O  O239  1  0.99815100  0.23913799  0.12810564  1
  O  O240  1  0.99699066  0.24093596  0.63139187  1
  O  O241  1  1.00509123  0.74139967  0.13174620  1
  O  O242  1  0.99875322  0.73637374  0.62280225  1
  O  O243  1  0.00789652  0.25382159  0.37037967  1
  O  O244  1  0.00620017  0.25430696  0.86493334  1
  O  O245  1  0.00276471  0.76325589  0.36569577  1
  O  O246  1  0.00314707  0.74118146  0.86415621  1
  O  O247  1  0.50121503  0.26483432  0.37408406  1
  O  O248  1  0.50865709  0.25561291  0.86837277  1
  O  O249  1  0.50222069  0.75148337  0.37279599  1
  O  O250  1  0.51599436  0.75321997  0.88251562  1
  O  O251  1  0.24775060  0.13368413  0.49240509  1
  O  O252  1  0.23243554  0.11941443  1.00024900  1
  O  O253  1  0.23267672  0.61211916  0.48431806  1
  O  O254  1  0.24333189  0.63009294  0.99051471  1
  O  O255  1  0.74449588  0.13529107  0.49925258  1
  O  O256  1  0.75005958  0.13356214  0.99397556  1
  O  O257  1  0.74931532  0.63188741  0.49158355  1
  O  O258  1  0.75163175  0.62709695  0.98348276  1
  O  O259  1  0.26161707  0.38611622  -0.00385631  1
  O  O260  1  0.25937956  0.36426950  0.49770122  1
  O  O261  1  0.25120640  0.86404565  0.00768892  1
  O  O262  1  0.26800656  0.88038135  0.50142706  1
  O  O263  1  0.75806418  0.37202473  0.00106330  1
  O  O264  1  0.75333741  0.37054445  0.50681607  1
  O  O265  1  0.76547378  0.87798753  0.01054753  1
  O  O266  1  0.74808329  0.86346434  0.50800111  1
  O  O267  1  0.10552542  0.48272315  0.23236768  1
  O  O268  1  0.13127255  0.49673092  0.73940666  1
  O  O269  1  0.13067468  0.99497154  0.24895710  1
  O  O270  1  0.11781250  0.98081573  0.73791191  1
  O  O271  1  0.63190093  0.49061835  0.24300767  1
  O  O272  1  0.61912943  0.48629900  0.75547767  1
  O  O273  1  0.62439094  1.00008851  0.24248219  1
  O  O274  1  0.63530195  0.99126927  0.75302899  1
  O  O275  1  0.37117799  0.01031560  0.25445952  1
  O  O276  1  0.36906952  0.01001972  0.74919682  1
  O  O277  1  0.37673980  0.49649771  0.26793585  1
  O  O278  1  0.36972903  0.50088581  0.75589074  1
  O  O279  1  0.87598894  0.01398520  0.25415304  1
  O  O280  1  0.87177763  0.00064409  0.75700840  1
  O  O281  1  0.87332860  0.50501082  0.25264900  1
  O  O282  1  0.89248459  0.50904992  0.75521486  1
  O  O283  1  0.11982105  0.37065675  0.36614363  1
  O  O284  1  0.12096679  0.36538179  0.86720916  1
  O  O285  1  0.11540584  0.87219299  0.37064976  1
  O  O286  1  0.12156193  0.87414569  0.86237538  1
  O  O287  1  0.61891220  0.37638168  0.36657853  1
  O  O288  1  0.62667346  0.36706747  0.86416547  1
  O  O289  1  0.62118579  0.87605032  0.37196550  1
  O  O290  1  0.62206577  0.86163717  0.87492751  1
  O  O291  1  0.37560739  0.13776801  0.13122473  1
  O  O292  1  0.37446037  0.13645384  0.61670165  1
  O  O293  1  0.37967582  0.62972453  0.12372582  1
  O  O294  1  0.39512154  0.62076447  0.63940910  1
  O  O295  1  0.88229420  0.12692461  0.13061911  1
  O  O296  1  0.88573582  0.12707640  0.63056456  1
  O  O297  1  0.88851244  0.61718930  0.12671793  1
  O  O298  1  0.89040469  0.61981032  0.62516366  1
  O  O299  1  0.26438258  0.25016029  0.12695832  1
  O  O300  1  0.25405540  0.24256049  0.61793833  1
  O  O301  1  0.25240386  0.75061188  0.11933194  1
  O  O302  1  0.25547211  0.70879181  0.60918483  1
  O  O303  1  0.75278078  0.25951393  0.11540664  1
  O  O304  1  0.75736736  0.25644020  0.61585498  1
  O  O305  1  0.75044935  0.76388019  0.12544805  1
  O  O306  1  0.74869893  0.75422228  0.61200253  1
  O  O307  1  0.24564269  0.24596555  0.38236279  1
  O  O308  1  0.24356379  0.25536677  0.87132250  1
  O  O309  1  0.23416386  0.75676466  0.37806279  1
  O  O310  1  0.25346584  0.73992961  0.88265517  1
  O  O311  1  0.74933815  0.25267499  0.39013466  1
  O  O312  1  0.74489192  0.24493517  0.87732275  1
  O  O313  1  0.75173669  0.74301802  0.38164135  1
  O  O314  1  0.73728556  0.74573464  0.88055348  1
  O  O315  1  0.00388882  0.11720144  0.00625565  1
  O  O316  1  0.00173347  0.13267564  0.51552387  1
  O  O317  1  0.00088330  0.61730437  0.00100009  1
  O  O318  1  0.00190788  0.61933839  0.50755178  1
  O  O319  1  0.51838700  0.12870857  -0.00232774  1
  O  O320  1  0.50779183  0.11833587  0.49709136  1
  O  O321  1  0.49305607  0.61097524  0.01146783  1
  O  O322  1  0.49931251  0.61589259  0.51628301  1
  O  O323  1  0.49735175  0.38306490  0.49647269  1
  O  O324  1  0.49008912  0.38895818  0.99640805  1
  O  O325  1  0.48933487  0.88458691  0.49736562  1
  O  O326  1  0.48995739  0.87118780  0.99685438  1
  O  O327  1  0.99562459  0.38129744  0.49388344  1
  O  O328  1  0.99409348  0.37880147  0.99459137  1
  O  O329  1  0.99581345  0.87254627  0.48731762  1
  O  O330  1  0.99013630  0.88970787  1.00793039  1
  O  O331  1  0.49369279  0.49161546  0.38293473  1
  O  O332  1  0.49292336  0.50412271  0.88052495  1
  O  O333  1  0.48960452  1.00229248  0.38638956  1
  O  O334  1  0.50789074  0.98839735  0.89542101  1
  O  O335  1  0.99845011  0.49765785  0.38504131  1
  O  O336  1  1.00647566  0.49181301  0.88562666  1
  O  O337  1  0.98669781  0.99344551  0.37173503  1
  O  O338  1  0.99178244  1.00521636  0.88189247  1
  O  O339  1  0.00201832  0.01224991  0.11759968  1
  O  O340  1  0.00658104  0.01014719  0.62674148  1
  O  O341  1  0.00581793  0.50349847  0.10929333  1
  O  O342  1  0.00729562  0.50439493  0.61115606  1
  O  O343  1  0.49534879  0.01105909  0.09668490  1
  O  O344  1  0.50263404  -0.00279248  0.61285989  1
  O  O345  1  0.50546120  0.50313815  0.11948562  1
  O  O346  1  0.50009360  0.49471113  0.61379905  1
  O  O347  1  0.23791663  0.38288582  0.25424225  1
  O  O348  1  0.24491429  0.39139340  0.75249450  1
  O  O349  1  0.24272724  0.88063788  0.24515239  1
  O  O350  1  0.22644855  0.86437762  0.73765799  1
  O  O351  1  0.74620488  0.38119184  0.24431961  1
  O  O352  1  0.73739207  0.37148202  0.74153378  1
  O  O353  1  0.75266620  0.87742035  0.23481475  1
  O  O354  1  0.74400282  0.87803507  0.74589302  1
  O  O355  1  0.25986646  0.12269420  0.25489208  1
  O  O356  1  0.23754073  0.10760154  0.77592639  1
  O  O357  1  0.20266062  0.60841937  0.26105263  1
  O  O358  1  0.25750906  0.61832462  0.75556530  1
  O  O359  1  0.75978852  0.12804447  0.25353766  1
  O  O360  1  0.75760873  0.11618793  0.75231730  1
  O  O361  1  0.75799431  0.62016522  0.25295303  1
  O  O362  1  0.75057228  0.63607071  0.76823988  1
  O  O363  1  0.36947712  0.12015501  0.36843640  1
  O  O364  1  0.38980216  0.09807070  0.93245218  1
  O  O365  1  0.37906910  0.61070917  0.38282314  1
  O  O366  1  0.37036454  0.61856109  0.86780540  1
  O  O367  1  0.87574533  0.11580114  0.36797356  1
  O  O368  1  0.87130553  0.11673377  0.86881261  1
  O  O369  1  0.86837638  0.61878651  0.36668282  1
  O  O370  1  0.86110643  0.62012582  0.87353784  1
  O  O371  1  0.12195655  0.38034988  0.12984140  1
  O  O372  1  0.12237068  0.38848055  0.62710720  1
  O  O373  1  0.13107770  0.87777688  0.13086363  1
  O  O374  1  0.11633136  0.88509139  0.62296037  1
  O  O375  1  0.62947270  0.38316301  0.13108825  1
  O  O376  1  0.63374840  0.37206259  0.63858842  1
  O  O377  1  0.63687390  0.87778185  0.12037574  1
  O  O378  1  0.63350930  0.87792332  0.63404579  1
  O  O379  1  0.12116588  0.25652995  0.25259914  1
  O  O380  1  0.12393889  0.25266886  0.75446551  1
  O  O381  1  0.11317027  0.75947198  0.25633911  1
  O  O382  1  0.11008374  0.75928357  0.74431050  1
  O  O383  1  0.62574936  0.26376324  0.25113174  1
  O  O384  1  0.62192515  0.25221726  0.75943292  1
  O  O385  1  0.62091759  0.75595301  0.25339486  1
  O  O386  1  0.62675248  0.76098468  0.75622865  1
  O  O387  1  0.37447887  0.24763924  0.24157784  1
  O  O388  1  0.38642918  0.25449316  0.74064432  1
  O  O389  1  0.36949222  0.74692370  0.24034526  1
  O  O390  1  0.36495453  0.74632689  0.75893998  1
  O  O391  1  0.88248372  0.23933106  0.25084311  1
  O  O392  1  0.88256495  0.24355040  0.74377212  1
  O  O393  1  0.88752326  0.74413846  0.25347557  1
  O  O394  1  0.88996525  0.74517355  0.75412494  1
  O  O395  1  0.38810510  0.49197297  0.49285338  1
  O  O396  1  0.37938795  0.49718126  0.99114827  1
  O  O397  1  0.38057019  0.99457719  0.49434331  1
  O  O398  1  0.36754901  0.97531923  1.01143275  1
  O  O399  1  0.88231569  0.49409566  0.49337103  1
  O  O400  1  0.88228048  0.48800493  0.99392956  1
  O  O401  1  0.87225847  1.00718481  0.48683702  1
  O  O402  1  0.88258455  0.99548652  0.99109905  1
  O  O403  1  0.11720673  0.00875866  -0.00250551  1
  O  O404  1  0.12320983  0.00048187  0.51074684  1
  O  O405  1  0.11847710  0.50241692  0.00352887  1
  O  O406  1  0.11857078  0.50300432  0.50264639  1
  O  O407  1  0.63696490  0.01422759  -0.00427118  1
  O  O408  1  0.61707430  0.00815490  0.50169726  1
  O  O409  1  0.61487227  0.49313826  0.00940802  1
  O  O410  1  0.60837451  0.50449584  0.49448030  1
  O  O411  1  0.37496993  0.36798541  0.11929521  1
  O  O412  1  0.37895077  0.36628066  0.61293172  1
  O  O413  1  0.36684388  0.86169465  0.12092639  1
  O  O414  1  0.38027195  0.87601849  0.61796343  1
  O  O415  1  0.87007860  0.37443304  0.11484808  1
  O  O416  1  0.86977590  0.36914421  0.61932282  1
  O  O417  1  0.86747810  0.87813225  0.11478096  1
  O  O418  1  0.86185323  0.87762231  0.62968151  1
  O  O419  1  0.13054631  0.13196481  0.37582071  1
  O  O420  1  0.11574168  0.13292217  0.88720004  1
  O  O421  1  0.10127530  0.64301246  0.38934575  1
  O  O422  1  0.13483502  0.61706338  0.87893744  1
  O  O423  1  0.62777358  0.12990313  0.38778851  1
  O  O424  1  0.63544957  0.13201703  0.87972884  1
  O  O425  1  0.64130137  0.62028702  0.37188460  1
  O  O426  1  0.63179461  0.63727121  0.87608488  1
