# generated using pymatgen
data_V85Zn86O256
_symmetry_space_group_name_H-M   'P 1'
_cell_length_a   16.99162451
_cell_length_b   17.00206776
_cell_length_c   17.01536062
_cell_angle_alpha   90.01628981
_cell_angle_beta   89.88149300
_cell_angle_gamma   89.93020449
_symmetry_Int_Tables_number   1
_chemical_formula_structural   V85Zn86O256
_chemical_formula_sum   'V85 Zn86 O256'
_cell_volume   4915.59997628
_cell_formula_units_Z   1
loop_
 _symmetry_equiv_pos_site_id
 _symmetry_equiv_pos_as_xyz
  1  'x, y, z'
loop_
 _atom_site_type_symbol
 _atom_site_label
 _atom_site_symmetry_multiplicity
 _atom_site_fract_x
 _atom_site_fract_y
 _atom_site_fract_z
 _atom_site_occupancy
  V  V0  1  -0.01031307  0.25166174  0.24947919  1
  V  V1  1  0.75699993  0.00135693  0.24612872  1
  V  V2  1  0.00706138  -0.00939404  0.50100800  1
  V  V3  1  0.75647802  0.50998151  0.75027668  1
  V  V4  1  0.86615481  0.62099918  0.25956102  1
  V  V5  1  0.25793276  0.86104521  0.63310288  1
  V  V6  1  0.37599973  0.38544464  -0.00374418  1
  V  V7  1  0.62427791  0.12947805  0.00111808  1
  V  V8  1  0.50474899  -0.00187344  0.49886404  1
  V  V9  1  0.88178689  0.87415107  0.49665618  1
  V  V10  1  0.12349915  0.11811855  0.00635841  1
  V  V11  1  0.50141850  0.50005926  0.50006903  1
  V  V12  1  0.31860421  0.06816292  0.20787327  1
  V  V13  1  0.75976127  0.37833592  0.12299983  1
  V  V14  1  0.36987384  0.62616495  0.25764306  1
  V  V15  1  0.37291264  0.37486722  0.50039679  1
  V  V16  1  0.37595959  0.86563518  0.00376291  1
  V  V17  1  0.87757539  0.74796775  0.11872156  1
  V  V18  1  0.75866083  0.12890884  0.36915258  1
  V  V19  1  0.12569573  0.24695466  0.37275352  1
  V  V20  1  0.24891523  0.12856919  0.87389215  1
  V  V21  1  0.75784924  0.25622719  -0.00133222  1
  V  V22  1  0.38022790  0.61798058  0.75787381  1
  V  V23  1  -0.00003116  0.61387675  0.11490370  1
  V  V24  1  0.62698053  0.00104627  0.12362317  1
  V  V25  1  0.49400498  0.75140051  0.74582104  1
  V  V26  1  0.11336742  0.62129069  -0.01298786  1
  V  V27  1  0.25007222  0.37421435  0.62619976  1
  V  V28  1  -0.00630872  0.11732880  0.12895384  1
  V  V29  1  0.86932036  0.48861473  0.39283640  1
  V  V30  1  0.49568460  0.24288650  0.25082564  1
  V  V31  1  0.36767626  0.01074412  0.38128535  1
  V  V32  1  0.62223729  0.49822478  0.12276227  1
  V  V33  1  0.75738370  0.36961186  0.61610537  1
  V  V34  1  0.36095372  0.50132338  0.37712667  1
  V  V35  1  0.75395646  0.74238806  0.49662899  1
  V  V36  1  0.88251822  0.74577402  0.62712507  1
  V  V37  1  0.63075718  0.74040704  0.37539898  1
  V  V38  1  0.50361273  0.12645594  0.62498920  1
  V  V39  1  -0.00678772  0.37737670  0.89099875  1
  V  V40  1  0.62675454  0.87548380  0.24948330  1
  V  V41  1  0.75395429  0.87590680  0.62105610  1
  V  V42  1  0.06069812  0.91415190  0.31614827  1
  V  V43  1  0.25139089  0.24523936  0.49579398  1
  V  V44  1  0.50172807  0.75044544  0.24734926  1
  V  V45  1  0.63233895  0.12951928  0.49655873  1
  V  V46  1  0.75356939  0.87322218  0.11424247  1
  V  V47  1  0.62366863  0.37463843  0.24779236  1
  V  V48  1  0.24572409  0.00022218  0.74780014  1
  V  V49  1  0.49698490  0.62935341  0.62217632  1
  V  V50  1  0.62361241  0.25350658  0.87568468  1
  V  V51  1  -0.00345786  0.25249570  0.74941788  1
  V  V52  1  0.12242100  0.25112663  0.87724908  1
  V  V53  1  0.25587099  0.73905974  0.49761147  1
  V  V54  1  0.62935635  0.37772274  0.74860552  1
  V  V55  1  0.88252884  -0.00718305  0.88122782  1
  V  V56  1  0.37064701  0.26059110  0.13021706  1
  V  V57  1  0.37849802  0.00231796  0.87317455  1
  V  V58  1  0.87176721  0.49793465  0.88182037  1
  V  V59  1  0.50030566  0.37520679  0.37461098  1
  V  V60  1  0.00462119  0.73781634  0.26289014  1
  V  V61  1  0.50134206  0.25153077  0.74939513  1
  V  V62  1  0.49690477  0.62712716  0.12579029  1
  V  V63  1  0.50321312  0.87595175  0.87300782  1
  V  V64  1  0.63183974  0.74594223  0.87289138  1
  V  V65  1  -0.00261759  0.62092466  0.62107095  1
  V  V66  1  0.37598137  0.12721351  0.74960088  1
  V  V67  1  0.24629206  0.63860544  0.87735293  1
  V  V68  1  0.24989856  0.25659551  0.00488680  1
  V  V69  1  0.62770568  0.24928794  0.37457461  1
  V  V70  1  0.62508927  0.87570304  0.74742779  1
  V  V71  1  0.87754194  0.12669417  0.74860674  1
  V  V72  1  0.87909309  -0.00528359  0.36618214  1
  V  V73  1  0.75391740  0.00319054  0.74736150  1
  V  V74  1  0.25513914  0.49677384  0.76141669  1
  V  V75  1  0.63044521  0.00182524  0.62410459  1
  V  V76  1  0.12448019  0.37368458  0.75357234  1
  V  V77  1  0.63068944  0.62602113  -0.00265370  1
  V  V78  1  0.50314566  0.87433425  0.37376870  1
  V  V79  1  0.11480898  0.85968952  0.75968478  1
  V  V80  1  0.13409427  0.11838495  0.49792812  1
  V  V81  1  0.12273905  0.50255863  0.62326951  1
  V  V82  1  0.50296123  0.00093745  0.00192292  1
  V  V83  1  0.13260964  0.37481466  0.24297359  1
  V  V84  1  0.92773397  0.67824596  0.80495302  1
  Zn  Zn85  1  0.62749713  0.50108145  0.62385341  1
  Zn  Zn86  1  0.75488949  0.74972041  -0.00667898  1
  Zn  Zn87  1  0.18671759  0.68500208  0.33031324  1
  Zn  Zn88  1  0.00789117  -0.01036832  0.00116947  1
  Zn  Zn89  1  0.21982928  0.77798840  0.01363897  1
  Zn  Zn90  1  0.74499422  0.50418310  0.25540340  1
  Zn  Zn91  1  0.37516847  0.24856424  0.62529523  1
  Zn  Zn92  1  0.13038798  0.49511459  0.11675018  1
  Zn  Zn93  1  0.38156812  0.86865862  0.51061548  1
  Zn  Zn94  1  -0.00735105  0.37243387  0.38825234  1
  Zn  Zn95  1  0.33090825  0.78907017  0.16108141  1
  Zn  Zn96  1  0.49522497  0.12402719  0.12871639  1
  Zn  Zn97  1  0.00433445  0.12517381  0.62257152  1
  Zn  Zn98  1  0.87447665  0.25020535  0.12449613  1
  Zn  Zn99  1  0.12290352  0.62788431  0.49246234  1
  Zn  Zn100  1  0.88046865  0.25900102  0.60309046  1
  Zn  Zn101  1  0.24585592  0.50263449  0.24885578  1
  Zn  Zn102  1  0.49516560  0.50689657  -0.00873901  1
  Zn  Zn103  1  0.49398177  0.38884987  0.86827132  1
  Zn  Zn104  1  0.62821339  0.62212935  0.49913288  1
  Zn  Zn105  1  0.75199965  0.12611498  0.87529975  1
  Zn  Zn106  1  0.12707835  -0.00372303  0.62679054  1
  Zn  Zn107  1  0.18230575  0.19185370  0.18345382  1
  Zn  Zn108  1  0.18530402  0.18678087  0.68375215  1
  Zn  Zn109  1  0.16829024  0.72757794  0.15959314  1
  Zn  Zn110  1  0.18658410  0.68456941  0.69203984  1
  Zn  Zn111  1  0.68903112  0.18862918  0.18668728  1
  Zn  Zn112  1  0.69169744  0.19016308  0.68661941  1
  Zn  Zn113  1  0.68703970  0.68826797  0.18390508  1
  Zn  Zn114  1  0.68517581  0.68838706  0.68219318  1
  Zn  Zn115  1  0.31081589  0.31323823  0.31515626  1
  Zn  Zn116  1  0.31357661  0.31200020  0.81570497  1
  Zn  Zn117  1  0.31652002  0.82423306  0.32444146  1
  Zn  Zn118  1  0.31505374  0.81374504  0.81549266  1
  Zn  Zn119  1  0.81091013  0.31767509  0.31335623  1
  Zn  Zn120  1  0.81203471  0.31637684  0.81063977  1
  Zn  Zn121  1  0.81574782  0.81205179  0.30895816  1
  Zn  Zn122  1  0.80840702  0.81798157  0.80846060  1
  Zn  Zn123  1  0.15343744  0.42219659  0.45275605  1
  Zn  Zn124  1  0.18596677  0.43960863  0.94271526  1
  Zn  Zn125  1  0.19453424  0.92631749  0.44687357  1
  Zn  Zn126  1  0.18903781  0.93905992  0.93178224  1
  Zn  Zn127  1  0.68871291  0.43907106  0.43626150  1
  Zn  Zn128  1  0.68784460  0.43967729  0.93635462  1
  Zn  Zn129  1  0.69287729  0.93556444  0.43524304  1
  Zn  Zn130  1  0.69003421  0.93932735  0.93260611  1
  Zn  Zn131  1  0.31123864  0.05959835  0.04701957  1
  Zn  Zn132  1  0.31564882  0.05919306  0.56506847  1
  Zn  Zn133  1  0.28680045  0.59991772  0.08658779  1
  Zn  Zn134  1  0.31569894  0.55989429  0.57175113  1
  Zn  Zn135  1  0.81204527  0.06739987  0.06050766  1
  Zn  Zn136  1  0.83492267  0.09260330  0.54160880  1
  Zn  Zn137  1  0.81129338  0.56512379  0.06542086  1
  Zn  Zn138  1  0.81162115  0.56332952  0.56974661  1
  Zn  Zn139  1  0.43494858  0.44033102  0.18645403  1
  Zn  Zn140  1  0.43801048  0.43846343  0.68646440  1
  Zn  Zn141  1  0.19670466  0.91707169  0.17757008  1
  Zn  Zn142  1  0.43774866  0.94126261  0.68728528  1
  Zn  Zn143  1  0.94056553  0.43817988  0.19622984  1
  Zn  Zn144  1  0.93562064  0.43759150  0.68785262  1
  Zn  Zn145  1  0.93804850  0.93226568  0.17716364  1
  Zn  Zn146  1  0.93991965  0.93798747  0.68492167  1
  Zn  Zn147  1  0.07948421  0.07632102  0.30103719  1
  Zn  Zn148  1  0.06248769  0.06314423  0.81525377  1
  Zn  Zn149  1  0.05300386  0.55409388  0.31686374  1
  Zn  Zn150  1  0.06275393  0.55524232  0.81163764  1
  Zn  Zn151  1  0.56363605  0.06109432  0.31175936  1
  Zn  Zn152  1  0.56644530  0.06588730  0.81386249  1
  Zn  Zn153  1  0.55952654  0.56130206  0.31346338  1
  Zn  Zn154  1  0.56661632  0.56139170  0.81358852  1
  Zn  Zn155  1  0.44137845  0.18859495  0.44058748  1
  Zn  Zn156  1  0.43787339  0.19322050  0.93847795  1
  Zn  Zn157  1  0.43404022  0.68922974  0.43912092  1
  Zn  Zn158  1  0.44353272  0.68312348  0.93129499  1
  Zn  Zn159  1  0.94572964  0.17868040  0.43198980  1
  Zn  Zn160  1  0.93853530  0.18154706  0.93573859  1
  Zn  Zn161  1  0.93706723  0.67885214  0.43931151  1
  Zn  Zn162  1  0.93560374  0.81654727  0.94126840  1
  Zn  Zn163  1  0.06101124  0.30747064  0.06618905  1
  Zn  Zn164  1  0.06190385  0.30990284  0.56368814  1
  Zn  Zn165  1  0.05608260  0.80730774  0.06332431  1
  Zn  Zn166  1  0.07104280  0.81040572  0.56975572  1
  Zn  Zn167  1  0.55750520  0.31381143  0.06363683  1
  Zn  Zn168  1  0.56694897  0.31294330  0.56306309  1
  Zn  Zn169  1  0.56243518  0.81330631  0.06203611  1
  Zn  Zn170  1  0.56620506  0.81093072  0.56230997  1
  O  O171  1  0.11144716  0.13122386  0.11543365  1
  O  O172  1  0.12385578  0.11991775  0.61324907  1
  O  O173  1  0.10784858  0.62735276  0.11623190  1
  O  O174  1  0.11515548  0.61645786  0.63421640  1
  O  O175  1  0.62393723  0.12011427  0.11610218  1
  O  O176  1  0.62602474  0.12122402  0.61562442  1
  O  O177  1  0.61595229  0.61777409  0.12171329  1
  O  O178  1  0.61076769  0.62176732  0.62270541  1
  O  O179  1  0.38199723  0.38088611  0.38209154  1
  O  O180  1  0.37783399  0.36700034  0.89179463  1
  O  O181  1  0.39288138  0.88521550  0.38266456  1
  O  O182  1  0.38678477  0.88490435  0.87524694  1
  O  O183  1  0.87211801  0.38165810  0.38433420  1
  O  O184  1  0.87987263  0.38666620  0.87354894  1
  O  O185  1  0.87109551  0.88596863  0.38173111  1
  O  O186  1  0.87225097  0.88800647  0.87247653  1
  O  O187  1  0.27006286  -0.00904624  0.38825068  1
  O  O188  1  0.25844035  0.00994583  0.86659914  1
  O  O189  1  0.26141507  0.49154466  0.37106194  1
  O  O190  1  0.24784362  0.49832756  0.86260592  1
  O  O191  1  0.75942423  0.00337629  0.36406815  1
  O  O192  1  0.75737014  0.00162405  0.86155688  1
  O  O193  1  0.76225996  0.49554449  0.37083369  1
  O  O194  1  0.75826507  0.49374032  0.86081669  1
  O  O195  1  0.24184479  0.51156038  0.13622856  1
  O  O196  1  0.24798226  0.49099222  0.63894316  1
  O  O197  1  0.26384869  1.00872456  0.14249437  1
  O  O198  1  0.25131512  0.99134933  0.63510742  1
  O  O199  1  0.73766956  0.49382409  0.12597946  1
  O  O200  1  0.74889189  0.49030196  0.63514617  1
  O  O201  1  0.74881782  0.99492146  0.12883537  1
  O  O202  1  0.74814496  0.99756717  0.63536921  1
  O  O203  1  0.00840623  0.36363374  0.25484020  1
  O  O204  1  0.00260812  0.36369017  0.75467200  1
  O  O205  1  0.00211187  0.85943597  0.24942139  1
  O  O206  1  0.01705077  0.87960076  0.74406183  1
  O  O207  1  0.50605504  0.36727011  0.25386474  1
  O  O208  1  0.50835658  0.36866186  0.74822228  1
  O  O209  1  0.51016875  0.86433346  0.26058954  1
  O  O210  1  0.50580795  0.86970160  0.75128764  1
  O  O211  1  0.50509856  0.13895692  0.25004136  1
  O  O212  1  0.49773512  0.13089835  0.74497883  1
  O  O213  1  0.49893242  0.63355122  0.24595083  1
  O  O214  1  0.49566536  0.63157045  0.74580847  1
  O  O215  1  1.00618228  0.13293274  0.23546004  1
  O  O216  1  0.99674809  0.13728637  0.75202848  1
  O  O217  1  0.98746229  0.62876588  0.24535457  1
  O  O218  1  0.99689001  0.62741233  0.74602791  1
  O  O219  1  0.36769912  0.25287307  0.01023191  1
  O  O220  1  0.36867472  0.25587772  0.50233960  1
  O  O221  1  0.38863051  0.76706523  -0.01183354  1
  O  O222  1  0.36501067  0.75309754  0.50390354  1
  O  O223  1  0.85970635  0.24434802  -0.00382198  1
  O  O224  1  0.87015203  0.19930093  0.50962505  1
  O  O225  1  0.87103585  0.74764915  0.01471157  1
  O  O226  1  0.87076951  0.75341527  0.50566490  1
  O  O227  1  0.13290040  0.23702159  0.49315225  1
  O  O228  1  0.13329941  0.24396596  0.99695227  1
  O  O229  1  0.14829890  0.74446197  0.51565485  1
  O  O230  1  0.11801852  0.72787047  0.99364063  1
  O  O231  1  0.62092361  0.23861408  0.49059520  1
  O  O232  1  0.62679064  0.24583378  0.99381248  1
  O  O233  1  0.63544398  0.75024868  0.49165006  1
  O  O234  1  0.62408627  0.74466583  0.98965635  1
  O  O235  1  0.48876910  0.24557139  0.13250620  1
  O  O236  1  0.50127720  0.24286265  0.63088522  1
  O  O237  1  0.50956654  0.74309013  0.13858835  1
  O  O238  1  0.50590988  0.74281053  0.63377631  1
  O  O239  1  0.99372499  0.24193037  0.13243829  1
  O  O240  1  0.99749862  0.24723751  0.63334120  1
  O  O241  1  0.99019955  0.73745563  0.13745591  1
  O  O242  1  0.98729999  0.74584857  0.62358412  1
  O  O243  1  0.00832634  0.24806604  0.36682508  1
  O  O244  1  0.00294253  0.25613552  0.86943659  1
  O  O245  1  -0.01154443  0.74596206  0.36066745  1
  O  O246  1  -0.02446538  0.73781484  0.86739037  1
  O  O247  1  0.50414189  0.25590044  0.36849335  1
  O  O248  1  0.51225375  0.25255973  0.86924990  1
  O  O249  1  0.50918853  0.75739393  0.37161240  1
  O  O250  1  0.51224381  0.75612891  0.86441650  1
  O  O251  1  0.24309676  0.13008706  0.50709998  1
  O  O252  1  0.24327714  0.13450419  0.99394872  1
  O  O253  1  0.25777258  0.63771797  0.51156031  1
  O  O254  1  0.24089211  0.61580812  0.97792872  1
  O  O255  1  0.73603285  0.10828248  0.48274654  1
  O  O256  1  0.73776395  0.13458103  0.99850738  1
  O  O257  1  0.74762541  0.63927360  0.50801752  1
  O  O258  1  0.73368570  0.63091727  1.00939690  1
  O  O259  1  0.25842849  0.36309555  -0.00476895  1
  O  O260  1  0.25029543  0.36651900  0.50963007  1
  O  O261  1  0.27009032  0.87833498  -0.01238139  1
  O  O262  1  0.25603210  0.86317335  0.51961577  1
  O  O263  1  0.73930799  0.36639598  0.01086829  1
  O  O264  1  0.73935167  0.37708261  0.51901705  1
  O  O265  1  0.74404739  0.87465333  0.01147681  1
  O  O266  1  0.75931003  0.86873568  0.50530890  1
  O  O267  1  0.12255217  0.47999464  0.25532962  1
  O  O268  1  0.13438841  0.49050070  0.74398714  1
  O  O269  1  0.11951911  0.97538861  0.25683890  1
  O  O270  1  0.13896308  1.00301998  0.75129551  1
  O  O271  1  0.62415734  0.49359963  0.24289327  1
  O  O272  1  0.63549909  0.49164052  0.74845602  1
  O  O273  1  0.63132905  0.99446334  0.24259724  1
  O  O274  1  0.63415175  0.99790656  0.74547843  1
  O  O275  1  0.37485616  0.00825203  0.26852693  1
  O  O276  1  0.36826988  0.00786943  0.75522829  1
  O  O277  1  0.37726778  0.50721502  0.26117707  1
  O  O278  1  0.36880023  0.50738299  0.74828091  1
  O  O279  1  0.86813396  -0.00900132  0.25346615  1
  O  O280  1  0.87035286  0.00313497  0.75809639  1
  O  O281  1  0.86783220  0.51333080  0.24813826  1
  O  O282  1  0.86043339  0.49545109  0.75524320  1
  O  O283  1  0.12919230  0.35638702  0.36091674  1
  O  O284  1  0.11618998  0.37026109  0.87127406  1
  O  O285  1  0.12156683  0.86701301  0.37773374  1
  O  O286  1  0.12921026  0.87905824  0.85839541  1
  O  O287  1  0.62111102  0.36812058  0.36852023  1
  O  O288  1  0.62380048  0.36930354  0.86398600  1
  O  O289  1  0.61811126  0.87020458  0.37157529  1
  O  O290  1  0.62032667  0.87165748  0.86626788  1
  O  O291  1  0.37192738  0.12470489  0.13409563  1
  O  O292  1  0.38526962  0.12545987  0.63163498  1
  O  O293  1  0.39355503  0.61760746  0.14022584  1
  O  O294  1  0.38960122  0.62035885  0.64005102  1
  O  O295  1  0.88951175  0.12853795  0.11988604  1
  O  O296  1  0.88354731  0.11496503  0.64450138  1
  O  O297  1  0.88227163  0.62866660  0.13204132  1
  O  O298  1  0.88314715  0.63256760  0.62661419  1
  O  O299  1  0.25920087  0.24580770  0.11598937  1
  O  O300  1  0.25044290  0.25729318  0.61596617  1
  O  O301  1  0.26735554  0.71478947  0.10199618  1
  O  O302  1  0.25642174  0.75912775  0.63258182  1
  O  O303  1  0.75248358  0.25801561  0.11720245  1
  O  O304  1  0.75514212  0.26582673  0.63080148  1
  O  O305  1  0.75532325  0.75908862  0.12417561  1
  O  O306  1  0.75952084  0.75597175  0.61838146  1
  O  O307  1  0.24633242  0.25254383  0.39022004  1
  O  O308  1  0.24324639  0.24492972  0.88191552  1
  O  O309  1  0.25492969  0.75226549  0.39349771  1
  O  O310  1  0.25118018  0.73907613  0.87767047  1
  O  O311  1  0.74734452  0.23390787  0.36429982  1
  O  O312  1  0.73931928  0.25265440  0.88102488  1
  O  O313  1  0.74242104  0.75833826  0.38423604  1
  O  O314  1  0.73647084  0.75772803  0.87492003  1
  O  O315  1  0.00775993  0.12323475  0.00981456  1
  O  O316  1  0.01867011  0.10660550  0.49393376  1
  O  O317  1  -0.00192448  0.61948575  0.01427266  1
  O  O318  1  0.00380692  0.62810827  0.51699140  1
  O  O319  1  0.51032842  0.12146542  -0.00101497  1
  O  O320  1  0.51258562  0.11722857  0.50406274  1
  O  O321  1  0.50810568  0.62731690  0.01026424  1
  O  O322  1  0.49889106  0.61813140  0.50767286  1
  O  O323  1  0.49483023  0.38154779  0.49736530  1
  O  O324  1  0.48548419  0.37510128  0.99850388  1
  O  O325  1  0.50347709  0.88260627  0.49568243  1
  O  O326  1  0.49889618  0.88466945  0.99205419  1
  O  O327  1  1.04540984  0.38633108  0.48803055  1
  O  O328  1  1.00123994  0.36823517  0.98944756  1
  O  O329  1  1.00050275  0.88262252  0.50500291  1
  O  O330  1  0.99126992  0.87946006  1.01273432  1
  O  O331  1  0.49643797  0.49304243  0.38651319  1
  O  O332  1  0.49990125  0.50141298  0.87822508  1
  O  O333  1  0.49887607  0.99392183  0.38266834  1
  O  O334  1  0.50028981  0.99762055  0.88278314  1
  O  O335  1  0.97216453  0.49104666  0.36539083  1
  O  O336  1  0.98292756  0.48957584  0.86724908  1
  O  O337  1  1.00366957  0.98897976  0.36911562  1
  O  O338  1  0.98600037  1.00421686  0.87868301  1
  O  O339  1  -0.00179965  0.01356050  0.12412121  1
  O  O340  1  0.00586437  0.00210980  0.61318402  1
  O  O341  1  0.00324019  0.51207476  0.13268407  1
  O  O342  1  0.01006790  0.50785384  0.63473040  1
  O  O343  1  0.50899945  0.00563756  0.10747260  1
  O  O344  1  0.50948031  0.00587987  0.61810031  1
  O  O345  1  0.51036571  0.50626115  0.12199540  1
  O  O346  1  0.50107983  0.50448296  0.61285421  1
  O  O347  1  0.23521753  0.36981425  0.24894042  1
  O  O348  1  0.24834373  0.37787438  0.74537337  1
  O  O349  1  0.25869532  0.84118854  0.23385532  1
  O  O350  1  0.24936456  0.88178481  0.74615098  1
  O  O351  1  0.73841009  0.37463369  0.24015574  1
  O  O352  1  0.74322723  0.38194061  0.74231022  1
  O  O353  1  0.74440623  0.88490676  0.24306737  1
  O  O354  1  0.74383432  0.88433166  0.74060201  1
  O  O355  1  0.25188012  0.12654266  0.25271710  1
  O  O356  1  0.25542892  0.12005686  0.75265849  1
  O  O357  1  0.26701907  0.63230124  0.25935452  1
  O  O358  1  0.25848880  0.61753759  0.75937974  1
  O  O359  1  0.74497245  0.11003257  0.25469339  1
  O  O360  1  0.75774142  0.11880121  0.75128290  1
  O  O361  1  0.76291175  0.62592408  0.24462599  1
  O  O362  1  0.74317906  0.60808552  0.74217767  1
  O  O363  1  0.37901624  0.10976691  0.38647146  1
  O  O364  1  0.37065548  0.12263678  0.87056193  1
  O  O365  1  0.38712436  0.61209570  0.36822578  1
  O  O366  1  0.36468872  0.62771945  0.86500139  1
  O  O367  1  0.86888997  0.10630237  0.37115701  1
  O  O368  1  0.87258042  0.11577016  0.86403333  1
  O  O369  1  0.87369501  0.61629968  0.36316338  1
  O  O370  1  0.87582452  0.61044974  0.86022542  1
  O  O371  1  0.11977356  0.37317349  0.13918726  1
  O  O372  1  0.13700036  0.37907140  0.63471763  1
  O  O373  1  0.15336107  0.83663480  0.10998002  1
  O  O374  1  0.14177388  0.87695397  0.63912855  1
  O  O375  1  0.62642889  0.38236142  0.12970514  1
  O  O376  1  0.63199190  0.37523907  0.63688390  1
  O  O377  1  0.63193032  0.88205203  0.12952108  1
  O  O378  1  0.63225677  0.88255217  0.62896992  1
  O  O379  1  0.11687372  0.25445978  0.25522599  1
  O  O380  1  0.11795279  0.25441975  0.75573294  1
  O  O381  1  0.10920376  0.73577074  0.25664785  1
  O  O382  1  0.12584521  0.76062364  0.75093747  1
  O  O383  1  0.61740183  0.25575338  0.25387026  1
  O  O384  1  0.62320280  0.25604751  0.75794452  1
  O  O385  1  0.62285444  0.75443526  0.25824160  1
  O  O386  1  0.61893144  0.75547935  0.75404392  1
  O  O387  1  0.38277476  0.25749289  0.24303702  1
  O  O388  1  0.38195963  0.24419146  0.74876615  1
  O  O389  1  0.39028623  0.74337165  0.25648485  1
  O  O390  1  0.39014495  0.74357901  0.75708864  1
  O  O391  1  0.88675918  0.25370427  0.25134257  1
  O  O392  1  0.88260106  0.24242220  0.75177499  1
  O  O393  1  0.87920783  0.73725151  0.24477967  1
  O  O394  1  0.86824901  0.74327550  0.74393178  1
  O  O395  1  0.37997990  0.49394061  0.49565777  1
  O  O396  1  0.37224506  0.48323259  1.00627918  1
  O  O397  1  0.39053047  0.99736106  0.49705836  1
  O  O398  1  0.38646607  0.99420330  0.99124502  1
  O  O399  1  0.87040460  0.50615928  0.49000592  1
  O  O400  1  0.86091687  0.50592969  0.98002383  1
  O  O401  1  0.89056880  0.99710322  0.48810497  1
  O  O402  1  0.87029855  1.00722486  0.98128868  1
  O  O403  1  0.12817697  0.01396264  -0.00483177  1
  O  O404  1  0.12508446  0.00136204  0.49979560  1
  O  O405  1  0.12269440  0.51313025  0.00027656  1
  O  O406  1  0.14605298  0.51193670  0.52334274  1
  O  O407  1  0.62236146  0.00967592  0.00024093  1
  O  O408  1  0.61832485  0.00397808  0.50191940  1
  O  O409  1  0.62320097  0.50807761  0.00674942  1
  O  O410  1  0.61535641  0.50276439  0.50052820  1
  O  O411  1  0.37789664  0.36507986  0.11597407  1
  O  O412  1  0.36368326  0.37372614  0.62025516  1
  O  O413  1  0.38445126  0.87350272  0.10253260  1
  O  O414  1  0.36258579  0.87944661  0.62931922  1
  O  O415  1  0.86204918  0.37681626  0.13064017  1
  O  O416  1  0.86387240  0.37366340  0.62314001  1
  O  O417  1  0.86312025  0.86109513  0.13335689  1
  O  O418  1  0.87214800  0.86839386  0.61811334  1
  O  O419  1  0.12997852  0.13626806  0.38058193  1
  O  O420  1  0.12912106  0.13342085  0.88248342  1
  O  O421  1  0.11958825  0.61399147  0.38087233  1
  O  O422  1  0.13647153  0.61892002  0.87303558  1
  O  O423  1  0.63229075  0.12966975  0.37872511  1
  O  O424  1  0.62897284  0.13537679  0.88264661  1
  O  O425  1  0.62124387  0.63768220  0.37691056  1
  O  O426  1  0.62180209  0.63533941  0.88431997  1
