# generated using pymatgen
data_V85Zn86O256
_symmetry_space_group_name_H-M   'P 1'
_cell_length_a   16.91229218
_cell_length_b   16.91463447
_cell_length_c   16.91704437
_cell_angle_alpha   90.02112086
_cell_angle_beta   90.07095758
_cell_angle_gamma   89.98226528
_symmetry_Int_Tables_number   1
_chemical_formula_structural   V85Zn86O256
_chemical_formula_sum   'V85 Zn86 O256'
_cell_volume   4839.37409454
_cell_formula_units_Z   1
loop_
 _symmetry_equiv_pos_site_id
 _symmetry_equiv_pos_as_xyz
  1  'x, y, z'
loop_
 _atom_site_type_symbol
 _atom_site_label
 _atom_site_symmetry_multiplicity
 _atom_site_fract_x
 _atom_site_fract_y
 _atom_site_fract_z
 _atom_site_occupancy
  V  V0  1  0.24717811  0.50172147  0.24354446  1
  V  V1  1  0.62235890  -0.00201502  0.62290379  1
  V  V2  1  0.63168041  0.25159110  0.37678396  1
  V  V3  1  0.63392256  0.50355019  0.12855637  1
  V  V4  1  0.36963440  0.75549909  0.10939710  1
  V  V5  1  0.87238892  0.61850845  0.24583559  1
  V  V6  1  0.74978562  0.87711467  0.12867681  1
  V  V7  1  0.37706560  0.11878516  0.25724499  1
  V  V8  1  0.87784975  0.37965098  0.50198733  1
  V  V9  1  0.75572162  0.36856566  0.12993441  1
  V  V10  1  0.37168843  0.24935991  0.62899323  1
  V  V11  1  0.12605069  0.87310336  0.75052571  1
  V  V12  1  0.48608713  0.87382049  0.87759557  1
  V  V13  1  0.75425102  0.12604124  0.87355265  1
  V  V14  1  0.62282976  0.75346864  0.37163593  1
  V  V15  1  0.25241439  0.11693929  0.37880454  1
  V  V16  1  0.37519360  0.62798199  0.24919268  1
  V  V17  1  0.86903351  0.12614021  0.24098908  1
  V  V18  1  0.49420356  0.25517231  0.24997612  1
  V  V19  1  0.00623742  0.37543176  0.87057170  1
  V  V20  1  0.87942492  0.36713701  0.00432995  1
  V  V21  1  0.37334612  0.88231531  0.49273961  1
  V  V22  1  0.74699619  0.61821252  0.36775526  1
  V  V23  1  0.88033282  0.00144721  0.87313681  1
  V  V24  1  0.24674064  0.75048837  0.50210715  1
  V  V25  1  0.61810293  0.62328340  0.49759054  1
  V  V26  1  0.49504397  0.61967985  0.62098842  1
  V  V27  1  0.62724804  0.24994892  0.87694949  1
  V  V28  1  0.74780529  0.87065808  0.62035089  1
  V  V29  1  0.12548213  0.88372852  0.24835738  1
  V  V30  1  0.48701778  -0.00219709  -0.00434410  1
  V  V31  1  -0.00155017  0.75485825  0.24999987  1
  V  V32  1  0.62360249  0.87282080  0.75180711  1
  V  V33  1  0.86987834  0.50441074  0.87770571  1
  V  V34  1  0.49808292  0.24968796  0.75244607  1
  V  V35  1  0.12922802  0.25056850  0.86915936  1
  V  V36  1  -0.00495738  0.24563536  0.74244021  1
  V  V37  1  0.24709018  0.24925633  0.50046041  1
  V  V38  1  0.01520592  0.50156308  0.00389607  1
  V  V39  1  0.37027602  0.62278628  0.75145274  1
  V  V40  1  0.38041948  0.37100595  0.01161429  1
  V  V41  1  0.10831989  0.12249796  0.50141457  1
  V  V42  1  0.62666887  0.00120543  0.12967746  1
  V  V43  1  0.37057399  0.74945400  0.62546136  1
  V  V44  1  0.62419762  0.12339566  -0.00002876  1
  V  V45  1  0.89144194  -0.00396280  0.36985546  1
  V  V46  1  0.00225116  -0.00140732  0.01033728  1
  V  V47  1  0.37032897  0.10928609  0.75319248  1
  V  V48  1  0.12637912  0.12195724  0.00792431  1
  V  V49  1  0.24211192  0.49365166  0.75147442  1
  V  V50  1  -0.00415758  0.25224534  0.24241615  1
  V  V51  1  0.11930013  0.75752631  0.37591453  1
  V  V52  1  0.11649659  0.49161368  0.62447050  1
  V  V53  1  0.10524554  0.00493053  0.62737154  1
  V  V54  1  0.62909004  0.13009887  0.50136469  1
  V  V55  1  0.74801585  0.75052252  0.49626236  1
  V  V56  1  0.75097739  -0.00115740  0.74973607  1
  V  V57  1  0.62699977  0.37687778  0.75076756  1
  V  V58  1  0.50341118  0.50420627  -0.00044269  1
  V  V59  1  0.63048559  0.38058325  0.25236854  1
  V  V60  1  0.86951981  0.74608750  0.11840545  1
  V  V61  1  0.74982544  0.11445186  0.37223689  1
  V  V62  1  0.49776053  0.75537221  0.24615297  1
  V  V63  1  0.49123165  0.13051331  0.12381902  1
  V  V64  1  0.86895674  0.87110873  -0.00313375  1
  V  V65  1  0.25563321  0.24857424  0.00607478  1
  V  V66  1  0.24543969  0.62689367  0.88793633  1
  V  V67  1  0.50042537  0.37613137  0.87680921  1
  V  V68  1  0.63851195  0.74851827  0.87857794  1
  V  V69  1  0.12460555  0.74675203  0.88829134  1
  V  V70  1  0.24815776  0.62440387  0.37577018  1
  V  V71  1  0.11429930  0.61992291  0.50069981  1
  V  V72  1  0.37950147  0.38105854  0.50091707  1
  V  V73  1  0.87663575  0.74532499  0.62303091  1
  V  V74  1  0.12591668  0.37733182  0.24167437  1
  V  V75  1  0.75272756  0.37268681  0.62167047  1
  V  V76  1  0.25309911  0.11140455  0.87369519  1
  V  V77  1  0.01551237  0.62409018  0.12225847  1
  V  V78  1  0.24970959  0.88809540  0.62880274  1
  V  V79  1  0.64229148  0.62725196  -0.00386369  1
  V  V80  1  0.24759572  0.88032589  0.11254370  1
  V  V81  1  0.62168295  0.49987611  0.62100803  1
  V  V82  1  0.88860699  0.87502528  0.49158991  1
  V  V83  1  0.49911906  0.12385209  0.62551182  1
  V  V84  1  0.00287875  0.38516948  0.37567316  1
  Zn  Zn85  1  0.81191063  0.21061658  0.55799899  1
  Zn  Zn86  1  0.49318432  0.00701483  0.49158379  1
  Zn  Zn87  1  0.87494610  0.50246897  0.37464368  1
  Zn  Zn88  1  0.25401348  0.37514020  0.12658153  1
  Zn  Zn89  1  0.87109830  0.63014716  0.75828016  1
  Zn  Zn90  1  -0.00065034  0.12819650  0.12495866  1
  Zn  Zn91  1  0.50593561  0.38388525  0.38191729  1
  Zn  Zn92  1  0.62697517  0.88073046  0.25062734  1
  Zn  Zn93  1  0.50296832  0.63046178  0.12043175  1
  Zn  Zn94  1  0.38082106  0.50489261  0.37990170  1
  Zn  Zn95  1  0.00061013  0.87191185  0.87486285  1
  Zn  Zn96  1  0.37234414  0.49905923  0.87771857  1
  Zn  Zn97  1  0.74955296  0.50480080  0.75331516  1
  Zn  Zn98  1  0.50032735  0.74648460  0.75252036  1
  Zn  Zn99  1  0.49304763  0.88246629  0.36891777  1
  Zn  Zn100  1  0.00221274  0.74532688  0.74907787  1
  Zn  Zn101  1  0.88306559  0.12338121  0.72895211  1
  Zn  Zn102  1  0.25191232  -0.00111072  0.25034915  1
  Zn  Zn103  1  -0.00458657  0.61957570  0.62623739  1
  Zn  Zn104  1  0.12468165  0.25076077  0.37406676  1
  Zn  Zn105  1  0.75876703  0.24530820  0.00567812  1
  Zn  Zn106  1  0.24542254  0.37166716  0.63206084  1
  Zn  Zn107  1  0.18917258  0.18973864  0.18910927  1
  Zn  Zn108  1  0.18495616  0.18235890  0.68942743  1
  Zn  Zn109  1  0.19080139  0.69560451  0.18786956  1
  Zn  Zn110  1  0.18480222  0.68541447  0.68908717  1
  Zn  Zn111  1  0.68484176  0.18928291  0.19032410  1
  Zn  Zn112  1  0.68789628  0.18662805  0.69189739  1
  Zn  Zn113  1  0.68860938  0.69069847  0.18487016  1
  Zn  Zn114  1  0.68992954  0.68347351  0.69166435  1
  Zn  Zn115  1  0.31167063  0.31029651  0.31632712  1
  Zn  Zn116  1  0.31362575  0.31102457  0.81934251  1
  Zn  Zn117  1  0.30655348  0.81146418  0.31016944  1
  Zn  Zn118  1  0.30601772  0.80927219  0.81180961  1
  Zn  Zn119  1  0.81365355  0.31109963  0.31751448  1
  Zn  Zn120  1  0.81608926  0.31616660  0.81272654  1
  Zn  Zn121  1  0.81247479  0.81112042  0.30927067  1
  Zn  Zn122  1  0.81308032  0.81270352  0.80979418  1
  Zn  Zn123  1  0.19037728  0.43758209  0.43559948  1
  Zn  Zn124  1  0.19131679  0.43451987  0.93746455  1
  Zn  Zn125  1  0.18171971  0.94019028  0.44093762  1
  Zn  Zn126  1  0.18500079  0.93706733  0.93639864  1
  Zn  Zn127  1  0.69032326  0.43827314  0.44178863  1
  Zn  Zn128  1  0.69064608  0.43469115  0.94390364  1
  Zn  Zn129  1  0.68486898  0.93901969  0.43714163  1
  Zn  Zn130  1  0.68619585  0.93711527  0.93956694  1
  Zn  Zn131  1  0.31062413  0.06237774  0.06563740  1
  Zn  Zn132  1  0.30796636  0.06407612  0.56483785  1
  Zn  Zn133  1  0.31685008  0.56202612  0.06501640  1
  Zn  Zn134  1  0.30257872  0.56118801  0.56517561  1
  Zn  Zn135  1  0.81208969  0.05880495  0.06063402  1
  Zn  Zn136  1  0.81392231  0.04766928  0.55690820  1
  Zn  Zn137  1  0.81835820  0.55512924  0.06196463  1
  Zn  Zn138  1  0.80750912  0.55936286  0.55952433  1
  Zn  Zn139  1  0.44418051  0.44361321  0.18934215  1
  Zn  Zn140  1  0.43485043  0.43844209  0.68809566  1
  Zn  Zn141  1  0.43581013  0.93866545  0.18179929  1
  Zn  Zn142  1  0.43965751  0.93386640  0.68550829  1
  Zn  Zn143  1  0.94075617  0.43936176  0.18560719  1
  Zn  Zn144  1  0.93831226  0.43282591  0.69077173  1
  Zn  Zn145  1  0.93437258  0.93727332  0.18911018  1
  Zn  Zn146  1  0.93605717  0.92914607  0.68853881  1
  Zn  Zn147  1  0.06324563  0.06858294  0.31177413  1
  Zn  Zn148  1  0.06578866  0.06375904  0.81320772  1
  Zn  Zn149  1  0.06399761  0.56522181  0.30826630  1
  Zn  Zn150  1  0.05860475  0.56493934  0.81003047  1
  Zn  Zn151  1  0.55986043  0.06248358  0.31365130  1
  Zn  Zn152  1  0.55993678  0.05929861  0.81291843  1
  Zn  Zn153  1  0.55707199  0.56278268  0.31157492  1
  Zn  Zn154  1  0.56370636  0.56503907  0.81138782  1
  Zn  Zn155  1  0.43986774  0.19276774  0.43713083  1
  Zn  Zn156  1  0.43551240  0.18642775  0.93634094  1
  Zn  Zn157  1  0.43606127  0.69272781  0.43667015  1
  Zn  Zn158  1  0.44125838  0.68667919  0.93361507  1
  Zn  Zn159  1  0.93650162  0.19469391  0.42447711  1
  Zn  Zn160  1  0.94220112  0.18699289  0.93425480  1
  Zn  Zn161  1  0.93593400  0.68762026  0.43454566  1
  Zn  Zn162  1  0.94290113  0.68524157  0.94004197  1
  Zn  Zn163  1  0.06676318  0.31139625  0.06096050  1
  Zn  Zn164  1  0.05916328  0.31347800  0.55890984  1
  Zn  Zn165  1  0.05978372  0.81509676  0.06527110  1
  Zn  Zn166  1  0.06220262  0.81267118  0.56447423  1
  Zn  Zn167  1  0.56651491  0.31192618  0.06580007  1
  Zn  Zn168  1  0.56250371  0.31032103  0.56456349  1
  Zn  Zn169  1  0.56176586  0.81336033  0.05757621  1
  Zn  Zn170  1  0.55630504  0.80816705  0.56259661  1
  O  O171  1  0.12603396  0.12775635  0.11186296  1
  O  O172  1  0.12482441  0.11155072  0.61994539  1
  O  O173  1  0.11465907  0.63249768  0.13070381  1
  O  O174  1  0.12305017  0.61612137  0.61611254  1
  O  O175  1  0.61867852  0.11992976  0.11778997  1
  O  O176  1  0.62187365  0.12126914  0.61919805  1
  O  O177  1  0.62591552  0.62012442  0.11684332  1
  O  O178  1  0.61477678  0.61925387  0.62122137  1
  O  O179  1  0.37538485  0.37177068  0.39266142  1
  O  O180  1  0.38553467  0.37738486  0.88612181  1
  O  O181  1  0.36999660  0.86913524  0.38996093  1
  O  O182  1  0.38720820  0.86870358  0.86827580  1
  O  O183  1  0.88128954  0.38219352  0.37973405  1
  O  O184  1  0.88610407  0.38079169  0.88514483  1
  O  O185  1  0.87116239  0.88688268  0.37502416  1
  O  O186  1  0.87615645  0.88198368  0.88029267  1
  O  O187  1  0.24673705  0.01289348  0.37514559  1
  O  O188  1  0.24845219  0.01176606  0.87771499  1
  O  O189  1  0.25757898  0.50803734  0.36539791  1
  O  O190  1  0.24784094  0.51063951  0.86973051  1
  O  O191  1  0.74861631  0.01172943  0.37301257  1
  O  O192  1  0.75940862  0.00519427  0.87206110  1
  O  O193  1  0.74626072  0.51521761  0.37493868  1
  O  O194  1  0.76695847  0.49176518  0.87863093  1
  O  O195  1  0.25602476  0.49858792  0.13914217  1
  O  O196  1  0.23875851  0.49660883  0.63551007  1
  O  O197  1  0.25417646  0.98519146  0.12940503  1
  O  O198  1  0.24219327  0.98998010  0.62487148  1
  O  O199  1  0.73975342  0.48929622  0.12023163  1
  O  O200  1  0.73985283  0.48979439  0.62630500  1
  O  O201  1  0.73942897  0.99096782  0.11807305  1
  O  O202  1  0.74131796  0.98846181  0.62857239  1
  O  O203  1  0.00717289  0.37251099  0.25302769  1
  O  O204  1  -0.00119924  0.36505175  0.76427335  1
  O  O205  1  0.00716810  0.86199139  0.23934065  1
  O  O206  1  0.01225286  0.87063577  0.75305106  1
  O  O207  1  0.51198110  0.37009031  0.24994731  1
  O  O208  1  0.50481029  0.37059394  0.75621942  1
  O  O209  1  0.50006634  0.86600863  0.24763870  1
  O  O210  1  0.50673759  0.87313678  0.75980155  1
  O  O211  1  0.49539936  0.13338805  0.24394503  1
  O  O212  1  0.49291461  0.12997770  0.74636388  1
  O  O213  1  0.49243623  0.63829763  0.24484297  1
  O  O214  1  0.48774580  0.62498607  0.74439695  1
  O  O215  1  0.99287639  0.13432518  0.24742005  1
  O  O216  1  0.99821372  0.13966433  0.75679269  1
  O  O217  1  0.99403386  0.63438237  0.24160221  1
  O  O218  1  0.98879409  0.62726739  0.74526159  1
  O  O219  1  0.36918019  0.25858020  -0.00314397  1
  O  O220  1  0.36858732  0.25423298  0.51254308  1
  O  O221  1  0.37852456  0.74675444  0.01140521  1
  O  O222  1  0.36612088  0.75825737  0.50681501  1
  O  O223  1  0.87937044  0.26221550  -0.00294153  1
  O  O224  1  0.87447623  0.26987193  0.48672840  1
  O  O225  1  0.88195199  0.75854518  0.00598283  1
  O  O226  1  0.86729313  0.75679297  0.50020436  1
  O  O227  1  0.13242837  0.24246416  0.50181825  1
  O  O228  1  0.13221019  0.24207342  0.99135500  1
  O  O229  1  0.12766422  0.74464680  0.49359636  1
  O  O230  1  0.12193007  0.75417244  0.98708509  1
  O  O231  1  0.62052181  0.23896567  0.49368846  1
  O  O232  1  0.62616910  0.23734975  0.99528776  1
  O  O233  1  0.62631450  0.74531997  0.49020625  1
  O  O234  1  0.62294009  0.74223767  0.98813299  1
  O  O235  1  0.50845865  0.24097021  0.13553195  1
  O  O236  1  0.49221286  0.24370442  0.63283629  1
  O  O237  1  0.48900867  0.75325519  0.12881596  1
  O  O238  1  0.49025337  0.73841629  0.63012422  1
  O  O239  1  1.00283040  0.25111427  0.13717095  1
  O  O240  1  1.00726833  0.25687041  0.64427075  1
  O  O241  1  0.99055488  0.74221635  0.12823081  1
  O  O242  1  0.98976049  0.74692462  0.62409776  1
  O  O243  1  0.00370289  0.26447751  0.36053141  1
  O  O244  1  0.01051238  0.25743812  0.87192356  1
  O  O245  1  0.00787840  0.74498392  0.36340559  1
  O  O246  1  0.01314398  0.74897919  0.87342448  1
  O  O247  1  0.51267563  0.25535658  0.36813360  1
  O  O248  1  0.50648574  0.25508573  0.87092624  1
  O  O249  1  0.50604813  0.75577719  0.36518631  1
  O  O250  1  0.50728978  0.76160619  0.87366389  1
  O  O251  1  0.24590178  0.13358086  0.49617707  1
  O  O252  1  0.24652347  0.12992863  0.99510834  1
  O  O253  1  0.24134636  0.63119489  0.49424699  1
  O  O254  1  0.25334247  0.61822943  0.98629534  1
  O  O255  1  0.74330679  0.12809767  0.49130162  1
  O  O256  1  0.74375439  0.12497378  0.99067455  1
  O  O257  1  0.73965060  0.63205503  0.49083472  1
  O  O258  1  0.74133058  0.61843500  1.00181705  1
  O  O259  1  0.26240134  0.36862988  0.00172921  1
  O  O260  1  0.25700174  0.36164133  0.50151658  1
  O  O261  1  0.24594390  0.87738164  0.01338368  1
  O  O262  1  0.25602932  0.87179073  0.50762189  1
  O  O263  1  0.76113451  0.37013039  0.00956973  1
  O  O264  1  0.76059388  0.37579948  0.50844231  1
  O  O265  1  0.76295936  0.87938810  0.00689528  1
  O  O266  1  0.75284681  0.86815798  0.50309525  1
  O  O267  1  0.13581565  0.49254032  0.25414131  1
  O  O268  1  0.12968747  0.50460130  0.73699958  1
  O  O269  1  0.12259080  0.98684150  0.25493558  1
  O  O270  1  0.11991155  0.99329662  0.73701279  1
  O  O271  1  0.62185095  0.49364209  0.24048489  1
  O  O272  1  0.62362191  0.49464614  0.73966681  1
  O  O273  1  0.61937281  1.00032247  0.23365826  1
  O  O274  1  0.63020918  0.99381555  0.74367264  1
  O  O275  1  0.37725136  0.01511071  0.24766217  1
  O  O276  1  0.37777931  0.01039600  0.74462486  1
  O  O277  1  0.37320858  0.51659184  0.24777839  1
  O  O278  1  0.36691306  0.50940845  0.75273624  1
  O  O279  1  0.87737278  0.00747203  0.26139346  1
  O  O280  1  0.87032613  0.00062287  0.75623555  1
  O  O281  1  0.87875480  0.51518718  0.24904667  1
  O  O282  1  0.87814559  0.49381723  0.77002912  1
  O  O283  1  0.11939943  0.37451269  0.36751315  1
  O  O284  1  0.11848050  0.36431233  0.88136520  1
  O  O285  1  0.12966788  0.86430301  0.36901862  1
  O  O286  1  0.12705000  0.86317700  0.86820444  1
  O  O287  1  0.62803880  0.36996521  0.37047102  1
  O  O288  1  0.62074606  0.37031699  0.87309868  1
  O  O289  1  0.62651735  0.86303667  0.37159081  1
  O  O290  1  0.62133306  0.86531840  0.87192084  1
  O  O291  1  0.38667041  0.12574371  0.13184573  1
  O  O292  1  0.37722806  0.13206960  0.63209524  1
  O  O293  1  0.37613807  0.63879053  0.13096108  1
  O  O294  1  0.37713391  0.62653295  0.62980032  1
  O  O295  1  0.87317672  0.12020420  0.13701715  1
  O  O296  1  0.85455498  0.12810331  0.62092510  1
  O  O297  1  0.87997695  0.63035903  0.12807946  1
  O  O298  1  0.87356680  0.63763421  0.61410542  1
  O  O299  1  0.24870288  0.25181806  0.11052925  1
  O  O300  1  0.25518927  0.25015778  0.62152483  1
  O  O301  1  0.26294047  0.75982098  0.12610332  1
  O  O302  1  0.25122713  0.75760503  0.61980076  1
  O  O303  1  0.74324079  0.26370214  0.12322132  1
  O  O304  1  0.73987039  0.26704342  0.62899529  1
  O  O305  1  0.76278803  0.75607202  0.12289163  1
  O  O306  1  0.75347329  0.75461375  0.61673541  1
  O  O307  1  0.24723298  0.24028741  0.38495662  1
  O  O308  1  0.24466044  0.24442687  0.88552438  1
  O  O309  1  0.23962411  0.74326612  0.38009000  1
  O  O310  1  0.23961887  0.73630096  0.87364725  1
  O  O311  1  0.73662976  0.24081890  0.37091759  1
  O  O312  1  0.74636532  0.24204402  0.87690339  1
  O  O313  1  0.74188327  0.74313212  0.37665799  1
  O  O314  1  0.73755490  0.75521858  0.87540801  1
  O  O315  1  0.00809998  0.11881935  0.00197290  1
  O  O316  1  0.00990067  0.13448617  0.49137813  1
  O  O317  1  0.00102152  0.61008293  0.00710736  1
  O  O318  1  0.01135407  0.62588490  0.49867894  1
  O  O319  1  0.50597623  0.12149936  0.00507385  1
  O  O320  1  0.50611227  0.12680340  0.50877277  1
  O  O321  1  0.50772674  0.61585202  -0.00058217  1
  O  O322  1  0.50403550  0.63200775  0.50940810  1
  O  O323  1  0.48318616  0.36848853  0.50329022  1
  O  O324  1  0.49947895  0.38149054  0.99733471  1
  O  O325  1  0.48102228  0.87274695  0.50192244  1
  O  O326  1  0.50065708  0.88246035  0.98659930  1
  O  O327  1  0.99040869  0.37478532  0.49038509  1
  O  O328  1  0.99772462  0.38274041  0.99652445  1
  O  O329  1  0.98783693  0.86959048  0.49698389  1
  O  O330  1  0.99053926  0.88258053  0.99810558  1
  O  O331  1  0.49382302  0.49693793  0.37408618  1
  O  O332  1  0.50176694  0.49479035  0.88417494  1
  O  O333  1  0.50524523  0.99369160  0.38016444  1
  O  O334  1  0.50521257  0.98464487  0.88135589  1
  O  O335  1  0.99959444  0.48937201  0.36757010  1
  O  O336  1  0.99805251  0.49324738  0.88549761  1
  O  O337  1  0.98965893  1.00117420  0.37350831  1
  O  O338  1  0.98960283  0.99998536  0.87984598  1
  O  O339  1  -0.00498530  0.00253715  0.11349130  1
  O  O340  1  0.00646951  -0.00247914  0.62502092  1
  O  O341  1  -0.00073255  0.50788643  0.11234133  1
  O  O342  1  0.01225304  0.49830465  0.62792174  1
  O  O343  1  0.50590422  0.00694726  0.11494360  1
  O  O344  1  0.50690822  0.00572251  0.62106631  1
  O  O345  1  0.51392291  0.50344502  0.11550838  1
  O  O346  1  0.50385631  0.51134226  0.62785856  1
  O  O347  1  0.24567103  0.38212494  0.25121067  1
  O  O348  1  0.25614426  0.38942346  0.75482998  1
  O  O349  1  0.24161276  0.87762899  0.24343166  1
  O  O350  1  0.23761266  0.87143495  0.74191581  1
  O  O351  1  0.73955760  0.37164526  0.24617393  1
  O  O352  1  0.74354175  0.38015138  0.74482697  1
  O  O353  1  0.74754665  0.87045455  0.23354287  1
  O  O354  1  0.74305962  0.88011466  0.74237433  1
  O  O355  1  0.25864477  0.12542106  0.25813106  1
  O  O356  1  0.25922679  0.12934209  0.76046647  1
  O  O357  1  0.25557691  0.62202281  0.25480637  1
  O  O358  1  0.25441695  0.61517445  0.75659572  1
  O  O359  1  0.75742239  0.13015057  0.25791562  1
  O  O360  1  0.74949589  0.11799129  0.76257507  1
  O  O361  1  0.75957022  0.63340340  0.25571612  1
  O  O362  1  0.75918025  0.61758734  0.74684770  1
  O  O363  1  0.36782557  0.13160289  0.36883731  1
  O  O364  1  0.36672031  0.12934972  0.86440500  1
  O  O365  1  0.36664607  0.62995186  0.36711438  1
  O  O366  1  0.36383346  0.62467625  0.86869425  1
  O  O367  1  0.86860253  0.11380755  0.36852629  1
  O  O368  1  0.86742438  0.11694599  0.87619469  1
  O  O369  1  0.86548817  0.62538564  0.36551026  1
  O  O370  1  0.87946383  0.60763104  0.88163493  1
  O  O371  1  0.12950987  0.37335546  0.13767949  1
  O  O372  1  0.12723847  0.38799396  0.61925402  1
  O  O373  1  0.13905161  0.86558825  0.13359921  1
  O  O374  1  0.12876498  0.88468692  0.62933114  1
  O  O375  1  0.63269327  0.38300244  0.13265791  1
  O  O376  1  0.62745615  0.38315134  0.62819459  1
  O  O377  1  0.63227281  0.88255612  0.12026996  1
  O  O378  1  0.62607450  0.87613293  0.62984309  1
  O  O379  1  0.11975926  0.25883857  0.25234677  1
  O  O380  1  0.11940163  0.24475989  0.76345719  1
  O  O381  1  0.11843221  0.75765071  0.25807595  1
  O  O382  1  0.12377684  0.75723895  0.75648214  1
  O  O383  1  0.61651624  0.25830731  0.25766048  1
  O  O384  1  0.61846447  0.25608458  0.75791930  1
  O  O385  1  0.61516882  0.75237580  0.25376912  1
  O  O386  1  0.62342652  0.75450180  0.76079619  1
  O  O387  1  0.38896361  0.24484455  0.25589242  1
  O  O388  1  0.37802852  0.24834183  0.74101827  1
  O  O389  1  0.37938056  0.74372059  0.24485653  1
  O  O390  1  0.37101745  0.73730633  0.74380113  1
  O  O391  1  0.88296863  0.23935781  0.25678442  1
  O  O392  1  0.89031464  0.24755865  0.75634048  1
  O  O393  1  0.88247143  0.74344250  0.24130378  1
  O  O394  1  0.87689876  0.75294443  0.73684667  1
  O  O395  1  0.36473783  0.48343646  0.50410470  1
  O  O396  1  0.38716932  0.49399603  0.99971841  1
  O  O397  1  0.37257195  0.98570109  0.50750385  1
  O  O398  1  0.38802578  1.00768089  1.00070303  1
  O  O399  1  0.87133525  0.48705906  0.49421195  1
  O  O400  1  0.88563192  0.48858396  0.99236158  1
  O  O401  1  0.87003738  0.98781177  0.48018764  1
  O  O402  1  0.88187594  0.99379822  0.99132164  1
  O  O403  1  0.11344717  0.00831557  -0.00703742  1
  O  O404  1  0.12485598  0.00780552  0.51496483  1
  O  O405  1  0.11393621  0.49420307  -0.00020516  1
  O  O406  1  0.13377082  0.50773902  0.51261558  1
  O  O407  1  0.61815187  0.01080711  0.00474880  1
  O  O408  1  0.62538726  0.01252973  0.50728138  1
  O  O409  1  0.62114775  0.50693260  0.00434278  1
  O  O410  1  0.62598231  0.50611204  0.51280810  1
  O  O411  1  0.37962606  0.37875084  0.11524437  1
  O  O412  1  0.37096850  0.36710277  0.61860483  1
  O  O413  1  0.36354689  0.86424359  0.12719090  1
  O  O414  1  0.36593055  0.86950697  0.62085695  1
  O  O415  1  0.86698134  0.38122925  0.11899930  1
  O  O416  1  0.86848703  0.37904201  0.61421597  1
  O  O417  1  0.86902705  0.86863840  0.11782279  1
  O  O418  1  0.86877102  0.86639728  0.61336655  1
  O  O419  1  0.13261219  0.12734014  0.38430741  1
  O  O420  1  0.13397863  0.13087913  0.88382754  1
  O  O421  1  0.12963703  0.63199088  0.38082916  1
  O  O422  1  0.13474152  0.63465483  0.87236429  1
  O  O423  1  0.63081409  0.13101528  0.38129720  1
  O  O424  1  0.63118291  0.12708033  0.88141357  1
  O  O425  1  0.62823475  0.63620538  0.37433261  1
  O  O426  1  0.62198009  0.63952717  0.88008643  1
