# generated using pymatgen
data_V85Zn86O256
_symmetry_space_group_name_H-M   'P 1'
_cell_length_a   16.91873179
_cell_length_b   16.91318308
_cell_length_c   16.92019643
_cell_angle_alpha   90.01319333
_cell_angle_beta   89.93725767
_cell_angle_gamma   89.96064968
_symmetry_Int_Tables_number   1
_chemical_formula_structural   V85Zn86O256
_chemical_formula_sum   'V85 Zn86 O256'
_cell_volume   4841.70340742
_cell_formula_units_Z   1
loop_
 _symmetry_equiv_pos_site_id
 _symmetry_equiv_pos_as_xyz
  1  'x, y, z'
loop_
 _atom_site_type_symbol
 _atom_site_label
 _atom_site_symmetry_multiplicity
 _atom_site_fract_x
 _atom_site_fract_y
 _atom_site_fract_z
 _atom_site_occupancy
  V  V0  1  0.12263533  0.00205364  0.62657672  1
  V  V1  1  0.38698436  0.74824695  0.62839612  1
  V  V2  1  0.50366486  0.51149851  0.00078757  1
  V  V3  1  0.74932759  0.37223106  0.12200541  1
  V  V4  1  0.25057529  0.37155573  0.12097643  1
  V  V5  1  0.87376502  0.51330503  0.87181093  1
  V  V6  1  0.87230806  0.88055015  0.50480644  1
  V  V7  1  0.50237401  0.12238930  0.12521240  1
  V  V8  1  0.24757281  0.87541726  0.62746700  1
  V  V9  1  0.50490860  0.24543589  0.25393495  1
  V  V10  1  0.25509828  0.49802934  0.24841976  1
  V  V11  1  0.13303076  0.24227506  0.87481396  1
  V  V12  1  0.11904098  0.00535724  0.12953427  1
  V  V13  1  0.63072019  0.24719805  0.87387506  1
  V  V14  1  0.12771485  0.24963069  0.37638015  1
  V  V15  1  0.62301782  0.51208113  0.12185052  1
  V  V16  1  0.10948764  0.87471933  0.75376734  1
  V  V17  1  0.12287023  0.86497676  0.25639339  1
  V  V18  1  0.12000323  0.50342453  0.62405267  1
  V  V19  1  0.75330346  0.24555719  -0.00418350  1
  V  V20  1  0.49973780  0.24377348  0.74639041  1
  V  V21  1  0.50811303  0.00295117  0.51639493  1
  V  V22  1  0.25447952  0.12625790  0.38206513  1
  V  V23  1  0.24774487  0.75291945  0.50031021  1
  V  V24  1  0.63100878  0.12057477  -0.00395583  1
  V  V25  1  0.12548998  0.13091938  0.50132316  1
  V  V26  1  -0.00407856  0.73150061  0.74945503  1
  V  V27  1  0.50465046  0.88710607  0.36981812  1
  V  V28  1  0.37464250  0.88414929  0.49648497  1
  V  V29  1  0.37287189  0.87362975  -0.00136379  1
  V  V30  1  0.74446978  0.13467102  0.37588261  1
  V  V31  1  0.25184752  0.62966743  0.37759029  1
  V  V32  1  0.75272116  0.62476568  0.37427425  1
  V  V33  1  0.62174424  0.50704876  0.62739574  1
  V  V34  1  0.87866194  0.24444949  0.12198708  1
  V  V35  1  0.74677147  0.73995548  -0.00665507  1
  V  V36  1  0.50376162  0.37113040  0.37590302  1
  V  V37  1  0.87457649  0.37751760  0.49298833  1
  V  V38  1  0.25209987  -0.00293630  0.25931996  1
  V  V39  1  0.62129686  0.62961311  0.49967008  1
  V  V40  1  0.87712889  0.37401159  -0.00408604  1
  V  V41  1  0.37600602  0.24266080  0.62011573  1
  V  V42  1  0.00289716  0.24287537  0.24398610  1
  V  V43  1  0.75328363  0.51801891  0.75334388  1
  V  V44  1  0.88360393  -0.00189630  0.87351012  1
  V  V45  1  0.37717538  0.49919735  0.37609439  1
  V  V46  1  0.62124381  0.86624483  0.75070731  1
  V  V47  1  0.73921011  0.00730576  0.76230656  1
  V  V48  1  0.37861737  0.37282264  -0.00066285  1
  V  V49  1  0.50201363  -0.00271106  -0.00266387  1
  V  V50  1  0.00386171  0.51289785  0.00212788  1
  V  V51  1  0.74573604  0.87991069  0.62986574  1
  V  V52  1  0.00010231  0.86451804  0.37646719  1
  V  V53  1  0.37125354  0.37195179  0.49936942  1
  V  V54  1  0.37056731  0.12517984  0.75792192  1
  V  V55  1  0.87379836  -0.00105492  0.37459836  1
  V  V56  1  0.24890561  0.87438792  0.12677396  1
  V  V57  1  -0.00090825  0.37818893  0.37197520  1
  V  V58  1  0.87874248  0.11920280  0.24446912  1
  V  V59  1  0.38171909  0.74720978  0.12559146  1
  V  V60  1  0.12492698  0.51184566  0.12016121  1
  V  V61  1  0.12495542  0.37623073  0.75068458  1
  V  V62  1  0.49703217  0.50572930  0.50454088  1
  V  V63  1  -0.00084739  -0.00230209  0.00542050  1
  V  V64  1  0.74972159  0.38019826  0.62724646  1
  V  V65  1  0.87603022  0.74116240  0.62872206  1
  V  V66  1  0.50449049  0.37457265  0.87593431  1
  V  V67  1  0.49954693  0.86318518  0.87259818  1
  V  V68  1  0.87075416  0.25076052  0.62372876  1
  V  V69  1  0.12124630  0.74642610  0.88331818  1
  V  V70  1  0.12140843  0.63241194  0.50369043  1
  V  V71  1  0.50847727  0.75217523  0.25196621  1
  V  V72  1  0.38452531  0.62458736  0.24753399  1
  V  V73  1  0.75438975  0.50062154  0.25318046  1
  V  V74  1  -0.00424695  0.50512535  0.49639754  1
  V  V75  1  -0.00366430  0.25027774  0.75299919  1
  V  V76  1  0.12736397  0.37303287  0.24750645  1
  V  V77  1  0.74769574  0.87064074  0.13026715  1
  V  V78  1  -0.00644957  0.12606375  0.62316452  1
  V  V79  1  0.24561832  0.00168991  0.76063700  1
  V  V80  1  0.37645941  0.11903111  0.25294326  1
  V  V81  1  0.24788030  0.36873154  0.61932828  1
  V  V82  1  0.88308617  0.73737967  0.13108181  1
  V  V83  1  0.38362591  0.62468530  0.74709393  1
  V  V84  1  0.62697762  0.36846852  0.25138682  1
  Zn  Zn85  1  0.60846517  0.14057145  0.50717292  1
  Zn  Zn86  1  0.24898260  0.50431300  0.74971257  1
  Zn  Zn87  1  0.37249353  0.50023940  0.87355990  1
  Zn  Zn88  1  -0.00111518  0.00094323  0.49984089  1
  Zn  Zn89  1  0.13026001  0.11840853  -0.00232143  1
  Zn  Zn90  1  0.73691985  0.25622610  0.49436062  1
  Zn  Zn91  1  0.62397929  0.73435715  0.87426985  1
  Zn  Zn92  1  0.36864939  0.00195175  0.87876433  1
  Zn  Zn93  1  0.74319498  -0.00646816  0.25213168  1
  Zn  Zn94  1  0.25762333  0.23954517  -0.00639672  1
  Zn  Zn95  1  0.91482726  0.57236674  0.30120471  1
  Zn  Zn96  1  0.74857152  0.75291354  0.50022894  1
  Zn  Zn97  1  0.00033248  0.37577154  0.87718274  1
  Zn  Zn98  1  0.24239752  0.74117984  0.00447468  1
  Zn  Zn99  1  0.24677954  0.62074347  0.87676529  1
  Zn  Zn100  1  0.62748523  0.75522626  0.37186581  1
  Zn  Zn101  1  0.00253123  0.73268754  0.24934809  1
  Zn  Zn102  1  0.62486534  0.37808078  0.75053954  1
  Zn  Zn103  1  0.87737977  0.87023312  -0.00165392  1
  Zn  Zn104  1  0.37587142  0.24648185  0.12436163  1
  Zn  Zn105  1  0.86433817  0.13192792  0.76069998  1
  Zn  Zn106  1  0.62426786  -0.01069042  0.12876284  1
  Zn  Zn107  1  0.19164747  0.18566646  0.18674212  1
  Zn  Zn108  1  0.18869970  0.18772218  0.68834157  1
  Zn  Zn109  1  0.19292750  0.68833344  0.19021018  1
  Zn  Zn110  1  0.18927655  0.68786692  0.69027310  1
  Zn  Zn111  1  0.68927323  0.18043715  0.18654134  1
  Zn  Zn112  1  0.68032445  0.18806265  0.68246201  1
  Zn  Zn113  1  0.69478006  0.68700593  0.18712728  1
  Zn  Zn114  1  0.68491200  0.69159751  0.68435704  1
  Zn  Zn115  1  0.31514803  0.30725799  0.31205293  1
  Zn  Zn116  1  0.31293164  0.31659961  0.80954877  1
  Zn  Zn117  1  0.31864348  0.81278488  0.31575446  1
  Zn  Zn118  1  0.30679502  0.81056640  0.81144808  1
  Zn  Zn119  1  0.81576209  0.31217456  0.30841315  1
  Zn  Zn120  1  0.81002993  0.32225510  0.81293620  1
  Zn  Zn121  1  0.81411523  0.80785034  0.31111617  1
  Zn  Zn122  1  0.81499622  0.81369628  0.81417831  1
  Zn  Zn123  1  0.18725448  0.43939015  0.43798988  1
  Zn  Zn124  1  0.18877606  0.43655038  0.93571248  1
  Zn  Zn125  1  0.18334773  0.94005247  0.43898932  1
  Zn  Zn126  1  0.18066680  0.92931688  0.93868918  1
  Zn  Zn127  1  0.68559475  0.43898059  0.43665687  1
  Zn  Zn128  1  0.68876460  0.56160213  0.93685906  1
  Zn  Zn129  1  0.68688867  0.94124006  0.43755670  1
  Zn  Zn130  1  0.69031471  0.92765161  0.93866868  1
  Zn  Zn131  1  0.30987768  0.06127806  0.06483011  1
  Zn  Zn132  1  0.31098869  0.06230900  0.56681443  1
  Zn  Zn133  1  0.31409269  0.56165165  0.05908167  1
  Zn  Zn134  1  0.30950683  0.56266433  0.56796519  1
  Zn  Zn135  1  0.81199475  0.05816402  0.06114205  1
  Zn  Zn136  1  0.77516920  0.07808629  0.57871501  1
  Zn  Zn137  1  0.81730773  0.56064832  0.06698732  1
  Zn  Zn138  1  0.80983551  0.56340545  0.55944187  1
  Zn  Zn139  1  0.44116046  0.43537821  0.18434213  1
  Zn  Zn140  1  0.43734567  0.43541647  0.68745321  1
  Zn  Zn141  1  0.43850975  0.93781784  0.18709032  1
  Zn  Zn142  1  0.43432042  0.93572473  0.69038413  1
  Zn  Zn143  1  0.94106809  0.43319011  0.17998542  1
  Zn  Zn144  1  0.93718156  0.44145866  0.68669967  1
  Zn  Zn145  1  0.93445324  0.92872531  0.18616240  1
  Zn  Zn146  1  0.93002125  0.94156859  0.68739345  1
  Zn  Zn147  1  0.06157550  0.05782149  0.31436882  1
  Zn  Zn148  1  0.05568664  0.06424322  0.81177874  1
  Zn  Zn149  1  0.07906985  0.56127039  0.31582400  1
  Zn  Zn150  1  0.06135622  0.56202003  0.81633055  1
  Zn  Zn151  1  0.56780783  0.05896354  0.31529105  1
  Zn  Zn152  1  0.55849403  0.06132582  0.81365993  1
  Zn  Zn153  1  0.56738296  0.56047905  0.31308780  1
  Zn  Zn154  1  0.55543335  0.56272293  0.80765316  1
  Zn  Zn155  1  0.43713182  0.18550642  0.43683796  1
  Zn  Zn156  1  0.44071486  0.18670756  0.93594170  1
  Zn  Zn157  1  0.43729584  0.69329308  0.43760686  1
  Zn  Zn158  1  0.43022163  0.68573246  0.93687234  1
  Zn  Zn159  1  0.93444904  0.18864834  0.43494830  1
  Zn  Zn160  1  0.94283036  0.17765123  0.93762021  1
  Zn  Zn161  1  0.93433630  0.69133440  0.44505058  1
  Zn  Zn162  1  0.93782768  0.69323244  0.93827376  1
  Zn  Zn163  1  0.06367497  0.31314113  0.06074799  1
  Zn  Zn164  1  0.05913932  0.31298410  0.56191397  1
  Zn  Zn165  1  0.05766916  0.81804860  0.06470580  1
  Zn  Zn166  1  0.05851002  0.81261440  0.56683799  1
  Zn  Zn167  1  0.56430199  0.31128993  0.06383618  1
  Zn  Zn168  1  0.56108791  0.31682334  0.56386502  1
  Zn  Zn169  1  0.56547221  0.80684758  0.06041877  1
  Zn  Zn170  1  0.56383338  0.81947581  0.56134202  1
  O  O171  1  0.12840162  0.10776431  0.13187373  1
  O  O172  1  0.11819824  0.12415189  0.61843577  1
  O  O173  1  0.13735596  0.61053706  0.12796833  1
  O  O174  1  0.13143200  0.61597992  0.61423115  1
  O  O175  1  0.61850187  0.12498771  0.11089842  1
  O  O176  1  0.66719472  0.11589409  0.60116142  1
  O  O177  1  0.62645892  0.61027951  0.13092347  1
  O  O178  1  0.62743293  0.61538777  0.61631155  1
  O  O179  1  0.38017300  0.37902152  0.37975183  1
  O  O180  1  0.38545350  0.37316868  0.88135780  1
  O  O181  1  0.38791428  0.87097091  0.38720660  1
  O  O182  1  0.37847960  0.87453398  0.88283798  1
  O  O183  1  0.87897198  0.37139991  0.38631785  1
  O  O184  1  0.87822063  0.38317121  0.88298374  1
  O  O185  1  0.87806427  0.88042572  0.38185094  1
  O  O186  1  0.86933843  0.89223624  0.87921792  1
  O  O187  1  0.24525758  0.00732921  0.36539740  1
  O  O188  1  0.24752741  -0.00758859  0.86416268  1
  O  O189  1  0.25852917  0.50624039  0.36981172  1
  O  O190  1  0.25448983  0.49896312  0.86870591  1
  O  O191  1  0.76148203  0.00611053  0.37406496  1
  O  O192  1  0.75547709  -0.00380711  0.86574753  1
  O  O193  1  0.74448098  0.50711334  0.36400701  1
  O  O194  1  0.75995736  0.50081870  0.86554448  1
  O  O195  1  0.24748045  0.48819207  0.12737027  1
  O  O196  1  0.23685164  0.48834067  0.62364797  1
  O  O197  1  0.24597306  0.98807321  0.13849881  1
  O  O198  1  0.24146947  0.99451609  0.63417775  1
  O  O199  1  0.74085347  0.49268939  0.12896340  1
  O  O200  1  0.74410923  0.49705994  0.62956269  1
  O  O201  1  0.75186765  0.98129633  0.12287524  1
  O  O202  1  0.76217574  0.98538797  0.64755861  1
  O  O203  1  0.00662895  0.36799514  0.25377435  1
  O  O204  1  0.00999323  0.36757701  0.74732062  1
  O  O205  1  0.00849928  0.87318990  0.25940976  1
  O  O206  1  0.00843847  0.87645662  0.74523628  1
  O  O207  1  0.50702082  0.36536132  0.25282569  1
  O  O208  1  0.49939344  0.36462645  0.75800267  1
  O  O209  1  0.49283060  0.86950791  0.26319660  1
  O  O210  1  0.50789359  0.88356884  0.76139541  1
  O  O211  1  0.49477948  0.12801819  0.25000774  1
  O  O212  1  0.49183552  0.13532182  0.75149559  1
  O  O213  1  0.48959940  0.63157803  0.26006025  1
  O  O214  1  0.48335902  0.62408758  0.74096272  1
  O  O215  1  0.99387846  0.13252441  0.25489268  1
  O  O216  1  0.99310946  0.13533744  0.74185573  1
  O  O217  1  1.00461519  0.61957038  0.25864182  1
  O  O218  1  1.00061684  0.63311295  0.74577623  1
  O  O219  1  0.37794184  0.25959449  0.00179965  1
  O  O220  1  0.38199457  0.25797336  0.50903528  1
  O  O221  1  0.37638081  0.76077165  0.00951985  1
  O  O222  1  0.36864326  0.75844517  0.51056481  1
  O  O223  1  0.87503743  0.25171225  0.00123535  1
  O  O224  1  0.87599088  0.26214941  0.50819747  1
  O  O225  1  0.86807898  0.74894817  0.00981850  1
  O  O226  1  0.87221775  0.76459264  0.50944558  1
  O  O227  1  0.11969581  0.23903608  0.49447427  1
  O  O228  1  0.12222864  0.25063581  0.98210635  1
  O  O229  1  0.13190210  0.74257476  0.50617284  1
  O  O230  1  0.12055971  0.75691876  0.98685798  1
  O  O231  1  0.62285610  0.25386146  0.49709011  1
  O  O232  1  0.63087880  0.24307961  0.99213216  1
  O  O233  1  0.62279423  0.73866746  0.50149426  1
  O  O234  1  0.64180733  0.74719603  0.99862093  1
  O  O235  1  0.49943020  0.24202532  0.13622287  1
  O  O236  1  0.48921310  0.25800119  0.63589100  1
  O  O237  1  0.48883952  0.75803733  0.13393241  1
  O  O238  1  0.48502257  0.75596205  0.61996131  1
  O  O239  1  0.99710260  0.25291183  0.13633721  1
  O  O240  1  0.99119436  0.24795457  0.63378124  1
  O  O241  1  0.98791428  0.75209219  0.12698121  1
  O  O242  1  0.99156997  0.75343709  0.64001320  1
  O  O243  1  0.00655028  0.25614465  0.36454538  1
  O  O244  1  0.00531672  0.25082103  0.86339813  1
  O  O245  1  -0.00672687  0.76149298  0.37318955  1
  O  O246  1  0.00740891  0.74770811  0.86127673  1
  O  O247  1  0.49510227  0.25466886  0.36182513  1
  O  O248  1  0.50876883  0.25361822  0.86763820  1
  O  O249  1  0.50205685  0.76073556  0.36818166  1
  O  O250  1  0.49953594  0.76067082  0.88143111  1
  O  O251  1  0.24194358  0.12007500  0.49154458  1
  O  O252  1  0.24374882  0.12789370  1.00611352  1
  O  O253  1  0.24637793  0.63359414  0.49685283  1
  O  O254  1  0.26230181  0.63089704  0.99109132  1
  O  O255  1  0.77209163  0.13438994  0.47714184  1
  O  O256  1  0.74150432  0.13109149  1.00337506  1
  O  O257  1  0.73780704  0.62563644  0.49317459  1
  O  O258  1  0.75326707  0.63396837  1.00409083  1
  O  O259  1  0.25972932  0.37027374  0.00566178  1
  O  O260  1  0.25865113  0.37872290  0.50609710  1
  O  O261  1  0.25614246  0.87121968  0.01064652  1
  O  O262  1  0.25526206  0.87159127  0.50321752  1
  O  O263  1  0.76514265  0.36337070  0.00716804  1
  O  O264  1  0.75811702  0.37989041  0.50767992  1
  O  O265  1  0.75444831  0.86062605  0.00897336  1
  O  O266  1  0.75395588  0.87731884  0.51037824  1
  O  O267  1  0.13678919  0.49065396  0.24166482  1
  O  O268  1  0.12170609  0.49231192  0.74177330  1
  O  O269  1  0.13215526  0.98968004  0.24736979  1
  O  O270  1  0.12718978  0.99523355  0.74695339  1
  O  O271  1  0.63127832  0.49144010  0.23920071  1
  O  O272  1  0.63086299  0.49958023  0.74103658  1
  O  O273  1  0.63077896  1.00788289  0.24041824  1
  O  O274  1  0.63492106  0.99203085  0.75893491  1
  O  O275  1  0.36753732  0.00983328  0.24816175  1
  O  O276  1  0.36423609  0.00763229  0.75076772  1
  O  O277  1  0.37447392  0.50627287  0.25293325  1
  O  O278  1  0.37268728  0.51282451  0.74352712  1
  O  O279  1  0.87284152  0.00415614  0.25634110  1
  O  O280  1  0.86652927  0.00300852  0.76212133  1
  O  O281  1  0.86080377  0.48945902  0.24425580  1
  O  O282  1  0.86693070  0.49586050  0.75894807  1
  O  O283  1  0.12224677  0.36975619  0.36836210  1
  O  O284  1  0.12158340  0.36633887  0.86470476  1
  O  O285  1  0.11296605  0.88095274  0.36953051  1
  O  O286  1  0.12424678  0.86162856  0.86372959  1
  O  O287  1  0.61918959  0.38113236  0.35978373  1
  O  O288  1  0.61126241  0.36367259  0.87220102  1
  O  O289  1  0.60942620  0.87348066  0.38029921  1
  O  O290  1  0.61544599  0.86952045  0.86994308  1
  O  O291  1  0.38379724  0.12346513  0.13453856  1
  O  O292  1  0.36836500  0.13836992  0.63358262  1
  O  O293  1  0.37071271  0.63425055  0.13715081  1
  O  O294  1  0.36964903  0.63995879  0.62974942  1
  O  O295  1  0.87046262  0.12734771  0.13689117  1
  O  O296  1  0.87081220  0.14070757  0.62692812  1
  O  O297  1  0.87387636  0.63739275  0.12839355  1
  O  O298  1  0.87116065  0.64226273  0.61463439  1
  O  O299  1  0.25205380  0.26158211  0.12482596  1
  O  O300  1  0.25638792  0.26153993  0.62759991  1
  O  O301  1  0.26051798  0.76091800  0.12829743  1
  O  O302  1  0.25324849  0.75721205  0.61473937  1
  O  O303  1  0.75772781  0.25247454  0.11891450  1
  O  O304  1  0.75682189  0.26433864  0.62387963  1
  O  O305  1  0.75853207  0.75354417  0.11913058  1
  O  O306  1  0.75833484  0.76294392  0.62655673  1
  O  O307  1  0.23998575  0.23851810  0.36902197  1
  O  O308  1  0.23603465  0.25481412  0.87221504  1
  O  O309  1  0.25840047  0.74401989  0.38986526  1
  O  O310  1  0.23221632  0.75079670  0.87516261  1
  O  O311  1  0.75352783  0.23898683  0.37147048  1
  O  O312  1  0.73726248  0.25539227  0.87652298  1
  O  O313  1  0.74554855  0.74254810  0.37776871  1
  O  O314  1  0.75343934  0.75085594  0.89036510  1
  O  O315  1  0.01187136  0.10660443  -0.00364831  1
  O  O316  1  0.00501300  0.12545285  0.50512592  1
  O  O317  1  -0.00060974  0.61121747  -0.00054590  1
  O  O318  1  0.01089219  0.61897554  0.49267217  1
  O  O319  1  0.50482733  0.11571524  0.00419966  1
  O  O320  1  0.49541989  0.10731367  0.49617728  1
  O  O321  1  0.48936735  0.61034818  0.00053577  1
  O  O322  1  0.50407706  0.61383619  0.49215647  1
  O  O323  1  0.49144635  0.38681667  0.49500557  1
  O  O324  1  0.49623661  0.37739751  0.99423325  1
  O  O325  1  0.49350863  0.88538211  0.49328058  1
  O  O326  1  0.49401239  0.87962993  0.99550422  1
  O  O327  1  0.99426272  0.38278282  0.49286564  1
  O  O328  1  0.98793244  0.37766039  1.00057289  1
  O  O329  1  0.99232403  0.87746712  0.49448626  1
  O  O330  1  0.99677189  0.88967689  0.99976946  1
  O  O331  1  0.49490078  0.49273821  0.38059309  1
  O  O332  1  0.49630645  0.48948358  0.88243583  1
  O  O333  1  0.49784924  0.98921539  0.37903335  1
  O  O334  1  0.49470282  0.99338231  0.88734553  1
  O  O335  1  1.00164626  0.49379710  0.38180352  1
  O  O336  1  0.99668196  0.49628473  0.88651993  1
  O  O337  1  0.98696407  0.99217277  0.37697761  1
  O  O338  1  0.98993506  0.99832765  0.87916444  1
  O  O339  1  0.00825501  -0.00642521  0.12156349  1
  O  O340  1  0.00292793  0.00990155  0.62483751  1
  O  O341  1  0.01005932  0.49585753  0.11201293  1
  O  O342  1  0.01249526  0.49404608  0.61475950  1
  O  O343  1  0.50167253  0.00216858  0.11283248  1
  O  O344  1  0.49826890  -0.00376939  0.61518044  1
  O  O345  1  0.51547643  0.49311177  0.11773724  1
  O  O346  1  0.50832404  0.49450052  0.61522300  1
  O  O347  1  0.24961935  0.37863551  0.24268826  1
  O  O348  1  0.23853983  0.37656213  0.74017983  1
  O  O349  1  0.24671785  0.87954600  0.24990972  1
  O  O350  1  0.24032761  0.88166237  0.74357132  1
  O  O351  1  0.74355953  0.37804640  0.24432895  1
  O  O352  1  0.74750804  0.38426538  0.73691977  1
  O  O353  1  0.75332117  0.87204603  0.23583493  1
  O  O354  1  0.74067902  0.88040293  0.74882243  1
  O  O355  1  0.25736673  0.11681736  0.25711922  1
  O  O356  1  0.25667717  0.11465370  0.74619243  1
  O  O357  1  0.26087901  0.62120325  0.26033860  1
  O  O358  1  0.26046527  0.62336046  0.75075347  1
  O  O359  1  0.76049160  0.12392128  0.26089613  1
  O  O360  1  0.74614787  0.11023834  0.75114446  1
  O  O361  1  0.74806326  0.61418154  0.25951526  1
  O  O362  1  0.75010268  0.61698836  0.74324492  1
  O  O363  1  0.36260922  0.12757452  0.36911341  1
  O  O364  1  0.37622799  0.12354975  0.86272356  1
  O  O365  1  0.36809045  0.62025082  0.37207037  1
  O  O366  1  0.37543929  0.62514107  0.85688274  1
  O  O367  1  0.87413261  0.11736539  0.36264312  1
  O  O368  1  0.87429298  0.10814370  0.87557118  1
  O  O369  1  0.85947132  0.62427928  0.38657861  1
  O  O370  1  0.88092242  0.61240588  0.87848818  1
  O  O371  1  0.13409152  0.37934133  0.12874967  1
  O  O372  1  0.13017211  0.37769263  0.62881543  1
  O  O373  1  0.13329206  0.87926777  0.13538238  1
  O  O374  1  0.12853887  0.88218702  0.63082124  1
  O  O375  1  0.63181527  0.37748280  0.13412919  1
  O  O376  1  0.63366054  0.38928633  0.62465347  1
  O  O377  1  0.64194026  0.86989284  0.12000235  1
  O  O378  1  0.63394636  0.87267551  0.63487660  1
  O  O379  1  0.11984862  0.25264161  0.25354734  1
  O  O380  1  0.11810548  0.25565632  0.75608075  1
  O  O381  1  0.12548217  0.76114156  0.24916482  1
  O  O382  1  0.11179820  0.75630469  0.75058942  1
  O  O383  1  0.61793495  0.25551560  0.24539377  1
  O  O384  1  0.61772318  0.24995903  0.75470534  1
  O  O385  1  0.61103015  0.74270739  0.24780714  1
  O  O386  1  0.62654960  0.76159358  0.75452525  1
  O  O387  1  0.38224409  0.23585924  0.24753290  1
  O  O388  1  0.37967408  0.24377765  0.74508206  1
  O  O389  1  0.38361117  0.74332666  0.24526531  1
  O  O390  1  0.37010570  0.74383384  0.73613362  1
  O  O391  1  0.88483756  0.24146390  0.24425860  1
  O  O392  1  0.88000818  0.25356863  0.74486316  1
  O  O393  1  0.87965822  0.75030592  0.23649062  1
  O  O394  1  0.88875293  0.75428132  0.74616533  1
  O  O395  1  0.38033388  0.49611223  0.49830613  1
  O  O396  1  0.38583220  0.48565715  1.00196372  1
  O  O397  1  0.37948171  0.98817314  0.50795815  1
  O  O398  1  0.38018325  0.98769187  1.00169643  1
  O  O399  1  0.88825349  0.49344691  0.50747729  1
  O  O400  1  0.88442948  0.49269702  0.99699902  1
  O  O401  1  0.87427042  0.98942898  0.49396589  1
  O  O402  1  0.88223293  0.99957981  0.99158396  1
  O  O403  1  0.12020730  -0.00571348  0.01253184  1
  O  O404  1  0.12138688  0.01246885  0.50733233  1
  O  O405  1  0.11210246  0.49204536  0.00555149  1
  O  O406  1  0.11613918  0.50674804  0.50477487  1
  O  O407  1  0.61899609  0.00416972  -0.00007247  1
  O  O408  1  0.60902343  -0.00124486  0.50056080  1
  O  O409  1  0.62051786  0.49904797  0.01361552  1
  O  O410  1  0.61640438  0.50854323  0.50508653  1
  O  O411  1  0.36912650  0.37192946  0.11794347  1
  O  O412  1  0.36585573  0.36753752  0.62037877  1
  O  O413  1  0.36790456  0.86957723  0.12040930  1
  O  O414  1  0.36750221  0.86558577  0.62109589  1
  O  O415  1  0.86972626  0.36500860  0.11773611  1
  O  O416  1  0.86978900  0.36979501  0.61708609  1
  O  O417  1  0.86499156  0.86345190  0.12098085  1
  O  O418  1  0.86941561  0.86984433  0.61944156  1
  O  O419  1  0.13116585  0.12772345  0.38236398  1
  O  O420  1  0.12356115  0.13976701  0.86874044  1
  O  O421  1  0.14461384  0.62073253  0.38870806  1
  O  O422  1  0.12545881  0.64166907  0.86857385  1
  O  O423  1  0.64263543  0.11999675  0.38309748  1
  O  O424  1  0.61766479  0.13223383  0.88739450  1
  O  O425  1  0.63317859  0.62654193  0.38299117  1
  O  O426  1  0.61940868  0.62202993  0.87462326  1
