# generated using pymatgen
data_V85Zn86O256
_symmetry_space_group_name_H-M   'P 1'
_cell_length_a   16.92115257
_cell_length_b   16.92216446
_cell_length_c   16.93321364
_cell_angle_alpha   90.02736102
_cell_angle_beta   90.04107501
_cell_angle_gamma   89.97649205
_symmetry_Int_Tables_number   1
_chemical_formula_structural   V85Zn86O256
_chemical_formula_sum   'V85 Zn86 O256'
_cell_volume   4848.69697282
_cell_formula_units_Z   1
loop_
 _symmetry_equiv_pos_site_id
 _symmetry_equiv_pos_as_xyz
  1  'x, y, z'
loop_
 _atom_site_type_symbol
 _atom_site_label
 _atom_site_symmetry_multiplicity
 _atom_site_fract_x
 _atom_site_fract_y
 _atom_site_fract_z
 _atom_site_occupancy
  V  V0  1  0.12373948  0.87522426  0.75140514  1
  V  V1  1  0.93067928  0.68402626  0.29493864  1
  V  V2  1  0.37518884  0.74004708  0.62807223  1
  V  V3  1  0.12494222  0.74725745  0.87874152  1
  V  V4  1  0.74680408  0.75121194  0.49448314  1
  V  V5  1  -0.00178238  0.25103224  0.75797479  1
  V  V6  1  0.50428156  0.49816318  0.00160179  1
  V  V7  1  0.62276768  0.00050376  0.12878139  1
  V  V8  1  0.61769294  0.12416781  0.51097245  1
  V  V9  1  0.37038097  0.36978737  0.51192747  1
  V  V10  1  0.12051614  0.50375905  0.11027485  1
  V  V11  1  0.74190556  0.87401072  0.62787249  1
  V  V12  1  0.87551761  0.25027897  0.62417462  1
  V  V13  1  0.62224688  0.25075340  0.87474236  1
  V  V14  1  0.25304419  0.37510922  0.12364233  1
  V  V15  1  0.24088759  0.62858210  0.37266376  1
  V  V16  1  -0.00005963  0.62485161  0.10457944  1
  V  V17  1  0.88461448  0.00127877  0.37762666  1
  V  V18  1  0.49870480  0.37300668  0.36576147  1
  V  V19  1  0.75264319  0.75617130  -0.00840497  1
  V  V20  1  0.50230494  0.62519553  0.12561776  1
  V  V21  1  0.37571136  0.62693293  0.25051862  1
  V  V22  1  0.74826290  0.26057660  0.00063225  1
  V  V23  1  0.25017792  0.12584217  0.87464000  1
  V  V24  1  0.61821798  0.63171405  0.49549645  1
  V  V25  1  -0.00307738  0.74752769  0.75048958  1
  V  V26  1  0.37815130  0.75055922  0.12496021  1
  V  V27  1  0.64106289  0.49937428  0.12950699  1
  V  V28  1  0.12355674  0.37327895  0.75497347  1
  V  V29  1  0.25034097  0.00333842  0.26116118  1
  V  V30  1  0.75047547  0.38279174  0.62635537  1
  V  V31  1  0.87552208  0.37959878  0.49814858  1
  V  V32  1  -0.00151420  0.12037309  0.61805627  1
  V  V33  1  0.50822794  0.87090482  0.87080468  1
  V  V34  1  0.62743766  0.37937342  0.75092527  1
  V  V35  1  0.37391024  0.49918434  0.37515871  1
  V  V36  1  0.51047913  0.74648215  0.74908655  1
  V  V37  1  0.12347056  0.37482590  0.24854733  1
  V  V38  1  0.11979906  -0.00294640  0.61769376  1
  V  V39  1  0.38082454  0.87968181  0.00032624  1
  V  V40  1  0.74784898  0.61636935  0.86832597  1
  V  V41  1  0.12842944  0.49294494  0.62185233  1
  V  V42  1  0.74402645  0.62585044  0.36277143  1
  V  V43  1  0.25165115  0.87293896  0.62716706  1
  V  V44  1  0.87224261  0.49725388  0.35889472  1
  V  V45  1  0.63991501  0.37714674  0.24746663  1
  V  V46  1  0.86914236  0.25443391  0.12496664  1
  V  V47  1  0.62073466  0.24709286  0.37033929  1
  V  V48  1  0.13388827  0.24407305  0.37348485  1
  V  V49  1  0.25154412  0.87606010  0.12621409  1
  V  V50  1  0.37750178  0.49858394  0.87592867  1
  V  V51  1  0.74902171  0.12483593  0.87597153  1
  V  V52  1  0.61756554  0.12282841  0.00158142  1
  V  V53  1  0.24389524  0.74851210  0.49759814  1
  V  V54  1  0.74660775  0.11865023  0.37445841  1
  V  V55  1  0.62489305  0.50633266  0.62600656  1
  V  V56  1  0.88056355  0.88004027  0.50329107  1
  V  V57  1  0.88770567  0.49483935  0.86969709  1
  V  V58  1  0.37555618  0.13126048  0.25961465  1
  V  V59  1  0.62803034  0.63187348  -0.00133782  1
  V  V60  1  0.37821855  0.12792322  0.73781976  1
  V  V61  1  0.24567066  0.62120236  0.87737320  1
  V  V62  1  0.24754846  0.74550622  0.00038291  1
  V  V63  1  0.62678886  0.87315072  0.25651002  1
  V  V64  1  0.12630907  0.00005048  0.12628650  1
  V  V65  1  0.88977258  0.38064107  -0.00056713  1
  V  V66  1  -0.00204487  0.87476652  0.87838965  1
  V  V67  1  -0.00170745  0.12420350  0.12481806  1
  V  V68  1  0.25244952  0.24790702  0.00090196  1
  V  V69  1  0.24981659  0.50067574  0.24719753  1
  V  V70  1  0.87262008  -0.00522533  0.87827144  1
  V  V71  1  0.25261373  0.49338244  0.74512374  1
  V  V72  1  -0.00072817  0.24977700  0.25056313  1
  V  V73  1  -0.00001078  0.61971442  0.62801138  1
  V  V74  1  0.75490017  0.88223648  0.12309601  1
  V  V75  1  0.49758272  0.12769181  0.12922204  1
  V  V76  1  0.87962624  0.75266646  0.11608111  1
  V  V77  1  -0.00499835  -0.00509011  0.00181661  1
  V  V78  1  0.74288047  -0.00429061  0.75159604  1
  V  V79  1  0.49905996  0.50204291  0.50350194  1
  V  V80  1  0.86738827  0.11888900  0.24866231  1
  V  V81  1  0.49916329  0.24809788  0.73548192  1
  V  V82  1  0.37898536  0.00104221  0.87676866  1
  V  V83  1  0.24838755  0.24587233  0.51405982  1
  V  V84  1  0.12017834  0.86276167  0.25663567  1
  Zn  Zn85  1  0.24862063  0.00081301  0.75049561  1
  Zn  Zn86  1  0.12373345  0.62310004  0.49702083  1
  Zn  Zn87  1  0.37451755  0.87600249  0.49608431  1
  Zn  Zn88  1  0.86772561  0.61638039  0.74486864  1
  Zn  Zn89  1  0.50017856  0.37304393  0.87466177  1
  Zn  Zn90  1  0.61543457  0.00012628  0.63434350  1
  Zn  Zn91  1  0.49775629  0.87115296  0.38146888  1
  Zn  Zn92  1  0.00029689  0.37564723  0.37559843  1
  Zn  Zn93  1  0.50745855  0.74838347  0.25827354  1
  Zn  Zn94  1  0.00067789  0.86692210  0.37475622  1
  Zn  Zn95  1  0.49178396  -0.00181130  0.50887317  1
  Zn  Zn96  1  0.87178035  0.74874581  0.62817153  1
  Zn  Zn97  1  0.37935113  0.37312277  0.00140911  1
  Zn  Zn98  1  0.00043166  0.49981050  0.49688382  1
  Zn  Zn99  1  0.12477782  0.12414779  -0.00143068  1
  Zn  Zn100  1  0.37952247  0.62212025  0.74868434  1
  Zn  Zn101  1  0.38151975  0.25251569  0.12919781  1
  Zn  Zn102  1  0.74939692  0.25022858  0.49874865  1
  Zn  Zn103  1  0.12507330  0.11657454  0.49170704  1
  Zn  Zn104  1  0.12108568  0.25230907  0.87851578  1
  Zn  Zn105  1  0.37884738  -0.00012977  0.37934452  1
  Zn  Zn106  1  0.87435833  0.12363759  0.74958404  1
  Zn  Zn107  1  0.19091863  0.18594851  0.18770229  1
  Zn  Zn108  1  0.18528192  0.18474907  0.68776191  1
  Zn  Zn109  1  0.18489242  0.68513231  0.18260390  1
  Zn  Zn110  1  0.18686511  0.68200798  0.68986418  1
  Zn  Zn111  1  0.68617195  0.19138313  0.18859642  1
  Zn  Zn112  1  0.69179868  0.19131590  0.69040300  1
  Zn  Zn113  1  0.69066345  0.69401291  0.18074104  1
  Zn  Zn114  1  0.68564210  0.68856796  0.68450026  1
  Zn  Zn115  1  0.31224927  0.31142516  0.31474069  1
  Zn  Zn116  1  0.31356105  0.31180567  0.81106168  1
  Zn  Zn117  1  0.31272024  0.81270849  0.31244452  1
  Zn  Zn118  1  0.31550414  0.81115894  0.81164711  1
  Zn  Zn119  1  0.81036180  0.30817747  0.31453432  1
  Zn  Zn120  1  0.81125135  0.31579519  0.81293223  1
  Zn  Zn121  1  0.80347208  0.82140105  0.31404170  1
  Zn  Zn122  1  0.81149101  0.81183319  0.81250329  1
  Zn  Zn123  1  0.18947512  0.43495359  0.43656594  1
  Zn  Zn124  1  0.18818752  0.43355761  0.93505890  1
  Zn  Zn125  1  0.18791848  0.93249936  0.43782969  1
  Zn  Zn126  1  0.18989973  0.93719741  0.93907164  1
  Zn  Zn127  1  0.68973291  0.44124979  0.43541222  1
  Zn  Zn128  1  0.68946825  0.44022856  0.93803248  1
  Zn  Zn129  1  0.69044675  0.94324013  0.43957892  1
  Zn  Zn130  1  0.68489449  0.93946499  0.94235172  1
  Zn  Zn131  1  0.31507157  0.06230501  0.06464909  1
  Zn  Zn132  1  0.30769368  0.06080505  0.56174185  1
  Zn  Zn133  1  0.31366556  0.56195273  0.06074530  1
  Zn  Zn134  1  0.31142139  0.56152190  0.56102279  1
  Zn  Zn135  1  0.80949407  0.06528915  0.05915450  1
  Zn  Zn136  1  0.80689997  0.06210666  0.56156097  1
  Zn  Zn137  1  0.81817026  0.56520083  0.05979553  1
  Zn  Zn138  1  0.81114279  0.56313047  0.55722981  1
  Zn  Zn139  1  0.44058473  0.43938676  0.18663913  1
  Zn  Zn140  1  0.44218843  0.43686764  0.68781806  1
  Zn  Zn141  1  0.44145289  0.94363673  0.19071210  1
  Zn  Zn142  1  0.43787153  0.93719994  0.68678894  1
  Zn  Zn143  1  0.93832855  0.43916574  0.18038176  1
  Zn  Zn144  1  0.94029854  0.43523138  0.69017119  1
  Zn  Zn145  1  0.93662537  0.93549002  0.19048698  1
  Zn  Zn146  1  0.93257108  0.93799807  0.68948366  1
  Zn  Zn147  1  0.06105134  0.06203615  0.31017321  1
  Zn  Zn148  1  0.06159587  0.06401047  0.80805341  1
  Zn  Zn149  1  0.06281672  0.55460350  0.30913267  1
  Zn  Zn150  1  0.06521676  0.56123228  0.81265396  1
  Zn  Zn151  1  0.55868005  0.05527152  0.31409058  1
  Zn  Zn152  1  0.55775467  0.06192725  0.81360971  1
  Zn  Zn153  1  0.56244689  0.56054221  0.31312516  1
  Zn  Zn154  1  0.56425554  0.56439279  0.81286360  1
  Zn  Zn155  1  0.43759203  0.19019718  0.43944242  1
  Zn  Zn156  1  0.43777453  0.18899008  0.93590699  1
  Zn  Zn157  1  0.43400787  0.69388186  0.43604011  1
  Zn  Zn158  1  0.43674380  0.68762140  0.93521264  1
  Zn  Zn159  1  0.94001368  0.19092932  0.43638016  1
  Zn  Zn160  1  0.93502913  0.18298139  0.93950655  1
  Zn  Zn161  1  0.93228457  0.68605398  0.45665568  1
  Zn  Zn162  1  0.93172119  0.68578536  0.93350424  1
  Zn  Zn163  1  0.06463101  0.30996934  0.06313183  1
  Zn  Zn164  1  0.06229266  0.31230743  0.56467375  1
  Zn  Zn165  1  0.06336702  0.81281036  0.06511380  1
  Zn  Zn166  1  0.06239674  0.80911868  0.56302702  1
  Zn  Zn167  1  0.56410046  0.31285064  0.06769802  1
  Zn  Zn168  1  0.56333763  0.31433373  0.55677088  1
  Zn  Zn169  1  0.56340790  0.81392556  0.06307421  1
  Zn  Zn170  1  0.55836138  0.81338782  0.56478450  1
  O  O171  1  0.11784012  0.11645655  0.12571765  1
  O  O172  1  0.11687863  0.11361466  0.62480587  1
  O  O173  1  0.11136227  0.61801506  0.12560661  1
  O  O174  1  0.11762001  0.61095922  0.62707933  1
  O  O175  1  0.62125484  0.12086591  0.12190239  1
  O  O176  1  0.63305115  0.12899337  0.61240680  1
  O  O177  1  0.62180145  0.61895384  0.11885279  1
  O  O178  1  0.63164822  0.61172163  0.61553121  1
  O  O179  1  0.38201190  0.38016689  0.37854340  1
  O  O180  1  0.37637735  0.38724226  0.87787146  1
  O  O181  1  0.37338296  0.88052632  0.37575106  1
  O  O182  1  0.37755010  0.88248013  0.88208939  1
  O  O183  1  0.87278135  0.38071202  0.38138088  1
  O  O184  1  0.87122568  0.38616417  0.88420842  1
  O  O185  1  0.87522791  0.88481057  0.38044175  1
  O  O186  1  0.88141624  0.88677263  0.87243068  1
  O  O187  1  0.24488458  0.00091622  0.36293924  1
  O  O188  1  0.25936713  0.00608636  0.87390007  1
  O  O189  1  0.25556680  0.50386930  0.36656606  1
  O  O190  1  0.25703432  0.50449704  0.87127944  1
  O  O191  1  0.76009473  0.01435943  0.37591798  1
  O  O192  1  0.75577160  0.00202386  0.87309792  1
  O  O193  1  0.76127700  0.51417393  0.38084033  1
  O  O194  1  0.75885213  0.51258153  0.87980244  1
  O  O195  1  0.24434616  0.49395576  0.12788242  1
  O  O196  1  0.24257137  0.50344190  0.63365552  1
  O  O197  1  0.24215878  0.99452728  0.12970681  1
  O  O198  1  0.24021412  0.98893151  0.62961484  1
  O  O199  1  0.74003291  0.50597892  0.11996799  1
  O  O200  1  0.74341497  0.48991979  0.62020128  1
  O  O201  1  0.74692418  0.98800758  0.11754815  1
  O  O202  1  0.74703526  0.99376704  0.63582393  1
  O  O203  1  0.00904781  0.36852050  0.24560355  1
  O  O204  1  0.00893294  0.36304646  0.74765570  1
  O  O205  1  0.01532197  0.87655444  0.25157657  1
  O  O206  1  0.00401585  0.86672740  0.75584179  1
  O  O207  1  0.50522905  0.37993215  0.26239735  1
  O  O208  1  0.51072494  0.36755870  0.75148055  1
  O  O209  1  0.51692941  0.87601454  0.24646299  1
  O  O210  1  0.49250002  0.86402783  0.76417987  1
  O  O211  1  0.48542019  0.11994050  0.24375327  1
  O  O212  1  0.48629627  0.13204812  0.75446334  1
  O  O213  1  0.49424287  0.62463285  0.24362239  1
  O  O214  1  0.49729543  0.64113271  0.75953273  1
  O  O215  1  0.98894482  0.13080348  0.24371573  1
  O  O216  1  0.99663108  0.13284161  0.73806579  1
  O  O217  1  0.99772526  0.62832888  0.24324615  1
  O  O218  1  0.99872314  0.62979701  0.74291747  1
  O  O219  1  0.36459955  0.25227827  0.00257943  1
  O  O220  1  0.36217057  0.25945695  0.49573999  1
  O  O221  1  0.36630360  0.75528562  0.00497847  1
  O  O222  1  0.36202258  0.74972085  0.51194810  1
  O  O223  1  0.86955218  0.25751191  0.00437424  1
  O  O224  1  0.87305920  0.25887559  0.50727284  1
  O  O225  1  0.86797741  0.74977045  0.00716214  1
  O  O226  1  0.86207238  0.75840217  0.50658878  1
  O  O227  1  0.13599388  0.25635405  0.49270215  1
  O  O228  1  0.13681928  0.24686312  0.99839262  1
  O  O229  1  0.13841414  0.74344782  0.50611656  1
  O  O230  1  0.13961215  0.75759413  0.99492439  1
  O  O231  1  0.62779495  0.24185163  0.49092297  1
  O  O232  1  0.63208954  0.24728594  0.99614766  1
  O  O233  1  0.62994150  0.73760616  0.50882474  1
  O  O234  1  0.63361326  0.73799389  1.00574214  1
  O  O235  1  0.50045510  0.23507772  0.12229780  1
  O  O236  1  0.50586889  0.25422037  0.63613581  1
  O  O237  1  0.49403189  0.74235397  0.12578418  1
  O  O238  1  0.48931072  0.75613202  0.64096027  1
  O  O239  1  0.98997308  0.24405662  0.12857502  1
  O  O240  1  0.98954874  0.24604106  0.63259190  1
  O  O241  1  0.99361518  0.73915108  0.11898879  1
  O  O242  1  0.99949767  0.74038888  0.63484527  1
  O  O243  1  0.00860748  0.25562361  0.36688988  1
  O  O244  1  0.00060121  0.23869160  0.86212077  1
  O  O245  1  -0.01762382  0.74035652  0.36299212  1
  O  O246  1  0.00395156  0.75291070  0.87065338  1
  O  O247  1  0.51211819  0.25822574  0.37842195  1
  O  O248  1  0.50796184  0.25281338  0.86918924  1
  O  O249  1  0.49841673  0.75527030  0.37068332  1
  O  O250  1  0.49347824  0.76149869  0.86544795  1
  O  O251  1  0.24461577  0.14148047  0.50422759  1
  O  O252  1  0.24953633  0.13148121  0.99449997  1
  O  O253  1  0.24861093  0.62877002  0.48934926  1
  O  O254  1  0.25428339  0.63392412  0.99210042  1
  O  O255  1  0.74124283  0.12980335  0.49092637  1
  O  O256  1  0.74107620  0.13649449  0.99461285  1
  O  O257  1  0.74323555  0.63425624  0.49197759  1
  O  O258  1  0.74580156  0.63200055  0.99206758  1
  O  O259  1  0.25163707  0.36848670  0.01018481  1
  O  O260  1  0.26435795  0.36874857  0.49646657  1
  O  O261  1  0.26032144  0.86820039  0.00578420  1
  O  O262  1  0.24873406  0.86519291  0.51034724  1
  O  O263  1  0.75709170  0.36353782  -0.00448372  1
  O  O264  1  0.75886280  0.37371674  0.50650100  1
  O  O265  1  0.74497493  0.86417330  0.00585491  1
  O  O266  1  0.75580670  0.86898087  0.50445275  1
  O  O267  1  0.13097661  0.49078077  0.23955874  1
  O  O268  1  0.13274863  0.49245551  0.74543613  1
  O  O269  1  0.13059169  0.99682855  0.24035767  1
  O  O270  1  0.12537864  0.99124938  0.74159958  1
  O  O271  1  0.62232579  0.48786294  0.24312788  1
  O  O272  1  0.61702163  0.49201382  0.73923999  1
  O  O273  1  0.62623416  0.99324661  0.23648463  1
  O  O274  1  0.63836717  1.00520612  0.75463419  1
  O  O275  1  0.36544376  0.00916994  0.25075714  1
  O  O276  1  0.37149395  0.01229486  0.75811780  1
  O  O277  1  0.36926555  0.50729529  0.25271263  1
  O  O278  1  0.37143475  0.49970241  0.75631370  1
  O  O279  1  0.87752873  0.01065271  0.25775579  1
  O  O280  1  0.86419773  0.00243754  0.76000768  1
  O  O281  1  0.87485375  0.49236247  0.25919751  1
  O  O282  1  0.87507172  0.49627717  0.76466875  1
  O  O283  1  0.12464232  0.37179648  0.36058148  1
  O  O284  1  0.12770566  0.37170768  0.86106661  1
  O  O285  1  0.12106945  0.87564731  0.36212090  1
  O  O286  1  0.11956310  0.86936964  0.87046554  1
  O  O287  1  0.62104871  0.37121707  0.36687078  1
  O  O288  1  0.62612610  0.37220732  0.86636686  1
  O  O289  1  0.63502167  0.88230672  0.35791160  1
  O  O290  1  0.60640224  0.87995437  0.88176340  1
  O  O291  1  0.38328550  0.12594553  0.13230358  1
  O  O292  1  0.36672631  0.12508102  0.64022102  1
  O  O293  1  0.38156863  0.62895058  0.12955873  1
  O  O294  1  0.37098917  0.63573351  0.62722025  1
  O  O295  1  0.87719470  0.13113901  0.13096085  1
  O  O296  1  0.87813174  0.13375940  0.62454226  1
  O  O297  1  0.88918331  0.63313599  0.12103311  1
  O  O298  1  0.88287340  0.62373841  0.62731082  1
  O  O299  1  0.25145082  0.25849697  0.11836000  1
  O  O300  1  0.24208287  0.25427026  0.61258815  1
  O  O301  1  0.25595172  0.75411995  0.11728795  1
  O  O302  1  0.25375425  0.75306813  0.62306893  1
  O  O303  1  0.76163489  0.24626322  0.11663660  1
  O  O304  1  0.76147313  0.26121480  0.62511108  1
  O  O305  1  0.76037382  0.75705511  0.11281720  1
  O  O306  1  0.75111603  0.75643176  0.61728946  1
  O  O307  1  0.23753831  0.25567324  0.38215149  1
  O  O308  1  0.24979965  0.24269386  0.88304329  1
  O  O309  1  0.25390071  0.73968844  0.38391812  1
  O  O310  1  0.24784338  0.74125750  0.88100479  1
  O  O311  1  0.73936558  0.23976936  0.37580814  1
  O  O312  1  0.74374221  0.24522619  0.88075903  1
  O  O313  1  0.75373450  0.74374191  0.38678809  1
  O  O314  1  0.75920207  0.73753491  0.88481081  1
  O  O315  1  0.00287395  0.11377109  0.00610596  1
  O  O316  1  0.00411422  0.13398652  0.51429511  1
  O  O317  1  0.00166336  0.62647138  0.00587635  1
  O  O318  1  0.00430147  0.62202317  0.51377551  1
  O  O319  1  0.51237960  0.12928461  0.00477927  1
  O  O320  1  0.51530784  0.12829090  0.49791902  1
  O  O321  1  0.50895672  0.61895332  0.00205714  1
  O  O322  1  0.50643216  0.61479372  0.49397520  1
  O  O323  1  0.49004285  0.37925532  0.49016301  1
  O  O324  1  0.50238268  0.38649958  0.99965637  1
  O  O325  1  0.49344916  0.87615465  0.50101697  1
  O  O326  1  0.48751148  0.86516535  0.98889014  1
  O  O327  1  0.98679477  0.37508277  0.49987673  1
  O  O328  1  0.98813478  0.36777405  0.99722961  1
  O  O329  1  0.98490251  0.86240072  0.49554092  1
  O  O330  1  1.00509092  0.88728841  0.99510832  1
  O  O331  1  0.49446324  0.49276758  0.38470761  1
  O  O332  1  0.49428541  0.49997262  0.88325171  1
  O  O333  1  0.49918489  0.99220688  0.38425277  1
  O  O334  1  0.48702025  0.98782253  0.87065407  1
  O  O335  1  0.98966825  0.49647814  0.37593970  1
  O  O336  1  0.98665615  0.50434436  0.87521270  1
  O  O337  1  0.98787293  0.99997187  0.37520634  1
  O  O338  1  0.99347376  0.99781031  0.88160692  1
  O  O339  1  0.00480708  0.00234636  0.11930675  1
  O  O340  1  0.00524479  0.00774817  0.63049483  1
  O  O341  1  0.00567719  0.51457143  0.12418870  1
  O  O342  1  0.00695088  0.50543715  0.62516611  1
  O  O343  1  0.50960599  0.01358336  0.12405671  1
  O  O344  1  0.50359830  0.00001742  0.62501996  1
  O  O345  1  0.50763679  0.50680796  0.11670620  1
  O  O346  1  0.50868617  0.49493212  0.61183292  1
  O  O347  1  0.24469766  0.37757559  0.23954425  1
  O  O348  1  0.24543123  0.38596722  0.75278792  1
  O  O349  1  0.24049443  0.88315853  0.24366690  1
  O  O350  1  0.24017200  0.87284289  0.74512464  1
  O  O351  1  0.73861026  0.37632986  0.25393313  1
  O  O352  1  0.73656712  0.37105714  0.74118668  1
  O  O353  1  0.73939492  0.87404323  0.23556874  1
  O  O354  1  0.75435046  0.88181160  0.74161908  1
  O  O355  1  0.26369563  0.11576670  0.24290178  1
  O  O356  1  0.25982207  0.12703189  0.75836647  1
  O  O357  1  0.25448341  0.62100920  0.25334944  1
  O  O358  1  0.25254495  0.61150323  0.75917030  1
  O  O359  1  0.76048098  0.13160415  0.25644999  1
  O  O360  1  0.75234865  0.11932728  0.75954137  1
  O  O361  1  0.74045094  0.63243173  0.26313043  1
  O  O362  1  0.74927479  0.63168277  0.76493463  1
  O  O363  1  0.37821587  0.12505562  0.36260820  1
  O  O364  1  0.36671291  0.11779642  0.87378149  1
  O  O365  1  0.36505657  0.61781809  0.36864742  1
  O  O366  1  0.36573825  0.61315359  0.87563069  1
  O  O367  1  0.86988451  0.12226276  0.36909694  1
  O  O368  1  0.86713617  0.11303985  0.87561539  1
  O  O369  1  0.87352683  0.62334597  0.36425617  1
  O  O370  1  0.86620866  0.61107880  0.87376950  1
  O  O371  1  0.13120071  0.37926497  0.13207817  1
  O  O372  1  0.12015231  0.38641410  0.63529331  1
  O  O373  1  0.12957957  0.88248524  0.13333324  1
  O  O374  1  0.12994234  0.87755848  0.63111314  1
  O  O375  1  0.62307109  0.38247067  0.13938700  1
  O  O376  1  0.63247937  0.38324947  0.62710307  1
  O  O377  1  0.63192661  0.88438565  0.12590399  1
  O  O378  1  0.63894576  0.87812954  0.61996006  1
  O  O379  1  0.12291424  0.25552879  0.25454122  1
  O  O380  1  0.11703127  0.25611986  0.74967825  1
  O  O381  1  0.13076754  0.76476236  0.24558744  1
  O  O382  1  0.11486502  0.75283394  0.75684673  1
  O  O383  1  0.62650029  0.26476890  0.25612128  1
  O  O384  1  0.61868273  0.25570885  0.75543192  1
  O  O385  1  0.62515006  0.76867990  0.23964353  1
  O  O386  1  0.60981064  0.74993518  0.74581132  1
  O  O387  1  0.36870403  0.23573844  0.24819409  1
  O  O388  1  0.38333736  0.23792844  0.75546403  1
  O  O389  1  0.37253785  0.74186209  0.23929416  1
  O  O390  1  0.37927800  0.74465003  0.74358895  1
  O  O391  1  0.87780129  0.24586107  0.24143786  1
  O  O392  1  0.88054917  0.25099802  0.74298446  1
  O  O393  1  0.87104852  0.74846204  0.24093166  1
  O  O394  1  0.88715704  0.74586669  0.75058084  1
  O  O395  1  0.37970893  0.48992218  0.49659827  1
  O  O396  1  0.38627338  0.49896481  0.99392057  1
  O  O397  1  0.37086388  0.99731184  0.49743598  1
  O  O398  1  0.37106764  0.98995431  0.99228549  1
  O  O399  1  0.87700735  0.49311055  0.49037191  1
  O  O400  1  0.87382294  0.48598472  0.99314459  1
  O  O401  1  0.86902475  0.99118814  0.49240129  1
  O  O402  1  0.88351031  1.00324766  0.99276966  1
  O  O403  1  0.12035298  -0.00028851  0.01227218  1
  O  O404  1  0.12717617  -0.00215792  0.51254226  1
  O  O405  1  0.12848938  0.49366845  0.01144985  1
  O  O406  1  0.12351850  0.49824537  0.50769057  1
  O  O407  1  0.63056373  0.01256218  0.01301384  1
  O  O408  1  0.62875125  0.01799008  0.50243574  1
  O  O409  1  0.62056667  0.50741713  0.00715502  1
  O  O410  1  0.61700183  0.50504263  0.50514048  1
  O  O411  1  0.36713600  0.37422088  0.12449751  1
  O  O412  1  0.37965064  0.37600981  0.61007405  1
  O  O413  1  0.37355582  0.87196017  0.11895923  1
  O  O414  1  0.35955389  0.86487501  0.63177735  1
  O  O415  1  0.87768056  0.36848458  0.11034544  1
  O  O416  1  0.86857946  0.37222264  0.61977444  1
  O  O417  1  0.86832499  0.86535978  0.12955844  1
  O  O418  1  0.86557314  0.87519496  0.61769582  1
  O  O419  1  0.11737530  0.13709069  0.37600631  1
  O  O420  1  0.13913795  0.12328402  0.87443001  1
  O  O421  1  0.13711018  0.61703898  0.37289777  1
  O  O422  1  0.13776334  0.62946403  0.87211146  1
  O  O423  1  0.63019989  0.13108177  0.37516504  1
  O  O424  1  0.62790391  0.12890782  0.88392227  1
  O  O425  1  0.63222547  0.61694588  0.38571494  1
  O  O426  1  0.63835207  0.61807953  0.88465155  1
