# generated using pymatgen
data_V85Zn86O256
_symmetry_space_group_name_H-M   'P 1'
_cell_length_a   16.94957480
_cell_length_b   16.93890409
_cell_length_c   16.94632486
_cell_angle_alpha   90.04468881
_cell_angle_beta   89.97285520
_cell_angle_gamma   89.95144947
_symmetry_Int_Tables_number   1
_chemical_formula_structural   V85Zn86O256
_chemical_formula_sum   'V85 Zn86 O256'
_cell_volume   4865.40847759
_cell_formula_units_Z   1
loop_
 _symmetry_equiv_pos_site_id
 _symmetry_equiv_pos_as_xyz
  1  'x, y, z'
loop_
 _atom_site_type_symbol
 _atom_site_label
 _atom_site_symmetry_multiplicity
 _atom_site_fract_x
 _atom_site_fract_y
 _atom_site_fract_z
 _atom_site_occupancy
  V  V0  1  0.62145144  0.75357425  0.37851472  1
  V  V1  1  0.75085173  0.75147341  -0.00201182  1
  V  V2  1  0.74625408  0.87286605  0.62368436  1
  V  V3  1  0.74550884  0.12725478  0.36935337  1
  V  V4  1  0.48317317  0.12530929  0.62714185  1
  V  V5  1  0.12348537  0.24968908  0.37096248  1
  V  V6  1  0.00228518  0.37214612  0.37806220  1
  V  V7  1  0.50240536  -0.00832247  0.50012956  1
  V  V8  1  0.88197659  0.49969276  0.38415154  1
  V  V9  1  0.24816107  0.62079576  0.37507085  1
  V  V10  1  0.49349767  0.75319850  0.25006755  1
  V  V11  1  0.37890601  0.00207896  0.86421755  1
  V  V12  1  -0.00870678  0.39275356  0.87644060  1
  V  V13  1  0.86814653  0.25358105  0.62682563  1
  V  V14  1  0.00308978  0.87301357  0.87658161  1
  V  V15  1  -0.02828979  0.59272463  0.63339922  1
  V  V16  1  0.37473526  0.37643222  0.50524144  1
  V  V17  1  0.49582533  0.87088716  0.87951733  1
  V  V18  1  -0.00149913  0.12558589  0.62682983  1
  V  V19  1  0.12742068  0.61474172  0.01985936  1
  V  V20  1  0.24709190  0.48863104  0.23952620  1
  V  V21  1  0.12306892  0.25116395  0.87345891  1
  V  V22  1  -0.00227191  0.74867323  0.74217506  1
  V  V23  1  0.24508004  0.60917575  0.86725270  1
  V  V24  1  0.37542223  0.60887123  0.75766457  1
  V  V25  1  0.87127099  0.00153945  0.87775087  1
  V  V26  1  0.62460657  0.87763954  0.25506983  1
  V  V27  1  0.75087056  0.63034440  0.38041518  1
  V  V28  1  0.62347055  0.12754797  0.50319740  1
  V  V29  1  0.49786121  0.50029322  -0.00538128  1
  V  V30  1  0.12565607  -0.00150255  0.62443033  1
  V  V31  1  0.87310672  0.25087504  0.12378550  1
  V  V32  1  0.25570357  0.25078250  0.50782186  1
  V  V33  1  0.49776251  0.74914325  0.75127807  1
  V  V34  1  0.62513679  0.63163472  0.50342113  1
  V  V35  1  0.86854200  0.00237999  0.36999056  1
  V  V36  1  0.25154436  0.25538320  -0.00056624  1
  V  V37  1  0.62947034  0.49645791  0.63221399  1
  V  V38  1  0.25225621  -0.00124641  0.25165529  1
  V  V39  1  0.86897964  0.87691680  0.49679153  1
  V  V40  1  0.88687688  0.75056466  0.12402562  1
  V  V41  1  0.86628847  0.12625682  0.75499605  1
  V  V42  1  0.00001099  0.74753843  0.24916843  1
  V  V43  1  0.11332402  0.61917269  0.50426676  1
  V  V44  1  0.54837806  0.44129080  0.44071499  1
  V  V45  1  -0.00326996  0.87694736  0.37434967  1
  V  V46  1  0.12953458  0.12584600  -0.00262862  1
  V  V47  1  0.75040681  0.25514873  0.50197242  1
  V  V48  1  0.87769851  0.62201212  0.25394312  1
  V  V49  1  0.37246477  0.38095554  0.00020053  1
  V  V50  1  0.49552574  -0.00341401  0.00258935  1
  V  V51  1  0.63228306  0.00185332  0.13087410  1
  V  V52  1  0.48750182  0.24624980  0.74760863  1
  V  V53  1  0.37298632  0.49513545  0.37742331  1
  V  V54  1  0.37370353  0.12677345  0.25445836  1
  V  V55  1  0.61873967  0.49648266  0.13392958  1
  V  V56  1  0.38108037  -0.00673931  0.37779243  1
  V  V57  1  0.50282520  0.12627830  0.12818199  1
  V  V58  1  0.13238678  0.37984683  0.75009160  1
  V  V59  1  0.75118523  0.87423641  0.12901627  1
  V  V60  1  0.00301430  -0.00006911  -0.00080121  1
  V  V61  1  0.12346208  0.74883334  0.37576073  1
  V  V62  1  0.13014285  0.87376754  0.74892696  1
  V  V63  1  0.48827617  0.63251532  0.12149638  1
  V  V64  1  0.87689956  0.12603329  0.24988448  1
  V  V65  1  0.50413841  0.26493737  0.25766133  1
  V  V66  1  -0.04652264  0.56081151  0.07442928  1
  V  V67  1  0.25105846  0.75025796  0.50176495  1
  V  V68  1  0.49898248  0.37379991  0.87314150  1
  V  V69  1  0.74858631  -0.00194638  0.75330014  1
  V  V70  1  -0.00152650  0.25011507  0.75334174  1
  V  V71  1  0.63240778  0.12631457  -0.00614130  1
  V  V72  1  0.62251271  0.62624647  -0.00192048  1
  V  V73  1  0.13851036  0.49930695  0.62351914  1
  V  V74  1  0.12569447  0.00492475  0.12867190  1
  V  V75  1  0.74386857  0.37245121  0.13005913  1
  V  V76  1  0.76314024  0.61048073  0.86730252  1
  V  V77  1  0.12853095  0.87518933  0.24825929  1
  V  V78  1  0.49761728  0.61992847  0.62218310  1
  V  V79  1  0.12543441  0.12703102  0.50098491  1
  V  V80  1  0.87504693  0.75593198  0.62184370  1
  V  V81  1  0.25743705  0.12660429  0.86750275  1
  V  V82  1  0.63741677  0.37447028  0.74953042  1
  V  V83  1  0.00078143  0.13225957  0.12777573  1
  V  V84  1  0.37445340  0.25274368  0.12483107  1
  Zn  Zn85  1  0.26099664  0.37348449  0.63481345  1
  Zn  Zn86  1  0.62365457  0.26485778  0.37454439  1
  Zn  Zn87  1  0.37029571  0.62834001  0.24805816  1
  Zn  Zn88  1  0.25290590  0.12761036  0.37793077  1
  Zn  Zn89  1  0.88096898  0.87421266  0.00228223  1
  Zn  Zn90  1  0.12754257  0.74311025  0.87348306  1
  Zn  Zn91  1  0.37328811  0.74902531  0.62702978  1
  Zn  Zn92  1  0.11206515  0.38513558  0.23208039  1
  Zn  Zn93  1  0.75184014  0.25223945  -0.00580881  1
  Zn  Zn94  1  0.62731692  0.74984408  0.87376159  1
  Zn  Zn95  1  0.74475080  0.49504930  0.25511683  1
  Zn  Zn96  1  0.62393053  0.00137972  0.62786771  1
  Zn  Zn97  1  0.25511065  0.00370667  0.74617058  1
  Zn  Zn98  1  0.25588286  0.74240510  -0.00549293  1
  Zn  Zn99  1  -0.00151613  0.00220493  0.49886703  1
  Zn  Zn100  1  0.88009823  0.37868459  0.50756833  1
  Zn  Zn101  1  0.25348003  0.87318895  0.62475439  1
  Zn  Zn102  1  0.38148131  0.86868321  0.50004258  1
  Zn  Zn103  1  0.32359752  0.83079251  0.08510920  1
  Zn  Zn104  1  0.62393096  0.87344260  0.75243884  1
  Zn  Zn105  1  0.63094365  0.24448938  0.86894724  1
  Zn  Zn106  1  0.87463588  0.38541942  -0.00068790  1
  Zn  Zn107  1  0.16792539  0.22745548  0.16577731  1
  Zn  Zn108  1  0.18824327  0.19013600  0.68669969  1
  Zn  Zn109  1  0.19428753  0.68940568  0.18780453  1
  Zn  Zn110  1  0.18895038  0.68433709  0.68870697  1
  Zn  Zn111  1  0.68629098  0.19208942  0.19035951  1
  Zn  Zn112  1  0.68453701  0.18863973  0.68882713  1
  Zn  Zn113  1  0.68712935  0.68762645  0.18758276  1
  Zn  Zn114  1  0.68824495  0.68827407  0.69037224  1
  Zn  Zn115  1  0.31248769  0.31290309  0.31905816  1
  Zn  Zn116  1  0.31520844  0.31574533  0.81784747  1
  Zn  Zn117  1  0.31074467  0.81379016  0.31554252  1
  Zn  Zn118  1  0.31455578  0.80654074  0.82024462  1
  Zn  Zn119  1  0.81432534  0.31151113  0.31161150  1
  Zn  Zn120  1  0.81067363  0.31215544  0.81909984  1
  Zn  Zn121  1  0.80840146  0.80977283  0.31164551  1
  Zn  Zn122  1  0.81572303  0.81119633  0.81259666  1
  Zn  Zn123  1  0.18752092  0.43496614  0.43755964  1
  Zn  Zn124  1  0.18208741  0.43959832  0.93856230  1
  Zn  Zn125  1  0.18845675  0.93835769  0.43505291  1
  Zn  Zn126  1  0.19467488  0.93867046  0.93452034  1
  Zn  Zn127  1  0.71135639  0.45056907  0.45363194  1
  Zn  Zn128  1  0.68630796  0.43495661  0.94045045  1
  Zn  Zn129  1  0.68757779  0.94036312  0.43803482  1
  Zn  Zn130  1  0.68389110  0.93619407  0.93948350  1
  Zn  Zn131  1  0.33105249  0.02839131  0.07963501  1
  Zn  Zn132  1  0.31054296  0.05911983  0.56064176  1
  Zn  Zn133  1  0.30936421  0.56349265  0.05944621  1
  Zn  Zn134  1  0.31383739  0.56252132  0.56122216  1
  Zn  Zn135  1  0.81312218  0.05947568  0.06409804  1
  Zn  Zn136  1  0.80997101  0.06379659  0.56275428  1
  Zn  Zn137  1  0.79137658  0.56225694  0.06323878  1
  Zn  Zn138  1  0.81316521  0.55980107  0.57429164  1
  Zn  Zn139  1  0.42997827  0.44131206  0.18460830  1
  Zn  Zn140  1  0.44547265  0.43618964  0.68493274  1
  Zn  Zn141  1  0.44546342  0.93811381  0.19394632  1
  Zn  Zn142  1  0.43744418  0.93355482  0.68457190  1
  Zn  Zn143  1  0.92993444  0.42745009  0.20073426  1
  Zn  Zn144  1  0.94449681  0.43278453  0.68412179  1
  Zn  Zn145  1  0.93868652  0.94058161  0.18888903  1
  Zn  Zn146  1  0.93911938  0.93704614  0.68856017  1
  Zn  Zn147  1  0.05949254  0.06587102  0.31389006  1
  Zn  Zn148  1  0.06196217  0.06162993  0.81145843  1
  Zn  Zn149  1  0.06257894  0.55839821  0.31086908  1
  Zn  Zn150  1  0.06158142  0.56229786  0.80317597  1
  Zn  Zn151  1  0.56193799  0.06493374  0.31474194  1
  Zn  Zn152  1  0.56065209  0.06248987  0.81134305  1
  Zn  Zn153  1  0.56177435  0.57352949  0.30890800  1
  Zn  Zn154  1  0.56509018  0.56175229  0.81435568  1
  Zn  Zn155  1  0.43861703  0.18840847  0.43856881  1
  Zn  Zn156  1  0.44058572  0.18638183  0.93680749  1
  Zn  Zn157  1  0.43835878  0.68362705  0.43648654  1
  Zn  Zn158  1  0.42735505  0.69262266  0.93882844  1
  Zn  Zn159  1  0.93873228  0.18966493  0.43878754  1
  Zn  Zn160  1  0.93546609  0.18779292  0.93878852  1
  Zn  Zn161  1  0.93819906  0.68886513  0.44400928  1
  Zn  Zn162  1  0.94006447  0.68868847  0.93431542  1
  Zn  Zn163  1  0.05773804  0.32041002  0.05771463  1
  Zn  Zn164  1  0.06284291  0.31503405  0.56277299  1
  Zn  Zn165  1  0.11650712  0.82297919  0.04890259  1
  Zn  Zn166  1  0.06256060  0.81461661  0.55871906  1
  Zn  Zn167  1  0.56107701  0.31193968  0.06448982  1
  Zn  Zn168  1  0.56520669  0.30535374  0.57194930  1
  Zn  Zn169  1  0.56059903  0.81306351  0.06351987  1
  Zn  Zn170  1  0.56413142  0.80969872  0.56741723  1
  O  O171  1  0.11727135  0.12812529  0.11723910  1
  O  O172  1  0.12088099  0.11956347  0.61790837  1
  O  O173  1  0.12794082  0.62007622  0.11868123  1
  O  O174  1  0.12781835  0.61471176  0.61836477  1
  O  O175  1  0.61937960  0.11934001  0.12422105  1
  O  O176  1  0.62170080  0.12396844  0.61299521  1
  O  O177  1  0.61862437  0.61956675  0.11452168  1
  O  O178  1  0.62044630  0.62052069  0.62016592  1
  O  O179  1  0.37497372  0.38718686  0.38471595  1
  O  O180  1  0.38989930  0.37110766  0.88514452  1
  O  O181  1  0.37267996  0.88879398  0.37896298  1
  O  O182  1  0.38752126  0.88440422  0.87184752  1
  O  O183  1  0.88370938  0.38123773  0.37647686  1
  O  O184  1  0.88737714  0.37748869  0.87444263  1
  O  O185  1  0.87284529  0.88364366  0.37722982  1
  O  O186  1  0.88858422  0.88081390  0.87681771  1
  O  O187  1  0.25677975  0.00518888  0.36698769  1
  O  O188  1  0.26106209  0.00819154  0.87318091  1
  O  O189  1  0.25660096  0.50551446  0.37185238  1
  O  O190  1  0.25083559  0.50981242  0.87484278  1
  O  O191  1  0.76110989  0.01080373  0.37967372  1
  O  O192  1  0.76341428  -0.00946585  0.87092086  1
  O  O193  1  0.75690948  0.51418109  0.37136088  1
  O  O194  1  0.74962902  0.51146530  0.88238266  1
  O  O195  1  0.25642663  0.50173281  0.14129230  1
  O  O196  1  0.24376614  0.49457385  0.62299939  1
  O  O197  1  0.23783834  1.01441473  0.14469529  1
  O  O198  1  0.23838069  0.99738058  0.62694023  1
  O  O199  1  0.73618861  0.49298405  0.13149289  1
  O  O200  1  0.72761501  0.49585062  0.61036241  1
  O  O201  1  0.74029777  0.99044891  0.12266043  1
  O  O202  1  0.75118270  0.99085466  0.63496346  1
  O  O203  1  0.00188573  0.37179333  0.26910790  1
  O  O204  1  0.00583819  0.36826188  0.75889071  1
  O  O205  1  0.00316209  0.86934042  0.25745499  1
  O  O206  1  0.00945860  0.87019796  0.75511276  1
  O  O207  1  0.49279752  0.36262559  0.24552641  1
  O  O208  1  0.50252440  0.36427494  0.75711106  1
  O  O209  1  0.51440639  0.86746867  0.24816399  1
  O  O210  1  0.50122922  0.86576435  0.75682853  1
  O  O211  1  0.49269907  0.13154863  0.24457311  1
  O  O212  1  0.50667305  0.13742388  0.74229013  1
  O  O213  1  0.49588456  0.63525517  0.23911396  1
  O  O214  1  0.49151090  0.62807670  0.74793787  1
  O  O215  1  0.99067807  0.12238009  0.23985528  1
  O  O216  1  0.99088317  0.13120666  0.74668476  1
  O  O217  1  0.98717093  0.63147405  0.25839707  1
  O  O218  1  1.00284561  0.63411383  0.73127918  1
  O  O219  1  0.37223275  0.25668717  0.00514258  1
  O  O220  1  0.36725694  0.26082844  0.49240231  1
  O  O221  1  0.37100031  0.76002429  0.00380101  1
  O  O222  1  0.36575358  0.74866067  0.49860703  1
  O  O223  1  0.87154175  0.24683236  0.01335196  1
  O  O224  1  0.86698473  0.24453103  0.51086916  1
  O  O225  1  0.87069849  0.75179367  0.00807538  1
  O  O226  1  0.87814458  0.77121144  0.50004178  1
  O  O227  1  0.13107071  0.24247208  0.49645919  1
  O  O228  1  0.13251841  0.24592458  0.99160993  1
  O  O229  1  0.12888793  0.74087638  0.49441039  1
  O  O230  1  0.11840582  0.72377184  0.99108519  1
  O  O231  1  0.63117793  0.24498758  0.49764669  1
  O  O232  1  0.62258395  0.23357170  1.00385310  1
  O  O233  1  0.62320006  0.74407934  0.49180115  1
  O  O234  1  0.63323417  0.74311856  1.00113254  1
  O  O235  1  0.49237123  0.24324142  0.13343540  1
  O  O236  1  0.49832280  0.24135542  0.63856542  1
  O  O237  1  0.50597617  0.74243207  0.13481708  1
  O  O238  1  0.49943611  0.73755897  0.63342684  1
  O  O239  1  0.98951140  0.23788467  0.11816171  1
  O  O240  1  0.99532498  0.24547641  0.63735714  1
  O  O241  1  0.98822135  0.75377585  0.13153377  1
  O  O242  1  0.99148458  0.75892666  0.63037246  1
  O  O243  1  0.00846780  0.25896102  0.38019029  1
  O  O244  1  0.00165495  0.25153366  0.86435506  1
  O  O245  1  0.00475703  0.75603466  0.37082370  1
  O  O246  1  0.00173163  0.75690660  0.86373717  1
  O  O247  1  0.50141041  0.25040402  0.36162811  1
  O  O248  1  0.50636527  0.25424532  0.86521004  1
  O  O249  1  0.51380398  0.74282401  0.36658201  1
  O  O250  1  0.50048700  0.75645153  0.87023644  1
  O  O251  1  0.24256005  0.13108732  0.49955117  1
  O  O252  1  0.23867525  0.13320871  0.98887922  1
  O  O253  1  0.24398973  0.63332749  0.49090201  1
  O  O254  1  0.23894674  0.61936946  0.98839778  1
  O  O255  1  0.74344812  0.13271799  0.49136708  1
  O  O256  1  0.73400070  0.12205527  1.00795460  1
  O  O257  1  0.73448474  0.61788317  0.49374034  1
  O  O258  1  0.74059378  0.63396281  0.99314043  1
  O  O259  1  0.25722373  0.36436028  -0.00972133  1
  O  O260  1  0.25937836  0.36770340  0.50208568  1
  O  O261  1  0.22111378  0.86165236  0.00795043  1
  O  O262  1  0.24593390  0.85914932  0.49681544  1
  O  O263  1  0.75550795  0.37676984  0.01350886  1
  O  O264  1  0.75811748  0.35927195  0.49903967  1
  O  O265  1  0.75075226  0.86816723  0.01133407  1
  O  O266  1  0.75681509  0.88213725  0.51059312  1
  O  O267  1  0.14108113  0.49659547  0.25515111  1
  O  O268  1  0.12373839  0.48876818  0.73954456  1
  O  O269  1  0.13277829  0.99646104  0.25246660  1
  O  O270  1  0.12604380  0.99239598  0.74166341  1
  O  O271  1  0.62202510  0.50688790  0.23738031  1
  O  O272  1  0.61919714  0.48578064  0.74563711  1
  O  O273  1  0.62031770  0.99192011  0.24318969  1
  O  O274  1  0.63939947  1.00175098  0.75158446  1
  O  O275  1  0.37221568  0.00669377  0.26005735  1
  O  O276  1  0.37624809  0.00003688  0.75985701  1
  O  O277  1  0.36516973  0.50286310  0.25870231  1
  O  O278  1  0.38254795  0.51058621  0.74931294  1
  O  O279  1  0.87379248  0.01292815  0.25617141  1
  O  O280  1  0.86744171  0.00511775  0.75641632  1
  O  O281  1  0.87205298  0.50777975  0.26381579  1
  O  O282  1  0.88961170  0.53093146  0.66891888  1
  O  O283  1  0.11615004  0.36667335  0.37611178  1
  O  O284  1  0.11403996  0.37056390  0.86854084  1
  O  O285  1  0.11783422  0.87238243  0.36594511  1
  O  O286  1  0.11525071  0.87669470  0.86457942  1
  O  O287  1  0.61904970  0.38895127  0.39023847  1
  O  O288  1  0.61510297  0.37493605  0.86640965  1
  O  O289  1  0.63521140  0.86709882  0.36589088  1
  O  O290  1  0.61243035  0.87312064  0.87317868  1
  O  O291  1  0.38874019  0.12508921  0.13240633  1
  O  O292  1  0.38398862  0.12142421  0.62308673  1
  O  O293  1  0.38578536  0.62158404  0.12557132  1
  O  O294  1  0.38201028  0.62471337  0.63474610  1
  O  O295  1  0.87982707  0.12718513  0.13136811  1
  O  O296  1  0.87970051  0.13082799  0.63396121  1
  O  O297  1  0.88143742  0.62427784  0.12970749  1
  O  O298  1  0.87825480  0.65343095  0.59549973  1
  O  O299  1  0.26912251  0.23393246  0.11113005  1
  O  O300  1  0.24788139  0.25270459  0.61272291  1
  O  O301  1  0.24766146  0.75125437  0.11509155  1
  O  O302  1  0.25046683  0.74902382  0.61497866  1
  O  O303  1  0.75386434  0.25592174  0.12170649  1
  O  O304  1  0.75785706  0.24131201  0.61678607  1
  O  O305  1  0.75851064  0.75301654  0.11585475  1
  O  O306  1  0.75753690  0.76442167  0.63272904  1
  O  O307  1  0.24238312  0.24856160  0.38793208  1
  O  O308  1  0.24692484  0.24403765  0.88199590  1
  O  O309  1  0.24261227  0.74085342  0.37866438  1
  O  O310  1  0.24699142  0.73258018  0.87449615  1
  O  O311  1  0.74545343  0.24495023  0.38139025  1
  O  O312  1  0.74345636  0.25039753  0.88126436  1
  O  O313  1  0.74017796  0.73777334  0.37171415  1
  O  O314  1  0.75084942  0.75066809  0.88828781  1
  O  O315  1  0.01060245  0.12071664  0.00365733  1
  O  O316  1  0.00711645  0.12397895  0.50875697  1
  O  O317  1  0.00552652  0.61987522  0.00630911  1
  O  O318  1  0.00873276  0.62695655  0.51489647  1
  O  O319  1  0.50891675  0.12074764  0.01142976  1
  O  O320  1  0.50659296  0.12173774  0.50874074  1
  O  O321  1  0.50353117  0.62001773  0.00300950  1
  O  O322  1  0.51206818  0.62907465  0.50912582  1
  O  O323  1  0.49757785  0.37347837  0.50001869  1
  O  O324  1  0.49529137  0.38056638  0.99417419  1
  O  O325  1  0.50398314  0.88821169  0.50553887  1
  O  O326  1  0.50760369  0.88632922  0.99329994  1
  O  O327  1  0.99625215  0.37054733  0.48691099  1
  O  O328  1  0.99514734  0.37465157  0.98171305  1
  O  O329  1  0.99296189  0.88104700  0.49036169  1
  O  O330  1  1.00855421  0.88157381  0.99070669  1
  O  O331  1  0.49512347  0.50223950  0.37506002  1
  O  O332  1  0.50472662  0.49247802  0.88826643  1
  O  O333  1  0.49286912  1.00594706  0.38674137  1
  O  O334  1  0.49643353  0.99400093  0.87981775  1
  O  O335  1  0.99377822  0.48892551  0.37551099  1
  O  O336  1  0.99687644  0.49100857  0.86598428  1
  O  O337  1  0.98532802  0.99658897  0.37468147  1
  O  O338  1  0.99193991  0.99334704  0.87756944  1
  O  O339  1  0.00469231  0.01186118  0.11987976  1
  O  O340  1  0.01038692  0.00553080  0.62510732  1
  O  O341  1  0.00057123  0.49751316  0.13486957  1
  O  O342  1  0.02193605  0.49773187  0.61871284  1
  O  O343  1  0.51380812  0.00809040  0.11969363  1
  O  O344  1  0.50268407  0.00839401  0.61940787  1
  O  O345  1  0.50251520  0.50739707  0.11580335  1
  O  O346  1  0.50999923  0.51354783  0.62734682  1
  O  O347  1  0.25128682  0.38668918  0.25432804  1
  O  O348  1  0.23735572  0.36588581  0.75233010  1
  O  O349  1  0.24083879  0.88499527  0.25544366  1
  O  O350  1  0.23843901  0.87422911  0.75209698  1
  O  O351  1  0.75349537  0.37618694  0.23716756  1
  O  O352  1  0.73608272  0.37310599  0.75199389  1
  O  O353  1  0.74028928  0.86680139  0.23663366  1
  O  O354  1  0.75010932  0.88250357  0.74507083  1
  O  O355  1  0.26748248  0.12094392  0.25460081  1
  O  O356  1  0.24237762  0.12474357  0.76368411  1
  O  O357  1  0.24969943  0.61841432  0.26330758  1
  O  O358  1  0.26441848  0.62359179  0.75650441  1
  O  O359  1  0.75348923  0.12974986  0.26361173  1
  O  O360  1  0.76035708  0.11740108  0.74641097  1
  O  O361  1  0.76191077  0.62540176  0.25637020  1
  O  O362  1  0.74451243  0.62798621  0.76907085  1
  O  O363  1  0.37655753  0.11640142  0.36977576  1
  O  O364  1  0.36735215  0.11986620  0.87627044  1
  O  O365  1  0.36605237  0.61413205  0.37499484  1
  O  O366  1  0.36794141  0.62201406  0.86370271  1
  O  O367  1  0.86986168  0.12215830  0.36864861  1
  O  O368  1  0.88060357  0.11379391  0.86656975  1
  O  O369  1  0.87010804  0.62271921  0.37339531  1
  O  O370  1  0.86224294  0.62622941  0.87905639  1
  O  O371  1  0.13303191  0.33362893  0.13582523  1
  O  O372  1  0.12880540  0.37930990  0.63360778  1
  O  O373  1  0.11305339  0.88866134  0.14323641  1
  O  O374  1  0.12631409  0.88308721  0.63022994  1
  O  O375  1  0.62963703  0.38437035  0.12063835  1
  O  O376  1  0.61592587  0.38161670  0.64121952  1
  O  O377  1  0.63189918  0.88239818  0.13164141  1
  O  O378  1  0.63331634  0.87862268  0.63034213  1
  O  O379  1  0.12968139  0.23333103  0.27240189  1
  O  O380  1  0.11534070  0.25512348  0.75411921  1
  O  O381  1  0.12125906  0.75730742  0.25606999  1
  O  O382  1  0.11532301  0.75761497  0.74708770  1
  O  O383  1  0.60903545  0.25133050  0.25321866  1
  O  O384  1  0.61724197  0.26145254  0.74897860  1
  O  O385  1  0.61830158  0.75593893  0.25669214  1
  O  O386  1  0.61087971  0.74809227  0.75373463  1
  O  O387  1  0.38110410  0.24513011  0.24521171  1
  O  O388  1  0.38870177  0.25162830  0.75440751  1
  O  O389  1  0.38879882  0.75168082  0.25800423  1
  O  O390  1  0.38636470  0.74061584  0.75035182  1
  O  O391  1  0.86994412  0.23653319  0.23829559  1
  O  O392  1  0.87844517  0.24249812  0.74717242  1
  O  O393  1  0.87690791  0.74163603  0.24275655  1
  O  O394  1  0.88795782  0.75818198  0.73776327  1
  O  O395  1  0.37445553  0.49307161  0.49041626  1
  O  O396  1  0.38143289  0.48868398  1.00564047  1
  O  O397  1  0.38380276  0.99876808  0.49385394  1
  O  O398  1  0.39291761  1.01270328  0.98390626  1
  O  O399  1  0.86626978  0.49815857  0.48804123  1
  O  O400  1  0.88524556  0.50687879  1.02017281  1
  O  O401  1  0.87589372  0.99400031  0.49262262  1
  O  O402  1  0.88247134  0.99735896  0.99348257  1
  O  O403  1  0.12278191  0.01082900  0.00520768  1
  O  O404  1  0.12426548  0.00742833  0.50669394  1
  O  O405  1  0.12048574  0.51555055  -0.00289306  1
  O  O406  1  0.13371488  0.51125683  0.50545054  1
  O  O407  1  0.61813928  0.00962258  0.00790220  1
  O  O408  1  0.61839134  0.00943132  0.50117491  1
  O  O409  1  0.61627263  0.50698788  0.00933127  1
  O  O410  1  0.61251419  0.50173086  0.50083200  1
  O  O411  1  0.37875277  0.36384082  0.11396396  1
  O  O412  1  0.37786436  0.38112631  0.61111981  1
  O  O413  1  0.37077394  0.92360273  0.11502148  1
  O  O414  1  0.37090349  0.86912017  0.61889837  1
  O  O415  1  0.86903537  0.36506118  0.12452907  1
  O  O416  1  0.87996006  0.35712499  0.62626964  1
  O  O417  1  0.86866516  0.86793461  0.12601844  1
  O  O418  1  0.87015033  0.87343728  0.61633816  1
  O  O419  1  0.12294919  0.12764165  0.39037015  1
  O  O420  1  0.12832669  0.13075106  0.88071702  1
  O  O421  1  0.12883530  0.62722547  0.38371718  1
  O  O422  1  0.13865991  0.62165283  0.86262094  1
  O  O423  1  0.63136752  0.12707102  0.38545151  1
  O  O424  1  0.62015462  0.12213644  0.89160481  1
  O  O425  1  0.63124803  0.63166161  0.38229426  1
  O  O426  1  0.62836975  0.62649428  0.88855845  1
