# generated using pymatgen
data_V85Zn86O256
_symmetry_space_group_name_H-M   'P 1'
_cell_length_a   16.95459202
_cell_length_b   16.92858048
_cell_length_c   16.93857234
_cell_angle_alpha   89.98239921
_cell_angle_beta   90.03934979
_cell_angle_gamma   89.99186043
_symmetry_Int_Tables_number   1
_chemical_formula_structural   V85Zn86O256
_chemical_formula_sum   'V85 Zn86 O256'
_cell_volume   4861.65976510
_cell_formula_units_Z   1
loop_
 _symmetry_equiv_pos_site_id
 _symmetry_equiv_pos_as_xyz
  1  'x, y, z'
loop_
 _atom_site_type_symbol
 _atom_site_label
 _atom_site_symmetry_multiplicity
 _atom_site_fract_x
 _atom_site_fract_y
 _atom_site_fract_z
 _atom_site_occupancy
  V  V0  1  0.62494426  0.50096165  0.12407670  1
  V  V1  1  0.74523329  0.61837315  0.87270858  1
  V  V2  1  0.24950184  0.12070010  0.88277906  1
  V  V3  1  0.61541426  0.01016172  0.61622254  1
  V  V4  1  0.88308962  0.86720871  0.00446315  1
  V  V5  1  0.74557284  0.74314090  0.49551225  1
  V  V6  1  0.00909828  0.49329874  0.49329069  1
  V  V7  1  0.25146953  0.24764667  0.50173400  1
  V  V8  1  0.00145258  -0.00113899  0.50164698  1
  V  V9  1  0.62844037  0.73184885  0.37608526  1
  V  V10  1  0.74915773  0.37839200  0.12338215  1
  V  V11  1  0.75270558  0.00294935  0.74961577  1
  V  V12  1  -0.00080712  0.37482849  0.87481081  1
  V  V13  1  0.25142540  0.75353308  -0.00108458  1
  V  V14  1  0.50466815  0.50567977  0.50155657  1
  V  V15  1  0.48737877  0.36279868  0.87475534  1
  V  V16  1  0.12370306  0.62643326  0.00098648  1
  V  V17  1  -0.01292120  0.62757426  0.12328946  1
  V  V18  1  0.61645157  0.12897956  0.48557352  1
  V  V19  1  0.12702338  0.11867583  0.50441101  1
  V  V20  1  -0.00984306  0.75062331  0.24685469  1
  V  V21  1  0.00496069  0.00050264  -0.00404035  1
  V  V22  1  0.37874777  0.87732646  0.50999621  1
  V  V23  1  0.49429358  0.63193064  0.62277362  1
  V  V24  1  0.83966923  0.41156681  0.48582813  1
  V  V25  1  0.40378400  0.02217399  0.83896316  1
  V  V26  1  0.49808998  0.12847030  0.12664326  1
  V  V27  1  0.23732600  0.00621236  0.74783246  1
  V  V28  1  0.50080194  0.87914254  0.37892883  1
  V  V29  1  0.63912362  0.25104861  0.87370126  1
  V  V30  1  0.12532385  0.75229452  0.37219665  1
  V  V31  1  0.12494022  0.37606710  0.75126611  1
  V  V32  1  0.75302605  0.23846982  0.48512401  1
  V  V33  1  0.74948285  0.74981131  0.00462427  1
  V  V34  1  0.12593391  0.88009850  0.24946483  1
  V  V35  1  -0.00173344  0.62433203  0.62420744  1
  V  V36  1  0.12828545  0.62787970  0.49951347  1
  V  V37  1  0.86881659  0.60915963  0.26611854  1
  V  V38  1  0.23856344  0.88110108  0.62501120  1
  V  V39  1  0.50198913  0.25329792  0.25721797  1
  V  V40  1  0.87955024  -0.00784244  0.87371480  1
  V  V41  1  0.25336753  0.37325060  0.62527862  1
  V  V42  1  0.00001825  0.25072971  0.74836420  1
  V  V43  1  0.37486137  0.50250204  0.88485630  1
  V  V44  1  0.50213567  0.87610824  0.87729789  1
  V  V45  1  0.12779325  0.00776323  0.12532831  1
  V  V46  1  0.38900259  0.23478528  0.63536509  1
  V  V47  1  0.86798097  0.36950715  -0.00150024  1
  V  V48  1  0.86734223  0.24252395  0.12157124  1
  V  V49  1  0.86816206  0.61711016  0.74802820  1
  V  V50  1  -0.00294928  0.12456645  0.12477737  1
  V  V51  1  0.11965073  0.76049574  0.87537574  1
  V  V52  1  0.63559237  0.37349389  0.25589204  1
  V  V53  1  0.24997522  0.49299533  0.24205398  1
  V  V54  1  0.48763478  0.75680752  0.74565867  1
  V  V55  1  0.49784918  0.00094552  0.00741207  1
  V  V56  1  0.74975812  0.87709137  0.62141849  1
  V  V57  1  -0.00321350  0.75329126  0.75201510  1
  V  V58  1  0.25039770  0.26358330  0.00465318  1
  V  V59  1  0.37718572  0.00155961  0.37843344  1
  V  V60  1  0.74542339  0.37007659  0.63519981  1
  V  V61  1  -0.00651371  0.24605203  0.25214750  1
  V  V62  1  0.00238790  0.12198780  0.62694036  1
  V  V63  1  0.62486167  0.87507354  0.74868424  1
  V  V64  1  0.62923730  0.00115548  0.12644765  1
  V  V65  1  0.37084120  0.12220431  0.24814453  1
  V  V66  1  0.37607289  0.49848258  0.37559585  1
  V  V67  1  0.87373902  0.87532929  0.49507701  1
  V  V68  1  0.25414896  0.50344199  0.75180059  1
  V  V69  1  0.25028469  0.62597682  0.37329272  1
  V  V70  1  0.38008550  0.37289751  0.50220716  1
  V  V71  1  0.37258981  0.26469140  0.12355988  1
  V  V72  1  0.25178617  0.88146219  0.13000354  1
  V  V73  1  0.37609498  0.88081513  -0.00012117  1
  V  V74  1  0.24764291  0.11954744  0.37164944  1
  V  V75  1  0.63055445  0.87421700  0.25307290  1
  V  V76  1  0.12995543  0.50180599  0.62735547  1
  V  V77  1  0.12500387  0.24385689  0.88177574  1
  V  V78  1  0.37392480  0.62607945  0.24797231  1
  V  V79  1  -0.00324266  0.49864399  -0.00142342  1
  V  V80  1  0.50106780  0.74855788  0.24965408  1
  V  V81  1  0.12482458  0.37221701  0.24517112  1
  V  V82  1  0.75859579  0.01152466  0.25476220  1
  V  V83  1  0.62953610  0.50864239  0.63405373  1
  V  V84  1  0.25667236  0.75160964  0.50560356  1
  Zn  Zn85  1  0.87557545  0.12541832  0.75135597  1
  Zn  Zn86  1  0.25029154  0.63026454  0.87305693  1
  Zn  Zn87  1  0.75706012  0.87029131  0.12901147  1
  Zn  Zn88  1  0.50122292  0.62464712  0.12176353  1
  Zn  Zn89  1  0.62948013  0.13360578  0.00208854  1
  Zn  Zn90  1  0.37730626  0.75249813  0.12321485  1
  Zn  Zn91  1  0.61620530  0.37199006  0.74976420  1
  Zn  Zn92  1  -0.00084337  0.87771660  0.37295625  1
  Zn  Zn93  1  0.49807931  0.50040698  -0.00054947  1
  Zn  Zn94  1  -0.00333053  0.37483572  0.37319849  1
  Zn  Zn95  1  0.62514069  0.74953559  0.87480884  1
  Zn  Zn96  1  0.86763966  0.49553047  0.86870618  1
  Zn  Zn97  1  0.87338467  0.25268716  0.62138313  1
  Zn  Zn98  1  0.62149598  0.62601473  -0.00130278  1
  Zn  Zn99  1  0.37137576  0.63331109  0.74903308  1
  Zn  Zn100  1  0.87421030  0.01232642  0.37567780  1
  Zn  Zn101  1  0.12737357  0.49566727  0.12126409  1
  Zn  Zn102  1  0.50588714  0.37224448  0.37770606  1
  Zn  Zn103  1  0.12316623  0.25054016  0.37478257  1
  Zn  Zn104  1  0.75666205  0.12458872  0.88764017  1
  Zn  Zn105  1  0.87131940  0.74800789  0.62351416  1
  Zn  Zn106  1  0.11587590  0.87923956  0.74892742  1
  Zn  Zn107  1  0.18623742  0.18979076  0.18626013  1
  Zn  Zn108  1  0.18948937  0.18547820  0.68902967  1
  Zn  Zn109  1  0.18456079  0.68966355  0.18372757  1
  Zn  Zn110  1  0.18734329  0.69233430  0.68701242  1
  Zn  Zn111  1  0.68384549  0.19175813  0.18205808  1
  Zn  Zn112  1  0.68425853  0.18872440  0.69125731  1
  Zn  Zn113  1  0.69364558  0.68383570  0.18852611  1
  Zn  Zn114  1  0.68517309  0.68978482  0.68629802  1
  Zn  Zn115  1  0.31305800  0.31033189  0.31381502  1
  Zn  Zn116  1  0.31304829  0.31156232  0.81297420  1
  Zn  Zn117  1  0.31272935  0.81418364  0.31403441  1
  Zn  Zn118  1  0.31156464  0.82831963  0.81502248  1
  Zn  Zn119  1  0.81463718  0.18854184  0.30957327  1
  Zn  Zn120  1  0.81384106  0.31271356  0.80993831  1
  Zn  Zn121  1  0.81193945  0.81135686  0.31460214  1
  Zn  Zn122  1  0.81289854  0.80915372  0.81554316  1
  Zn  Zn123  1  0.18823754  0.43436273  0.43086088  1
  Zn  Zn124  1  0.18659084  0.43855865  0.93537607  1
  Zn  Zn125  1  0.18931542  0.93946226  0.43641036  1
  Zn  Zn126  1  0.18683950  0.93954693  0.93818635  1
  Zn  Zn127  1  0.67802206  0.43476961  0.44431408  1
  Zn  Zn128  1  0.68276922  0.43560173  0.93677614  1
  Zn  Zn129  1  0.68704038  0.94046312  0.43602397  1
  Zn  Zn130  1  0.69136756  0.93869565  0.93961807  1
  Zn  Zn131  1  0.31039535  0.06825274  0.06182915  1
  Zn  Zn132  1  0.31455705  0.05941462  0.56467417  1
  Zn  Zn133  1  0.31131952  0.56664425  0.06397282  1
  Zn  Zn134  1  0.31778862  0.56374517  0.56424629  1
  Zn  Zn135  1  0.81371686  0.05753774  0.06260325  1
  Zn  Zn136  1  0.81476623  0.06551998  0.56180930  1
  Zn  Zn137  1  0.80975010  0.55954422  0.06032019  1
  Zn  Zn138  1  0.80927298  0.56210522  0.55586114  1
  Zn  Zn139  1  0.44264784  0.43834183  0.18825131  1
  Zn  Zn140  1  0.43877892  0.43687559  0.69010244  1
  Zn  Zn141  1  0.43711650  0.93860984  0.19228604  1
  Zn  Zn142  1  0.43975247  0.95493757  0.68714625  1
  Zn  Zn143  1  0.93766610  0.43520276  0.18546460  1
  Zn  Zn144  1  0.93376463  0.43729505  0.67724596  1
  Zn  Zn145  1  0.93873641  0.93772134  0.18515178  1
  Zn  Zn146  1  0.93648447  0.93725986  0.68143003  1
  Zn  Zn147  1  0.05901428  0.06372125  0.31360788  1
  Zn  Zn148  1  0.06262442  0.06403551  0.81527637  1
  Zn  Zn149  1  0.06240867  0.56365620  0.30870820  1
  Zn  Zn150  1  0.06274105  0.56761979  0.81456822  1
  Zn  Zn151  1  0.56124519  0.06208029  0.31102039  1
  Zn  Zn152  1  0.57269809  0.06598089  0.81018552  1
  Zn  Zn153  1  0.56225434  0.55555761  0.30764607  1
  Zn  Zn154  1  0.55670930  0.56518590  0.81132162  1
  Zn  Zn155  1  0.43781189  0.18646967  0.44064893  1
  Zn  Zn156  1  0.43603911  0.18820028  0.94299217  1
  Zn  Zn157  1  0.43897132  0.68971994  0.43613954  1
  Zn  Zn158  1  0.43855887  0.68703300  0.93511459  1
  Zn  Zn159  1  0.93860358  0.18961461  0.44025858  1
  Zn  Zn160  1  0.93719809  0.18172474  0.93896214  1
  Zn  Zn161  1  0.93826092  0.68902436  0.43686972  1
  Zn  Zn162  1  0.93450089  0.68584494  0.93211262  1
  Zn  Zn163  1  0.06204103  0.31109127  0.06378800  1
  Zn  Zn164  1  0.06847437  0.30844455  0.56519775  1
  Zn  Zn165  1  0.06190244  0.81339028  0.06557501  1
  Zn  Zn166  1  0.06073754  0.80980543  0.56104098  1
  Zn  Zn167  1  0.55931683  0.31593707  0.05601606  1
  Zn  Zn168  1  0.56574749  0.30837956  0.56388189  1
  Zn  Zn169  1  0.56681082  0.81202293  0.06520535  1
  Zn  Zn170  1  0.56483780  0.81305806  0.56103579  1
  O  O171  1  0.12145399  0.11201499  0.12805662  1
  O  O172  1  0.11392553  0.13098087  0.61712376  1
  O  O173  1  0.11634170  0.62459158  0.11225607  1
  O  O174  1  0.11976312  0.62187749  0.61904727  1
  O  O175  1  0.61619607  0.11684513  0.12548855  1
  O  O176  1  0.62457197  0.11201066  0.62679563  1
  O  O177  1  0.62528248  0.61411636  0.12758898  1
  O  O178  1  0.61552741  0.61451936  0.62929892  1
  O  O179  1  0.37489780  0.37910498  0.38818375  1
  O  O180  1  0.38099197  0.38314556  0.87309519  1
  O  O181  1  0.38049477  0.88379706  0.37899074  1
  O  O182  1  0.38598423  0.89681535  0.87936873  1
  O  O183  1  0.88107235  0.37499080  0.40422917  1
  O  O184  1  0.88111580  0.37557583  0.88115145  1
  O  O185  1  0.87682853  0.87854866  0.38613150  1
  O  O186  1  0.87300640  0.88459287  0.88471788  1
  O  O187  1  0.25735392  0.01256690  0.37620008  1
  O  O188  1  0.24718626  0.00916648  0.86955784  1
  O  O189  1  0.25689202  0.50710892  0.36687361  1
  O  O190  1  0.25502565  0.50261665  0.86746016  1
  O  O191  1  0.75050003  -0.00254046  0.35757820  1
  O  O192  1  0.75824005  -0.00258176  0.86443219  1
  O  O193  1  0.77817879  0.48769390  0.44919889  1
  O  O194  1  0.74927428  0.51327245  0.87917837  1
  O  O195  1  0.24792889  0.50563083  0.13853348  1
  O  O196  1  0.24833005  0.49515559  0.63122489  1
  O  O197  1  0.24144373  0.99291809  0.11909864  1
  O  O198  1  0.24771739  0.99377803  0.63273215  1
  O  O199  1  0.74442619  0.48583821  0.12218754  1
  O  O200  1  0.73278723  0.49445643  0.61735246  1
  O  O201  1  0.74349526  0.99478320  0.13720152  1
  O  O202  1  0.74777042  0.99134095  0.62987805  1
  O  O203  1  0.00464526  0.36609844  0.25155260  1
  O  O204  1  0.00372045  0.37018092  0.75204132  1
  O  O205  1  0.00686840  0.86766426  0.24901546  1
  O  O206  1  -0.00108069  0.85804442  0.73753862  1
  O  O207  1  0.50836987  0.36790656  0.25288328  1
  O  O208  1  0.49944208  0.38118673  0.76894238  1
  O  O209  1  0.50513649  0.86798848  0.25990523  1
  O  O210  1  0.50732062  0.87516961  0.75259858  1
  O  O211  1  0.49339295  0.13315322  0.24519876  1
  O  O212  1  0.47127569  0.05606699  0.76174907  1
  O  O213  1  0.49114998  0.63159901  0.24937954  1
  O  O214  1  0.49697157  0.64048873  0.74287824  1
  O  O215  1  1.00665784  0.13155652  0.23581216  1
  O  O216  1  1.00216478  0.13296700  0.74319269  1
  O  O217  1  0.99473906  0.63096692  0.24149022  1
  O  O218  1  0.99454655  0.63188143  0.74188819  1
  O  O219  1  0.36153085  0.24740554  0.00956544  1
  O  O220  1  0.36979245  0.25586552  0.50790593  1
  O  O221  1  0.36669383  0.75932437  -0.00084712  1
  O  O222  1  0.36565466  0.76248879  0.49069781  1
  O  O223  1  0.88339855  0.25911130  0.00801202  1
  O  O224  1  0.85854810  0.24534207  0.50417100  1
  O  O225  1  0.87132910  0.76245187  -0.00750905  1
  O  O226  1  0.86838881  0.75856569  0.50025779  1
  O  O227  1  0.13413592  0.23908185  0.49818372  1
  O  O228  1  0.13596965  0.25370259  0.99379386  1
  O  O229  1  0.13281609  0.74580475  0.49241925  1
  O  O230  1  0.12941700  0.74694187  0.99503999  1
  O  O231  1  0.63540187  0.23599709  0.50465915  1
  O  O232  1  0.61634906  0.24960460  0.97961497  1
  O  O233  1  0.63260457  0.75705881  0.48674626  1
  O  O234  1  0.63449588  0.75075205  0.99595163  1
  O  O235  1  0.49095650  0.24755417  0.12996802  1
  O  O236  1  0.48764400  0.25290005  0.62648476  1
  O  O237  1  0.49981999  0.75109408  0.13962267  1
  O  O238  1  0.50558969  0.74433540  0.63192710  1
  O  O239  1  0.99241587  0.24170858  0.12811137  1
  O  O240  1  0.99837796  0.24565093  0.63258657  1
  O  O241  1  1.00482888  0.74016007  0.13444613  1
  O  O242  1  0.99899268  0.73629444  0.62792656  1
  O  O243  1  0.00241849  0.25223633  0.36529225  1
  O  O244  1  0.00727255  0.25243613  0.87020344  1
  O  O245  1  0.00974586  0.75308642  0.36733490  1
  O  O246  1  0.00713263  0.74429470  0.86404558  1
  O  O247  1  0.49227215  0.25191114  0.36085768  1
  O  O248  1  0.49370632  0.26031607  0.87440232  1
  O  O249  1  0.50773041  0.75550747  0.36523127  1
  O  O250  1  0.50179115  0.76036371  0.86532255  1
  O  O251  1  0.24431216  0.12882408  0.49642144  1
  O  O252  1  0.25013893  0.13330368  0.98755533  1
  O  O253  1  0.24983823  0.63336180  0.49616412  1
  O  O254  1  0.24117526  0.63671185  1.00036771  1
  O  O255  1  0.74080325  0.13408215  0.50579846  1
  O  O256  1  0.74037093  0.11037826  0.99938159  1
  O  O257  1  0.74969601  0.64476110  0.50757728  1
  O  O258  1  0.75033493  0.63295772  0.99184032  1
  O  O259  1  0.24818295  0.36270649  -0.00275920  1
  O  O260  1  0.25596717  0.36655469  0.50334138  1
  O  O261  1  0.25648553  0.87304328  0.00752229  1
  O  O262  1  0.25652536  0.87091543  0.50534300  1
  O  O263  1  0.76139331  0.37681376  0.00443929  1
  O  O264  1  0.74382646  0.35463726  0.50865688  1
  O  O265  1  0.76215033  0.86865688  0.00162349  1
  O  O266  1  0.75600582  0.87339324  0.50476656  1
  O  O267  1  0.13320874  0.49321495  0.24874037  1
  O  O268  1  0.13499103  0.49804883  0.74866131  1
  O  O269  1  0.11859280  0.98744731  0.24261031  1
  O  O270  1  0.13119260  0.99646943  0.75339957  1
  O  O271  1  0.61974835  0.48380639  0.23768690  1
  O  O272  1  0.61890009  0.49812316  0.73598330  1
  O  O273  1  0.63261428  0.99482847  0.24340186  1
  O  O274  1  0.63428020  0.99179366  0.73848408  1
  O  O275  1  0.37780785  0.01423244  0.25927527  1
  O  O276  1  0.34805021  -0.01783985  0.75355456  1
  O  O277  1  0.36944090  0.50618614  0.25440698  1
  O  O278  1  0.36225656  0.50022670  0.75536293  1
  O  O279  1  0.86082904  -0.00510036  0.24930174  1
  O  O280  1  0.87020823  -0.00367972  0.75649173  1
  O  O281  1  0.88226120  0.50987586  0.25111647  1
  O  O282  1  0.88183211  0.51267260  0.74837185  1
  O  O283  1  0.12219080  0.37073423  0.36197846  1
  O  O284  1  0.11870476  0.36574990  0.86977625  1
  O  O285  1  0.12643319  0.87166260  0.36550928  1
  O  O286  1  0.12455661  0.86378328  0.87500514  1
  O  O287  1  0.62532660  0.38067227  0.36053055  1
  O  O288  1  0.61895526  0.36403798  0.87143713  1
  O  O289  1  0.61715853  0.87553534  0.36602982  1
  O  O290  1  0.62006770  0.87846529  0.86482501  1
  O  O291  1  0.37836115  0.13113957  0.13391735  1
  O  O292  1  0.37642599  0.13550781  0.62070763  1
  O  O293  1  0.37485378  0.63065312  0.13762994  1
  O  O294  1  0.38874031  0.62425781  0.63071039  1
  O  O295  1  0.88329403  0.13178714  0.12080413  1
  O  O296  1  0.89008789  0.12647059  0.62853822  1
  O  O297  1  0.88538343  0.62069773  0.12683764  1
  O  O298  1  0.88171742  0.62533519  0.62900375  1
  O  O299  1  0.25478593  0.24551457  0.11150713  1
  O  O300  1  0.25344017  0.25279912  0.61432845  1
  O  O301  1  0.24900154  0.76029045  0.11284579  1
  O  O302  1  0.24823436  0.75854388  0.61199546  1
  O  O303  1  0.76140259  0.25830336  0.12682638  1
  O  O304  1  0.75179323  0.25706960  0.62683849  1
  O  O305  1  0.74730549  0.75133994  0.11002159  1
  O  O306  1  0.74683120  0.76405260  0.61846745  1
  O  O307  1  0.25288949  0.23923474  0.38791356  1
  O  O308  1  0.24493452  0.24579404  0.88455652  1
  O  O309  1  0.24468854  0.74649920  0.38310689  1
  O  O310  1  0.24411125  0.75561395  0.88565835  1
  O  O311  1  0.74966783  0.24796100  0.38669524  1
  O  O312  1  0.74303070  0.24754814  0.87377664  1
  O  O313  1  0.73852115  0.75549309  0.38239213  1
  O  O314  1  0.74870488  0.74100580  0.88461113  1
  O  O315  1  -0.00033113  0.11394002  0.01192112  1
  O  O316  1  0.00865949  0.12001583  0.50709587  1
  O  O317  1  0.00295044  0.61976164  0.00371949  1
  O  O318  1  0.00818030  0.61882474  0.50662240  1
  O  O319  1  0.50358501  0.11661431  0.00863976  1
  O  O320  1  0.51672143  0.12877100  0.49859213  1
  O  O321  1  0.50257608  0.62327961  0.00370114  1
  O  O322  1  0.49242356  0.61803951  0.50791689  1
  O  O323  1  0.49408917  0.38006794  0.49894213  1
  O  O324  1  0.50104225  0.38159555  0.98018969  1
  O  O325  1  0.49273265  0.86799146  0.48683153  1
  O  O326  1  0.49477876  0.87974861  0.99935285  1
  O  O327  1  1.01682733  0.38955737  0.50115039  1
  O  O328  1  0.99399551  0.38172360  0.99552226  1
  O  O329  1  0.99292681  0.88186231  0.50063775  1
  O  O330  1  0.98965625  0.87966268  1.00269755  1
  O  O331  1  0.49304623  0.49848911  0.38366204  1
  O  O332  1  0.48771257  0.49745058  0.87547296  1
  O  O333  1  0.49107518  0.99051845  0.36996664  1
  O  O334  1  0.50505574  0.99592606  0.89274224  1
  O  O335  1  1.00889316  0.49950722  0.39071295  1
  O  O336  1  1.00034294  0.49550390  0.88492880  1
  O  O337  1  0.99968049  0.99788323  0.38833159  1
  O  O338  1  0.99473721  1.00242297  0.88485297  1
  O  O339  1  0.00630514  0.00603766  0.11975759  1
  O  O340  1  -0.00039859  0.00738315  0.61277715  1
  O  O341  1  0.00272789  0.50603911  0.11194770  1
  O  O342  1  0.01290581  0.50910001  0.62247621  1
  O  O343  1  0.50798514  0.00529821  0.12587374  1
  O  O344  1  0.51840623  -0.00800861  0.61302640  1
  O  O345  1  0.50884993  0.50153863  0.12104311  1
  O  O346  1  0.50545115  0.50834628  0.62090918  1
  O  O347  1  0.24261169  0.38303020  0.25643207  1
  O  O348  1  0.24374826  0.38256744  0.74590795  1
  O  O349  1  0.24275136  0.86974825  0.23800196  1
  O  O350  1  0.23904801  0.87828130  0.73989976  1
  O  O351  1  0.73537166  0.36996096  0.24024777  1
  O  O352  1  0.75021630  0.37630837  0.73800725  1
  O  O353  1  0.74327892  0.87992793  0.24859057  1
  O  O354  1  0.74510236  0.88084100  0.74263154  1
  O  O355  1  0.25838384  0.13365020  0.25991356  1
  O  O356  1  0.24462507  0.11732677  0.76291446  1
  O  O357  1  0.25528550  0.62214272  0.25366994  1
  O  O358  1  0.25020731  0.61875984  0.75027398  1
  O  O359  1  0.74725986  0.11566331  0.24493641  1
  O  O360  1  0.75339463  0.11071926  0.74951964  1
  O  O361  1  0.77082844  0.62775554  0.24941371  1
  O  O362  1  0.75776515  0.63240960  0.75672571  1
  O  O363  1  0.36946349  0.11932989  0.37109645  1
  O  O364  1  0.36894564  0.11352879  0.88051086  1
  O  O365  1  0.37056261  0.62087907  0.36493875  1
  O  O366  1  0.37009901  0.61828434  0.86878988  1
  O  O367  1  0.87967146  0.12430522  0.37240147  1
  O  O368  1  0.87494530  0.11018189  0.87224513  1
  O  O369  1  0.88190487  0.62146678  0.36542018  1
  O  O370  1  0.86633034  0.62069706  0.86496615  1
  O  O371  1  0.12036867  0.37721302  0.13866735  1
  O  O372  1  0.13429118  0.38037710  0.63223744  1
  O  O373  1  0.13175718  0.88352840  0.13105537  1
  O  O374  1  0.13575315  0.87250472  0.62144048  1
  O  O375  1  0.63197973  0.37774369  0.12708507  1
  O  O376  1  0.62917946  0.38353677  0.62880481  1
  O  O377  1  0.62483580  0.88198822  0.14021826  1
  O  O378  1  0.63294548  0.88470518  0.62781501  1
  O  O379  1  0.11476004  0.25534780  0.24901701  1
  O  O380  1  0.11659906  0.25520948  0.75669689  1
  O  O381  1  0.11896401  0.75977184  0.25288035  1
  O  O382  1  0.11606078  0.74952648  0.75914959  1
  O  O383  1  0.61545924  0.26339106  0.24266968  1
  O  O384  1  0.62254250  0.25121075  0.76677633  1
  O  O385  1  0.62121454  0.75629599  0.25588165  1
  O  O386  1  0.61873024  0.76575304  0.74837988  1
  O  O387  1  0.37967751  0.24207340  0.24388686  1
  O  O388  1  0.36628614  0.25151065  0.73265513  1
  O  O389  1  0.38335835  0.74353110  0.25201096  1
  O  O390  1  0.38483183  0.75990926  0.75327136  1
  O  O391  1  0.88630648  0.24908195  0.23782001  1
  O  O392  1  0.88924080  0.24935671  0.74835636  1
  O  O393  1  0.88789154  0.74599322  0.25540973  1
  O  O394  1  0.88098741  0.74016197  0.74697257  1
  O  O395  1  0.38301652  0.49195731  0.49737626  1
  O  O396  1  0.36986355  0.50488409  0.98804851  1
  O  O397  1  0.37131971  0.99289842  0.48670535  1
  O  O398  1  0.38950281  0.99785537  1.01066673  1
  O  O399  1  0.90427092  0.49865032  0.51789699  1
  O  O400  1  0.88266354  0.49001267  0.99690796  1
  O  O401  1  0.88227776  0.99309130  0.49902355  1
  O  O402  1  0.88503373  0.98863513  0.99397330  1
  O  O403  1  0.11226165  -0.00887866  0.00967868  1
  O  O404  1  0.12002068  0.01121800  0.49737363  1
  O  O405  1  0.11864290  0.50881058  -0.00088773  1
  O  O406  1  0.12407467  0.50729011  0.50530340  1
  O  O407  1  0.61586377  -0.00893305  0.01622389  1
  O  O408  1  0.63570169  0.01402854  0.50951379  1
  O  O409  1  0.62524598  0.50123010  0.01240593  1
  O  O410  1  0.60890372  0.49708003  0.51263590  1
  O  O411  1  0.37416173  0.36381656  0.13289837  1
  O  O412  1  0.37051788  0.37307352  0.61499254  1
  O  O413  1  0.36686258  0.87507122  0.12328869  1
  O  O414  1  0.36937095  0.88572952  0.61181487  1
  O  O415  1  0.86794052  0.36823408  0.11777353  1
  O  O416  1  0.85941105  0.38066759  0.60506846  1
  O  O417  1  0.87503597  0.87750502  0.10873189  1
  O  O418  1  0.86647753  0.87249993  0.61317476  1
  O  O419  1  0.13302333  0.12642696  0.38168605  1
  O  O420  1  0.13100867  0.13823976  0.87449831  1
  O  O421  1  0.13184261  0.63126792  0.37861127  1
  O  O422  1  0.12677699  0.63595848  0.88716258  1
  O  O423  1  0.62433301  0.12055073  0.38624537  1
  O  O424  1  0.62852508  0.13761146  0.87497345  1
  O  O425  1  0.62215573  0.63255654  0.36829751  1
  O  O426  1  0.63160465  0.62848019  0.87346292  1
