# generated using pymatgen
data_V85Zn86O256
_symmetry_space_group_name_H-M   'P 1'
_cell_length_a   16.91503418
_cell_length_b   16.92062127
_cell_length_c   16.91825567
_cell_angle_alpha   90.03547060
_cell_angle_beta   90.02144583
_cell_angle_gamma   89.94023319
_symmetry_Int_Tables_number   1
_chemical_formula_structural   V85Zn86O256
_chemical_formula_sum   'V85 Zn86 O256'
_cell_volume   4842.21890081
_cell_formula_units_Z   1
loop_
 _symmetry_equiv_pos_site_id
 _symmetry_equiv_pos_as_xyz
  1  'x, y, z'
loop_
 _atom_site_type_symbol
 _atom_site_label
 _atom_site_symmetry_multiplicity
 _atom_site_fract_x
 _atom_site_fract_y
 _atom_site_fract_z
 _atom_site_occupancy
  V  V0  1  0.49278175  0.50245632  -0.00517241  1
  V  V1  1  0.74892649  0.37675638  0.12475873  1
  V  V2  1  0.00185777  0.12226990  0.62344085  1
  V  V3  1  0.37362624  0.37706870  -0.00748184  1
  V  V4  1  -0.00041298  0.11357387  0.11988847  1
  V  V5  1  0.00531249  0.87901768  0.87921018  1
  V  V6  1  0.50245526  0.25007834  0.25824101  1
  V  V7  1  0.24934852  0.50569254  0.25688802  1
  V  V8  1  0.85800362  0.87139025  0.50361565  1
  V  V9  1  0.61496986  0.13568109  0.50019559  1
  V  V10  1  0.00059144  0.49801272  -0.00121620  1
  V  V11  1  0.62375429  0.62429506  0.00051581  1
  V  V12  1  0.87371429  0.25045564  0.62521863  1
  V  V13  1  0.62489864  0.12705109  0.00105954  1
  V  V14  1  0.63350530  0.38062862  0.74994694  1
  V  V15  1  0.74566174  0.13331930  0.37811880  1
  V  V16  1  0.13174968  0.74947596  0.87658163  1
  V  V17  1  0.87451472  0.24933778  0.12286898  1
  V  V18  1  0.36844744  0.37845860  0.50315255  1
  V  V19  1  0.75502126  -0.00581775  0.74489499  1
  V  V20  1  0.61765121  0.87789160  0.25345517  1
  V  V21  1  0.75175497  0.12547720  0.87495480  1
  V  V22  1  0.00235342  -0.01319768  0.49982548  1
  V  V23  1  0.49846068  0.74198609  0.73787368  1
  V  V24  1  0.86450971  0.75285840  0.62307911  1
  V  V25  1  0.87564744  0.50650151  0.37200690  1
  V  V26  1  0.37762481  0.50571968  0.37595918  1
  V  V27  1  0.49707570  0.12589426  0.12693544  1
  V  V28  1  0.87712088  0.12531195  0.74991318  1
  V  V29  1  0.12582375  0.88119660  0.25690543  1
  V  V30  1  0.37280392  0.24877927  0.12497685  1
  V  V31  1  0.87534741  0.49549217  0.86827384  1
  V  V32  1  0.63114416  0.00283911  0.62222106  1
  V  V33  1  -0.00587191  0.75284561  0.26020763  1
  V  V34  1  0.75013480  0.51022427  0.24928417  1
  V  V35  1  0.00359301  0.62524129  0.62275215  1
  V  V36  1  0.27261989  0.12056830  0.87215362  1
  V  V37  1  0.25454566  0.48302233  0.75370218  1
  V  V38  1  0.87497613  0.62282086  0.74817654  1
  V  V39  1  0.36894612  0.62742894  0.74303524  1
  V  V40  1  0.75147182  0.75082626  0.00004085  1
  V  V41  1  0.50030191  0.50495268  0.50792100  1
  V  V42  1  0.00009237  0.37367612  0.37343225  1
  V  V43  1  0.00246652  0.75101361  0.74890830  1
  V  V44  1  0.49285828  0.87610048  0.87442808  1
  V  V45  1  0.12928123  0.12537737  0.49248736  1
  V  V46  1  0.87796958  -0.00225092  0.87635956  1
  V  V47  1  0.13817174  0.87469827  0.74606677  1
  V  V48  1  0.63113609  0.87160779  0.74751907  1
  V  V49  1  0.87329611  0.12346097  0.25136480  1
  V  V50  1  0.12521779  0.37562673  0.25029485  1
  V  V51  1  -0.00026968  0.24945183  0.24935370  1
  V  V52  1  0.87709873  -0.00455480  0.37710900  1
  V  V53  1  0.13154937  0.48809829  0.62924655  1
  V  V54  1  0.44231359  0.07735334  0.68106776  1
  V  V55  1  0.25098853  0.37657772  0.12535259  1
  V  V56  1  0.63149209  0.50547759  0.62876258  1
  V  V57  1  0.74682498  -0.00032261  0.25211274  1
  V  V58  1  0.62522314  0.37437666  0.25887428  1
  V  V59  1  0.62342721  0.75619272  0.37883718  1
  V  V60  1  0.12545611  0.62775308  -0.00060761  1
  V  V61  1  0.13818153  0.62311460  0.49570924  1
  V  V62  1  0.36912110  0.25647471  0.62763913  1
  V  V63  1  0.36915426  0.63288110  0.25049859  1
  V  V64  1  0.87428771  0.37546886  0.49878802  1
  V  V65  1  0.38211477  0.87156858  0.51011197  1
  V  V66  1  0.36975786  -0.01421445  0.36616272  1
  V  V67  1  0.49625831  0.75461691  0.25057834  1
  V  V68  1  0.25511852  0.87501698  0.12695851  1
  V  V69  1  0.13721818  -0.00452958  0.62383537  1
  V  V70  1  0.87958474  0.87731992  0.00252081  1
  V  V71  1  0.01464528  0.37062535  0.87191178  1
  V  V72  1  0.35581864  0.12586653  0.25977950  1
  V  V73  1  0.62470051  0.25291677  0.87356225  1
  V  V74  1  -0.00818333  0.62809465  0.12983212  1
  V  V75  1  0.75109833  0.63327880  0.37764665  1
  V  V76  1  0.62181521  -0.00175687  0.12166252  1
  V  V77  1  0.62238090  0.63102518  0.50334463  1
  V  V78  1  0.12396075  0.50147833  0.12609288  1
  V  V79  1  0.49262249  0.63022751  0.12393141  1
  V  V80  1  0.01507929  0.25199582  0.75134817  1
  V  V81  1  0.75115913  0.61966956  0.87041512  1
  V  V82  1  0.25345665  0.76090405  0.50193764  1
  V  V83  1  0.12151228  0.12154979  -0.01272496  1
  V  V84  1  0.49852523  0.25428049  0.74378861  1
  Zn  Zn85  1  0.24318148  0.24974732  -0.00687420  1
  Zn  Zn86  1  0.74865998  0.25271846  -0.00072079  1
  Zn  Zn87  1  0.50091007  -0.00169991  0.48966239  1
  Zn  Zn88  1  0.75414800  0.38115530  0.62795431  1
  Zn  Zn89  1  0.26478026  -0.00076695  0.75345370  1
  Zn  Zn90  1  0.48964598  0.00793864  -0.01415125  1
  Zn  Zn91  1  0.87289542  0.74879275  0.13020751  1
  Zn  Zn92  1  0.00332024  0.50055813  0.49987598  1
  Zn  Zn93  1  0.50454331  0.37546937  0.37958790  1
  Zn  Zn94  1  0.12594218  -0.00176017  0.12409634  1
  Zn  Zn95  1  0.26315321  0.61884373  0.87971839  1
  Zn  Zn96  1  0.74903939  0.87337108  0.12540373  1
  Zn  Zn97  1  0.37488772  0.87244229  0.00287858  1
  Zn  Zn98  1  0.74506901  0.25419275  0.49850396  1
  Zn  Zn99  1  0.62153601  0.50044706  0.12717027  1
  Zn  Zn100  1  0.49720171  0.38000217  0.87145023  1
  Zn  Zn101  1  0.26336794  0.74512777  0.01046154  1
  Zn  Zn102  1  0.12601079  0.74960592  0.37623678  1
  Zn  Zn103  1  0.62464492  0.74912991  0.87284183  1
  Zn  Zn104  1  0.87573139  0.37360105  -0.00306958  1
  Zn  Zn105  1  0.25102900  0.25156270  0.49858455  1
  Zn  Zn106  1  0.13640222  0.24230619  0.36689538  1
  Zn  Zn107  1  0.18323738  0.18810006  0.17925693  1
  Zn  Zn108  1  0.19486484  0.17884600  0.68714831  1
  Zn  Zn109  1  0.18173388  0.69218610  0.18878662  1
  Zn  Zn110  1  0.19027031  0.68734924  0.68309463  1
  Zn  Zn111  1  0.68592501  0.18882074  0.18914889  1
  Zn  Zn112  1  0.68805552  0.18764281  0.68552368  1
  Zn  Zn113  1  0.68320945  0.68952108  0.18631966  1
  Zn  Zn114  1  0.68736791  0.68486875  0.68757054  1
  Zn  Zn115  1  0.31335996  0.31534520  0.31712099  1
  Zn  Zn116  1  0.31051335  0.30277610  0.81451432  1
  Zn  Zn117  1  0.30250543  0.80794083  0.31679332  1
  Zn  Zn118  1  0.31564763  0.80621608  0.81310542  1
  Zn  Zn119  1  0.81175126  0.31480178  0.31060072  1
  Zn  Zn120  1  0.81536293  0.31199974  0.81146383  1
  Zn  Zn121  1  0.81079853  0.81552980  0.31378257  1
  Zn  Zn122  1  0.81421336  0.80948915  0.81384333  1
  Zn  Zn123  1  0.18782649  0.43694099  0.43624411  1
  Zn  Zn124  1  0.18984918  0.43879542  0.93672755  1
  Zn  Zn125  1  0.19271056  0.93968498  0.43037081  1
  Zn  Zn126  1  0.19272829  0.94325837  0.94243798  1
  Zn  Zn127  1  0.68927438  0.44278704  0.43929824  1
  Zn  Zn128  1  0.68659526  0.43978825  0.93802331  1
  Zn  Zn129  1  0.68619333  0.94165385  0.43643233  1
  Zn  Zn130  1  0.68599135  0.93689911  0.93454256  1
  Zn  Zn131  1  0.30810996  0.05485605  0.06100885  1
  Zn  Zn132  1  0.30971243  0.05570280  0.55079871  1
  Zn  Zn133  1  0.31186157  0.56340195  0.06558545  1
  Zn  Zn134  1  0.31306190  0.56418410  0.56974945  1
  Zn  Zn135  1  0.81025802  0.06013994  0.06205423  1
  Zn  Zn136  1  0.81142857  0.06422422  0.56044541  1
  Zn  Zn137  1  0.81365576  0.56028149  0.05775097  1
  Zn  Zn138  1  0.81056370  0.56551732  0.55837680  1
  Zn  Zn139  1  0.43810372  0.44001370  0.18515197  1
  Zn  Zn140  1  0.43835480  0.44044485  0.68767336  1
  Zn  Zn141  1  0.43324704  0.94266798  0.18480073  1
  Zn  Zn142  1  0.44334113  0.91444566  0.68176823  1
  Zn  Zn143  1  0.93479840  0.43939734  0.18802717  1
  Zn  Zn144  1  0.94415232  0.43646926  0.68830364  1
  Zn  Zn145  1  0.93727792  0.93130552  0.19062458  1
  Zn  Zn146  1  0.94361356  0.93374815  0.68583827  1
  Zn  Zn147  1  0.05739519  0.06027381  0.31291862  1
  Zn  Zn148  1  0.06447089  0.05893771  0.80904160  1
  Zn  Zn149  1  0.05878112  0.56554618  0.31215697  1
  Zn  Zn150  1  0.06672941  0.55969462  0.81056986  1
  Zn  Zn151  1  0.55618656  0.06402104  0.31601514  1
  Zn  Zn152  1  0.56920150  0.05963240  0.81483561  1
  Zn  Zn153  1  0.56158775  0.56527869  0.31441076  1
  Zn  Zn154  1  0.56037979  0.56375430  0.81275830  1
  Zn  Zn155  1  0.43428539  0.18974627  0.43738852  1
  Zn  Zn156  1  0.44014597  0.19320447  0.93742099  1
  Zn  Zn157  1  0.43825793  0.68996305  0.43524552  1
  Zn  Zn158  1  0.43421475  0.69232832  0.92802534  1
  Zn  Zn159  1  0.94062834  0.18503090  0.43809215  1
  Zn  Zn160  1  0.94122249  0.18869679  0.93739701  1
  Zn  Zn161  1  0.93727774  0.68831143  0.44136773  1
  Zn  Zn162  1  0.94011647  0.68946585  0.93766088  1
  Zn  Zn163  1  0.06285847  0.30858416  0.05969238  1
  Zn  Zn164  1  0.05926900  0.31006172  0.56177675  1
  Zn  Zn165  1  0.06563450  0.81276564  0.06736399  1
  Zn  Zn166  1  0.06436919  0.80962421  0.56312058  1
  Zn  Zn167  1  0.56086606  0.31462878  0.06575009  1
  Zn  Zn168  1  0.55717050  0.31801686  0.56694392  1
  Zn  Zn169  1  0.55981067  0.81038911  0.06221328  1
  Zn  Zn170  1  0.56754553  0.81672095  0.56216794  1
  O  O171  1  0.11333439  0.11848323  0.12195863  1
  O  O172  1  0.12011469  0.11481556  0.61577807  1
  O  O173  1  0.11554311  0.62065865  0.11751699  1
  O  O174  1  0.11964657  0.61841726  0.61614073  1
  O  O175  1  0.62044915  0.12015854  0.11940512  1
  O  O176  1  0.63093814  0.11517336  0.61240656  1
  O  O177  1  0.61359494  0.62431924  0.11760221  1
  O  O178  1  0.62740086  0.62022296  0.61537919  1
  O  O179  1  0.38024569  0.39079310  0.38046664  1
  O  O180  1  0.37611012  0.36838551  0.88925738  1
  O  O181  1  0.37252456  0.88250024  0.37400378  1
  O  O182  1  0.39043964  0.87536432  0.86861595  1
  O  O183  1  0.87949036  0.38153765  0.38013007  1
  O  O184  1  0.88044998  0.38259280  0.87613515  1
  O  O185  1  0.86786109  0.88286681  0.38997858  1
  O  O186  1  0.88480371  0.87692662  0.88058724  1
  O  O187  1  0.27034241  0.00580875  0.37863153  1
  O  O188  1  0.24873369  0.01374931  0.87165378  1
  O  O189  1  0.25709961  0.49853055  0.36288924  1
  O  O190  1  0.24055565  0.50382539  0.85700461  1
  O  O191  1  0.75824175  0.01030750  0.37232703  1
  O  O192  1  0.75588094  0.00470657  0.86400075  1
  O  O193  1  0.75513342  0.51085899  0.36830060  1
  O  O194  1  0.76150809  0.50854147  0.88105722  1
  O  O195  1  0.24367762  0.49620851  0.13530000  1
  O  O196  1  0.23904821  0.50152640  0.63621424  1
  O  O197  1  0.24360040  0.98298053  0.12760674  1
  O  O198  1  0.23996967  1.00358597  0.62873062  1
  O  O199  1  0.75114060  0.49535383  0.13265509  1
  O  O200  1  0.73710669  0.50015811  0.62028512  1
  O  O201  1  0.73674882  1.00086073  0.13258617  1
  O  O202  1  0.74584140  1.00378454  0.63608903  1
  O  O203  1  0.00373728  0.36992449  0.25315176  1
  O  O204  1  -0.00043767  0.36458870  0.75872418  1
  O  O205  1  0.00904185  0.86121168  0.24750497  1
  O  O206  1  0.00951334  0.86757419  0.75835326  1
  O  O207  1  0.50890389  0.37108886  0.24940328  1
  O  O208  1  0.50995724  0.36999980  0.75153401  1
  O  O209  1  0.50924309  0.86980939  0.24429274  1
  O  O210  1  0.50997215  0.86506577  0.75716291  1
  O  O211  1  0.49749228  0.13558635  0.24335031  1
  O  O212  1  0.50212302  0.13052554  0.74760494  1
  O  O213  1  0.49345598  0.63144028  0.24220604  1
  O  O214  1  0.49667264  0.63738139  0.75112653  1
  O  O215  1  0.99149668  0.13056549  0.24343525  1
  O  O216  1  0.99449885  0.12894829  0.74325290  1
  O  O217  1  1.00357194  0.63829133  0.24167089  1
  O  O218  1  0.99780000  0.62953148  0.74010630  1
  O  O219  1  0.37503849  0.25826368  0.01033982  1
  O  O220  1  0.37903255  0.26184917  0.50799986  1
  O  O221  1  0.37585112  0.75795092  -0.00390418  1
  O  O222  1  0.36805846  0.76284390  0.49129982  1
  O  O223  1  0.87224582  0.25053746  0.01209802  1
  O  O224  1  0.87585748  0.25723725  0.50707594  1
  O  O225  1  0.86823905  0.75929826  -0.00021583  1
  O  O226  1  0.87754885  0.76420677  0.50614274  1
  O  O227  1  0.12026792  0.23349123  0.50122452  1
  O  O228  1  0.12892467  0.22948870  1.01158542  1
  O  O229  1  0.13123140  0.74004919  0.49847226  1
  O  O230  1  0.12307106  0.74042025  0.99269521  1
  O  O231  1  0.62487469  0.23950590  0.50777654  1
  O  O232  1  0.62479996  0.24582453  0.99411503  1
  O  O233  1  0.62042104  0.74666382  0.48918035  1
  O  O234  1  0.63164844  0.73896647  0.99840184  1
  O  O235  1  0.48844791  0.24812181  0.13353259  1
  O  O236  1  0.49333939  0.24971050  0.63666180  1
  O  O237  1  0.50444585  0.74292980  0.13853865  1
  O  O238  1  0.50380252  0.75806579  0.63958850  1
  O  O239  1  0.99022739  0.24398923  0.13102072  1
  O  O240  1  0.99012727  0.24459789  0.63038310  1
  O  O241  1  0.99783454  0.74230197  0.13400817  1
  O  O242  1  0.99443025  0.74191623  0.62985885  1
  O  O243  1  -0.00032051  0.25542026  0.36481810  1
  O  O244  1  -0.00573133  0.25931698  0.86400097  1
  O  O245  1  0.00101549  0.74427837  0.36327867  1
  O  O246  1  0.01090048  0.75726247  0.86953886  1
  O  O247  1  0.49530381  0.25558099  0.36202937  1
  O  O248  1  0.50799618  0.25260387  0.86267564  1
  O  O249  1  0.51040860  0.74582810  0.36048390  1
  O  O250  1  0.50625848  0.76033649  0.86156576  1
  O  O251  1  0.23205166  0.12417687  0.50112398  1
  O  O252  1  0.24112826  0.12301898  0.98920394  1
  O  O253  1  0.24083785  0.62633048  0.50173207  1
  O  O254  1  0.23987984  0.62476419  0.99881382  1
  O  O255  1  0.74075510  0.12807446  0.49316988  1
  O  O256  1  0.74174494  0.12679905  0.99404316  1
  O  O257  1  0.73613788  0.62303755  0.48879610  1
  O  O258  1  0.74373454  0.62953434  0.99313415  1
  O  O259  1  0.25599976  0.37411628  0.00695892  1
  O  O260  1  0.26493610  0.38121136  0.50074660  1
  O  O261  1  0.24774925  0.87129259  0.01413019  1
  O  O262  1  0.25804054  0.86720095  0.49694922  1
  O  O263  1  0.75098326  0.37605280  0.01330244  1
  O  O264  1  0.76206950  0.37343887  0.49908526  1
  O  O265  1  0.75499693  0.86551943  -0.00152731  1
  O  O266  1  0.75949943  0.88048425  0.50482122  1
  O  O267  1  0.13166473  0.49813789  0.24721393  1
  O  O268  1  0.13633092  0.50310910  0.73694762  1
  O  O269  1  0.11381515  0.98476395  0.24935804  1
  O  O270  1  0.12449792  0.99003063  0.73914873  1
  O  O271  1  0.63238109  0.49480828  0.24871446  1
  O  O272  1  0.61900412  0.49396123  0.74120574  1
  O  O273  1  0.62599603  0.99480848  0.24708413  1
  O  O274  1  0.63622807  0.99483603  0.74292224  1
  O  O275  1  0.37522652  0.01461351  0.25706275  1
  O  O276  1  0.38582753  0.00834245  0.73117775  1
  O  O277  1  0.36966339  0.50846613  0.25601765  1
  O  O278  1  0.36069324  0.50565619  0.74624039  1
  O  O279  1  0.86905984  0.00090234  0.25945943  1
  O  O280  1  0.87153668  0.00240963  0.75306107  1
  O  O281  1  0.86524249  0.49674276  0.26279818  1
  O  O282  1  0.88140766  0.50600083  0.76024590  1
  O  O283  1  0.11451043  0.37720463  0.36833137  1
  O  O284  1  0.11414120  0.37372751  0.88024736  1
  O  O285  1  0.12642385  0.87384788  0.36231504  1
  O  O286  1  0.12144656  0.86923246  0.87189889  1
  O  O287  1  0.62739909  0.37931696  0.36324711  1
  O  O288  1  0.62414336  0.37032229  0.86881268  1
  O  O289  1  0.62863653  0.86777997  0.36811648  1
  O  O290  1  0.62275725  0.87226552  0.86039817  1
  O  O291  1  0.37625353  0.13190464  0.13462213  1
  O  O292  1  0.38097947  0.12854503  0.61574400  1
  O  O293  1  0.38504218  0.62303572  0.13445960  1
  O  O294  1  0.38303919  0.61780091  0.64202132  1
  O  O295  1  0.87683173  0.13111869  0.12988527  1
  O  O296  1  0.88085378  0.13166791  0.62770908  1
  O  O297  1  0.88821387  0.62526751  0.11844487  1
  O  O298  1  0.88252000  0.62907727  0.62690964  1
  O  O299  1  0.26088821  0.25655586  0.12397338  1
  O  O300  1  0.26484353  0.24304836  0.62040788  1
  O  O301  1  0.23741766  0.76603697  0.12354671  1
  O  O302  1  0.24798790  0.74335653  0.60221433  1
  O  O303  1  0.75734979  0.25830194  0.12634188  1
  O  O304  1  0.76368465  0.25231852  0.62343839  1
  O  O305  1  0.75192726  0.74807118  0.11294002  1
  O  O306  1  0.76521493  0.74561768  0.62902015  1
  O  O307  1  0.24644976  0.25916549  0.38472015  1
  O  O308  1  0.25384701  0.22925756  0.87838245  1
  O  O309  1  0.24375657  0.74492721  0.39295749  1
  O  O310  1  0.23883490  0.74600510  0.87743649  1
  O  O311  1  0.75460493  0.23723195  0.37479976  1
  O  O312  1  0.74396975  0.24402632  0.87603992  1
  O  O313  1  0.74105147  0.73986209  0.36692979  1
  O  O314  1  0.75006639  0.74064557  0.88556165  1
  O  O315  1  0.00839671  0.12807189  0.00803931  1
  O  O316  1  0.00590714  0.11336947  0.50588271  1
  O  O317  1  0.00807312  0.61970315  0.00534035  1
  O  O318  1  0.00707305  0.62374781  0.51149243  1
  O  O319  1  0.50813812  0.12584654  0.00679800  1
  O  O320  1  0.51239460  0.12445347  0.49632999  1
  O  O321  1  0.50466483  0.62294508  0.00472238  1
  O  O322  1  0.51239521  0.62069972  0.49432273  1
  O  O323  1  0.49258396  0.38657334  0.49802890  1
  O  O324  1  0.49187372  0.38477794  1.00217249  1
  O  O325  1  0.48700043  0.87659144  0.50277212  1
  O  O326  1  0.50844835  0.87280402  0.98112232  1
  O  O327  1  0.98967108  0.37703937  0.49300766  1
  O  O328  1  0.99837123  0.38013179  0.99385509  1
  O  O329  1  0.99584640  0.88444895  0.50236858  1
  O  O330  1  0.99206359  0.86775896  0.99174925  1
  O  O331  1  0.49444001  0.50043544  0.38526806  1
  O  O332  1  0.50425230  0.49916551  0.89046469  1
  O  O333  1  0.47809050  1.00701748  0.37530725  1
  O  O334  1  0.50837088  0.98236142  0.87112417  1
  O  O335  1  0.99070937  0.49485229  0.37526315  1
  O  O336  1  0.99632859  0.49185324  0.87744175  1
  O  O337  1  0.98439082  1.00356444  0.38434526  1
  O  O338  1  0.99533254  0.98552553  0.86968841  1
  O  O339  1  -0.00761424  0.01194337  0.12785022  1
  O  O340  1  0.00800694  0.00353294  0.61685795  1
  O  O341  1  0.00455541  0.50626007  0.12169367  1
  O  O342  1  0.01210031  0.50778500  0.62498666  1
  O  O343  1  0.51242349  0.00789893  0.12956184  1
  O  O344  1  0.50484752  0.00948718  0.62881342  1
  O  O345  1  0.50098795  0.51031792  0.11509148  1
  O  O346  1  0.51077911  0.49829955  0.61347507  1
  O  O347  1  0.24613971  0.38451363  0.24389266  1
  O  O348  1  0.25495876  0.38430871  0.75337845  1
  O  O349  1  0.23283569  0.86843431  0.24462512  1
  O  O350  1  0.24191341  0.87784862  0.75643905  1
  O  O351  1  0.74448104  0.38404871  0.24281671  1
  O  O352  1  0.73788752  0.37239067  0.74892017  1
  O  O353  1  0.73745803  0.88151008  0.24807013  1
  O  O354  1  0.74543670  0.88213530  0.75387314  1
  O  O355  1  0.25782587  0.13136881  0.24885075  1
  O  O356  1  0.25235035  0.11908102  0.76612166  1
  O  O357  1  0.25788637  0.61891158  0.24221029  1
  O  O358  1  0.26067151  0.62520030  0.75037938  1
  O  O359  1  0.75294416  0.11958627  0.25725601  1
  O  O360  1  0.75707128  0.11788813  0.75500006  1
  O  O361  1  0.74368190  0.61562559  0.25495805  1
  O  O362  1  0.75695406  0.62908420  0.76330808  1
  O  O363  1  0.37341707  0.12764134  0.36142023  1
  O  O364  1  0.37197430  0.11948346  0.88121068  1
  O  O365  1  0.37940817  0.61412607  0.36605026  1
  O  O366  1  0.37814307  0.62330050  0.85483761  1
  O  O367  1  0.86800687  0.11791437  0.37093963  1
  O  O368  1  0.87240850  0.11808147  0.87114107  1
  O  O369  1  0.86543224  0.61821193  0.38286237  1
  O  O370  1  0.87134906  0.61879386  0.87018775  1
  O  O371  1  0.12950502  0.38118737  0.13027552  1
  O  O372  1  0.12038390  0.38997989  0.61774911  1
  O  O373  1  0.12707282  0.87876630  0.13720695  1
  O  O374  1  0.12065559  0.88172466  0.63458773  1
  O  O375  1  0.63394696  0.37811051  0.13415241  1
  O  O376  1  0.62870666  0.38441447  0.63203680  1
  O  O377  1  0.62573779  0.88303769  0.13079987  1
  O  O378  1  0.62074671  0.89041902  0.63539149  1
  O  O379  1  0.11710110  0.25670308  0.24808214  1
  O  O380  1  0.11349137  0.24311897  0.73910615  1
  O  O381  1  0.11257771  0.75739454  0.25546719  1
  O  O382  1  0.12368151  0.75550013  0.75526657  1
  O  O383  1  0.61471298  0.26048886  0.24461416  1
  O  O384  1  0.61999933  0.25693323  0.75248422  1
  O  O385  1  0.61856535  0.75915576  0.25619460  1
  O  O386  1  0.61902328  0.75573218  0.74855897  1
  O  O387  1  0.37930885  0.24266737  0.24480224  1
  O  O388  1  0.38494405  0.25388098  0.74131564  1
  O  O389  1  0.38044862  0.73989572  0.25879816  1
  O  O390  1  0.38632463  0.74143399  0.74710602  1
  O  O391  1  0.87780028  0.24534116  0.24049877  1
  O  O392  1  0.88081134  0.24364971  0.74151357  1
  O  O393  1  0.88807822  0.75826792  0.24900402  1
  O  O394  1  0.88265966  0.74404403  0.74373333  1
  O  O395  1  0.38136572  0.50063568  0.49572095  1
  O  O396  1  0.38085982  0.49129834  1.00576945  1
  O  O397  1  0.37726699  0.98525789  0.49099631  1
  O  O398  1  0.38455540  0.98567633  1.01719053  1
  O  O399  1  0.87605210  0.49331321  0.48985076  1
  O  O400  1  0.88426400  0.49925553  0.98734648  1
  O  O401  1  0.87976918  0.99020028  0.49776208  1
  O  O402  1  0.86737250  0.98561072  0.99267099  1
  O  O403  1  0.12367782  0.01563165  0.00386238  1
  O  O404  1  0.11995447  0.00403963  0.50293596  1
  O  O405  1  0.12009837  0.50804381  0.00489232  1
  O  O406  1  0.12750869  0.50850132  0.50976030  1
  O  O407  1  0.62291817  0.00670838  0.00731113  1
  O  O408  1  0.62041052  0.00571326  0.50769256  1
  O  O409  1  0.61959235  0.51191783  0.00358247  1
  O  O410  1  0.61849822  0.50863731  0.50498452  1
  O  O411  1  0.36957870  0.36845647  0.12058073  1
  O  O412  1  0.38091923  0.36794424  0.61689461  1
  O  O413  1  0.35764721  0.87114345  0.13847323  1
  O  O414  1  0.36859491  0.87358239  0.60858861  1
  O  O415  1  0.86653317  0.36778672  0.12487756  1
  O  O416  1  0.87620042  0.37009179  0.61737165  1
  O  O417  1  0.87023841  0.87308354  0.11600406  1
  O  O418  1  0.87955219  0.86744112  0.61359594  1
  O  O419  1  0.11584759  0.12415723  0.38842252  1
  O  O420  1  0.11728102  0.12474349  0.88627961  1
  O  O421  1  0.11829986  0.62122551  0.39401900  1
  O  O422  1  0.12305391  0.63258709  0.88358426  1
  O  O423  1  0.63183258  0.11930805  0.38993491  1
  O  O424  1  0.63076597  0.13213414  0.88075689  1
  O  O425  1  0.63122358  0.63471773  0.37977523  1
  O  O426  1  0.63424441  0.62500158  0.88162883  1
