# generated using pymatgen
data_V85Zn86O256
_symmetry_space_group_name_H-M   'P 1'
_cell_length_a   16.95611109
_cell_length_b   16.94140476
_cell_length_c   16.96020964
_cell_angle_alpha   89.90841469
_cell_angle_beta   90.08127089
_cell_angle_gamma   89.97667421
_symmetry_Int_Tables_number   1
_chemical_formula_structural   V85Zn86O256
_chemical_formula_sum   'V85 Zn86 O256'
_cell_volume   4871.98407220
_cell_formula_units_Z   1
loop_
 _symmetry_equiv_pos_site_id
 _symmetry_equiv_pos_as_xyz
  1  'x, y, z'
loop_
 _atom_site_type_symbol
 _atom_site_label
 _atom_site_symmetry_multiplicity
 _atom_site_fract_x
 _atom_site_fract_y
 _atom_site_fract_z
 _atom_site_occupancy
  V  V0  1  0.24810727  0.50201413  0.24604591  1
  V  V1  1  0.49551396  0.12429327  0.62923080  1
  V  V2  1  0.75152053  0.50210038  0.74994672  1
  V  V3  1  0.49362899  -0.00078392  0.49086589  1
  V  V4  1  0.00552577  0.49973996  0.00775032  1
  V  V5  1  0.74557014  0.75535528  0.49324562  1
  V  V6  1  0.00174337  0.63043050  0.62784996  1
  V  V7  1  0.37386613  0.25093382  0.12662048  1
  V  V8  1  0.87577214  0.36658181  0.00422301  1
  V  V9  1  0.24819713  0.37809630  0.12561769  1
  V  V10  1  0.75181589  0.63240703  0.88102054  1
  V  V11  1  -0.00063344  -0.01033756  0.00652461  1
  V  V12  1  0.87057130  0.12635014  0.23709192  1
  V  V13  1  -0.00043854  0.37657113  0.87643477  1
  V  V14  1  0.62861214  0.50576213  0.62456796  1
  V  V15  1  0.12851959  0.48843034  0.62165675  1
  V  V16  1  0.87679678  0.37252860  0.50042490  1
  V  V17  1  0.87606571  0.87986750  0.50260095  1
  V  V18  1  0.76677909  0.49961770  0.25617656  1
  V  V19  1  0.50287498  0.50312367  0.00879402  1
  V  V20  1  0.61132078  0.65918536  0.47150640  1
  V  V21  1  0.49608459  -0.00218445  -0.00089478  1
  V  V22  1  -0.00316784  0.24700251  0.24221575  1
  V  V23  1  0.25037200  0.62543078  0.37793934  1
  V  V24  1  0.87628950  0.50098689  0.87592101  1
  V  V25  1  0.75289233  0.36081240  0.12741241  1
  V  V26  1  0.37521586  0.50146225  0.87765846  1
  V  V27  1  0.24663621  0.87493565  0.62338008  1
  V  V28  1  -0.00321918  0.37473694  0.37612544  1
  V  V29  1  0.37211841  0.25613887  0.62952940  1
  V  V30  1  0.12419803  0.87524182  0.24059647  1
  V  V31  1  0.86993102  0.24485746  0.62782263  1
  V  V32  1  0.62691472  0.36837877  0.25809560  1
  V  V33  1  0.24345016  0.00889245  0.73972021  1
  V  V34  1  0.75134156  0.13118996  0.87566176  1
  V  V35  1  0.37316913  0.75336236  0.62209817  1
  V  V36  1  0.62782268  0.62886073  0.00450823  1
  V  V37  1  0.12398315  0.11888216  0.00338513  1
  V  V38  1  0.49772315  0.24520845  0.75470708  1
  V  V39  1  0.37490104  0.00833100  0.86364339  1
  V  V40  1  0.24861805  0.63348665  0.87723017  1
  V  V41  1  0.12534909  0.25014739  0.87588319  1
  V  V42  1  0.62368314  0.87508014  0.75074990  1
  V  V43  1  0.50569459  0.37207972  0.87989724  1
  V  V44  1  0.49944991  0.24755333  0.25939837  1
  V  V45  1  0.62669455  0.37101842  0.75624473  1
  V  V46  1  0.87862475  0.63166258  0.74914051  1
  V  V47  1  0.12926562  0.75109982  0.37549724  1
  V  V48  1  0.62806478  0.49976895  0.13394243  1
  V  V49  1  -0.00755636  0.62810578  0.13116929  1
  V  V50  1  0.74906253  0.87651892  0.62998845  1
  V  V51  1  0.37450679  0.11423821  0.25303049  1
  V  V52  1  0.37195921  0.76169191  0.10923634  1
  V  V53  1  0.12876237  0.62929230  0.00852131  1
  V  V54  1  0.86500183  0.86689092  0.00248043  1
  V  V55  1  0.37545263  0.37695303  0.00340344  1
  V  V56  1  0.37150095  0.87587319  0.48706406  1
  V  V57  1  -0.00392201  0.88128940  0.86472169  1
  V  V58  1  0.12767844  0.62773616  0.50131443  1
  V  V59  1  0.12715066  0.37583306  0.74958402  1
  V  V60  1  -0.00433346  0.49797629  0.49844295  1
  V  V61  1  0.25214545  0.49548866  0.74715682  1
  V  V62  1  0.62116358  0.13465693  -0.00621039  1
  V  V63  1  0.38686165  0.63051826  0.24200703  1
  V  V64  1  0.24400740  -0.00433623  0.23309799  1
  V  V65  1  -0.00109365  0.87571267  0.37408641  1
  V  V66  1  0.37446090  0.62649536  0.75184039  1
  V  V67  1  0.49479988  0.87316486  0.87978705  1
  V  V68  1  0.37750407  0.49719548  0.37677520  1
  V  V69  1  -0.00407200  0.25028899  0.75091618  1
  V  V70  1  0.49986196  0.62377218  0.63085906  1
  V  V71  1  0.74959059  0.37816112  0.62525152  1
  V  V72  1  0.62167147  0.12887140  0.49280274  1
  V  V73  1  0.25041545  0.11243010  0.37611687  1
  V  V74  1  0.49698455  0.12319681  0.12412602  1
  V  V75  1  0.50542072  0.49792319  0.49842812  1
  V  V76  1  0.11721040  0.74956804  0.86183387  1
  V  V77  1  0.12489848  0.37843193  0.24496263  1
  V  V78  1  0.12844551  0.24728744  0.37156948  1
  V  V79  1  0.25487102  0.25705358  0.49833612  1
  V  V80  1  0.75328596  0.00086551  0.75960464  1
  V  V81  1  0.74361041  0.25125644  0.49404460  1
  V  V82  1  0.50017771  0.74929685  0.75254231  1
  V  V83  1  0.87511482  0.00605948  0.37334505  1
  V  V84  1  0.24858518  0.24988872  -0.00094814  1
  Zn  Zn85  1  0.74780649  0.24942354  -0.00038784  1
  Zn  Zn86  1  0.33900185  0.87688297  -0.00329105  1
  Zn  Zn87  1  0.37462536  0.37864781  0.50643113  1
  Zn  Zn88  1  0.86934977  0.74564084  0.13605377  1
  Zn  Zn89  1  0.12733983  0.11984030  0.50733409  1
  Zn  Zn90  1  0.62848118  0.75346294  0.88256097  1
  Zn  Zn91  1  0.11739679  0.87653871  0.73845500  1
  Zn  Zn92  1  0.00086933  0.12103074  0.12380921  1
  Zn  Zn93  1  0.75053684  0.12710642  0.37559422  1
  Zn  Zn94  1  0.50433313  0.36826187  0.38131821  1
  Zn  Zn95  1  0.74691824  -0.00715249  0.24460040  1
  Zn  Zn96  1  0.01279226  0.00141535  0.50948736  1
  Zn  Zn97  1  0.62116338  0.00259304  0.62671258  1
  Zn  Zn98  1  0.76408496  0.63094340  0.36180328  1
  Zn  Zn99  1  -0.00607069  0.74180266  0.25593684  1
  Zn  Zn100  1  0.87890408  0.11945521  0.75655613  1
  Zn  Zn101  1  0.88056115  0.75504104  0.62970416  1
  Zn  Zn102  1  0.00741701  0.11961449  0.62535408  1
  Zn  Zn103  1  0.62509107  -0.00715821  0.12742530  1
  Zn  Zn104  1  0.61826664  0.84680938  0.24856815  1
  Zn  Zn105  1  0.25399865  0.12957145  0.86829168  1
  Zn  Zn106  1  0.73953422  0.86605383  0.12592209  1
  Zn  Zn107  1  0.18731100  0.18571223  0.18612586  1
  Zn  Zn108  1  0.18981823  0.19111608  0.68568993  1
  Zn  Zn109  1  0.18827499  0.69108600  0.18960045  1
  Zn  Zn110  1  0.19063475  0.68566887  0.68524217  1
  Zn  Zn111  1  0.65736500  0.15021958  0.21749139  1
  Zn  Zn112  1  0.68289562  0.18720845  0.68721513  1
  Zn  Zn113  1  0.70208208  0.68616872  0.17871132  1
  Zn  Zn114  1  0.68946646  0.69112455  0.68818775  1
  Zn  Zn115  1  0.31471424  0.31177568  0.31344246  1
  Zn  Zn116  1  0.31599762  0.31439680  0.81373219  1
  Zn  Zn117  1  0.31021924  0.80966418  0.30471537  1
  Zn  Zn118  1  0.31033450  0.81789244  0.81021345  1
  Zn  Zn119  1  0.81595901  0.31048645  0.31143924  1
  Zn  Zn120  1  0.81089459  0.31088063  0.81713058  1
  Zn  Zn121  1  0.81053878  0.81453483  0.30505764  1
  Zn  Zn122  1  0.81677472  0.81303219  0.81722340  1
  Zn  Zn123  1  0.18583169  0.43610591  0.43376635  1
  Zn  Zn124  1  0.18744461  0.44209210  0.93732146  1
  Zn  Zn125  1  0.18999310  0.93672688  0.43581502  1
  Zn  Zn126  1  0.18257223  0.94529590  0.91938567  1
  Zn  Zn127  1  0.68719739  0.44073866  0.43538262  1
  Zn  Zn128  1  0.69005759  0.44051378  0.93990293  1
  Zn  Zn129  1  0.69085590  0.94645831  0.44190205  1
  Zn  Zn130  1  0.68234311  0.94343327  0.93902576  1
  Zn  Zn131  1  0.31252798  0.06123782  0.05701308  1
  Zn  Zn132  1  0.31471101  0.06651620  0.56277877  1
  Zn  Zn133  1  0.31055816  0.56485919  0.06482543  1
  Zn  Zn134  1  0.31211518  0.56158777  0.56342699  1
  Zn  Zn135  1  0.81234292  0.05293310  0.05916915  1
  Zn  Zn136  1  0.81221832  0.06188448  0.56545385  1
  Zn  Zn137  1  0.81142482  0.55389683  0.06400195  1
  Zn  Zn138  1  0.82005834  0.58233363  0.53603036  1
  Zn  Zn139  1  0.44023686  0.43995877  0.19281500  1
  Zn  Zn140  1  0.43991764  0.43553074  0.68937257  1
  Zn  Zn141  1  0.43793719  0.92841813  0.18540269  1
  Zn  Zn142  1  0.43540406  0.93738564  0.68588683  1
  Zn  Zn143  1  0.94039253  0.43420781  0.18254897  1
  Zn  Zn144  1  0.93776835  0.43955655  0.68479056  1
  Zn  Zn145  1  0.93697129  0.93646048  0.18630022  1
  Zn  Zn146  1  0.93580946  0.94480898  0.68605193  1
  Zn  Zn147  1  0.06215536  0.06052258  0.31540273  1
  Zn  Zn148  1  0.06423660  0.06288831  0.81297713  1
  Zn  Zn149  1  0.06295697  0.55835585  0.31433797  1
  Zn  Zn150  1  0.06319785  0.56199215  0.81261850  1
  Zn  Zn151  1  0.56126939  -0.01594587  0.31078619  1
  Zn  Zn152  1  0.56655036  0.06205800  0.81478523  1
  Zn  Zn153  1  0.56481581  0.66685504  0.30281450  1
  Zn  Zn154  1  0.56509137  0.55982921  0.81757726  1
  Zn  Zn155  1  0.43346503  0.18210975  0.43876843  1
  Zn  Zn156  1  0.43552093  0.18891236  0.93676910  1
  Zn  Zn157  1  0.42913442  0.68297473  0.44421185  1
  Zn  Zn158  1  0.43831623  0.68828618  0.94411943  1
  Zn  Zn159  1  0.94008485  0.18657925  0.43727448  1
  Zn  Zn160  1  0.93720602  0.18240061  0.93782820  1
  Zn  Zn161  1  0.93428800  0.69084474  0.43696823  1
  Zn  Zn162  1  0.94383752  0.69046251  0.93838969  1
  Zn  Zn163  1  0.06374545  0.31178399  0.06348957  1
  Zn  Zn164  1  0.07153365  0.28831840  0.56986958  1
  Zn  Zn165  1  0.12903965  0.83735875  0.03473721  1
  Zn  Zn166  1  0.06339588  0.81151976  0.55784324  1
  Zn  Zn167  1  0.56410336  0.31162155  0.07001783  1
  Zn  Zn168  1  0.56230777  0.31390244  0.56785971  1
  Zn  Zn169  1  0.55380288  0.80541421  0.07307903  1
  Zn  Zn170  1  0.55734993  0.82616557  0.42599166  1
  O  O171  1  0.12183478  0.13361384  0.10741079  1
  O  O172  1  0.11069498  0.17498086  0.61016851  1
  O  O173  1  0.12115416  0.63026669  0.11166747  1
  O  O174  1  0.12238024  0.61615866  0.61779185  1
  O  O175  1  0.60501924  0.12690706  0.11302874  1
  O  O176  1  0.61079455  0.12535368  0.62078708  1
  O  O177  1  0.63329462  0.60756613  0.11649347  1
  O  O178  1  0.61709906  0.61164701  0.64191332  1
  O  O179  1  0.37897906  0.38848440  0.37402580  1
  O  O180  1  0.38225365  0.38286708  0.88413524  1
  O  O181  1  0.36761881  0.86731393  0.38879671  1
  O  O182  1  0.37950172  0.88440608  0.87760614  1
  O  O183  1  0.89027093  0.36721494  0.38274035  1
  O  O184  1  0.88059209  0.38194057  0.88008609  1
  O  O185  1  0.88261723  0.88195218  0.38286078  1
  O  O186  1  0.89045053  0.87125311  0.88491105  1
  O  O187  1  0.25094642  0.01091134  0.36457935  1
  O  O188  1  0.25778897  0.00498717  0.85710140  1
  O  O189  1  0.25683054  0.50443640  0.36784074  1
  O  O190  1  0.25598940  0.50920720  0.86824186  1
  O  O191  1  0.76626500  0.00567689  0.37623008  1
  O  O192  1  0.74311663  0.01397471  0.86933123  1
  O  O193  1  0.75299112  0.49126176  0.35780508  1
  O  O194  1  0.75821024  0.50725888  0.86879785  1
  O  O195  1  0.25329893  0.49461299  0.13837628  1
  O  O196  1  0.24129425  0.50363669  0.63455021  1
  O  O197  1  0.24575535  1.00560786  0.13472298  1
  O  O198  1  0.25711364  0.99439406  0.63429149  1
  O  O199  1  0.74537823  0.48675778  0.13435295  1
  O  O200  1  0.74286148  0.49793204  0.62976418  1
  O  O201  1  0.74510648  0.98972967  0.12225833  1
  O  O202  1  0.74574691  0.99075851  0.63338121  1
  O  O203  1  0.00695750  0.36960537  0.25525125  1
  O  O204  1  0.00458442  0.36839918  0.75578998  1
  O  O205  1  0.00527088  0.87706884  0.26380888  1
  O  O206  1  -0.00278700  0.87776421  0.76072108  1
  O  O207  1  0.50818544  0.36472201  0.25154719  1
  O  O208  1  0.50739363  0.36990979  0.76048812  1
  O  O209  1  0.50992833  0.89428035  0.25995970  1
  O  O210  1  0.50508806  0.87134942  0.75931449  1
  O  O211  1  0.48703960  0.13177578  0.23899447  1
  O  O212  1  0.50690495  0.13845455  0.74788499  1
  O  O213  1  0.48291488  0.60639343  0.25395985  1
  O  O214  1  0.49237239  0.62675344  0.75190541  1
  O  O215  1  0.99506362  0.13140666  0.24735091  1
  O  O216  1  0.99911989  0.13894465  0.75171475  1
  O  O217  1  1.00781877  0.61664846  0.23380258  1
  O  O218  1  0.99126824  0.61516904  0.73972423  1
  O  O219  1  0.36822883  0.25722979  0.00560840  1
  O  O220  1  0.37054824  0.25370268  0.50689029  1
  O  O221  1  0.36690777  0.75361261  0.00428960  1
  O  O222  1  0.38177486  0.76445011  0.50995910  1
  O  O223  1  0.87591847  0.26346337  -0.00641740  1
  O  O224  1  0.86813982  0.25486086  0.51054468  1
  O  O225  1  0.88380310  0.76667350  -0.00101229  1
  O  O226  1  0.86680591  0.76731225  0.50734502  1
  O  O227  1  0.13630134  0.25725991  0.47958491  1
  O  O228  1  0.12924856  0.24748939  0.99192785  1
  O  O229  1  0.12405967  0.73447974  0.49328200  1
  O  O230  1  0.12272954  0.73242324  0.98360157  1
  O  O231  1  0.63348148  0.24453675  0.50988833  1
  O  O232  1  0.62158887  0.23832164  1.00139620  1
  O  O233  1  0.63192597  0.76257700  0.50120323  1
  O  O234  1  0.61326072  0.73131653  1.00037394  1
  O  O235  1  0.48950172  0.24435005  0.13076767  1
  O  O236  1  0.49429868  0.24606193  0.63624384  1
  O  O237  1  0.47249473  0.74327112  0.12286192  1
  O  O238  1  0.48690993  0.74006106  0.63906748  1
  O  O239  1  1.00429384  0.24969894  0.13913399  1
  O  O240  1  0.98237377  0.25985934  0.63850782  1
  O  O241  1  0.99557966  0.72951504  0.12749275  1
  O  O242  1  1.00151324  0.73466202  0.61972105  1
  O  O243  1  0.01047155  0.25616948  0.36591981  1
  O  O244  1  0.00377012  0.25633177  0.86924305  1
  O  O245  1  0.00911477  0.75563780  0.37859412  1
  O  O246  1  0.00796256  0.76273814  0.87533651  1
  O  O247  1  0.49111361  0.24919970  0.36279180  1
  O  O248  1  0.49341889  0.26372838  0.86981051  1
  O  O249  1  0.52703389  0.71895641  0.40073788  1
  O  O250  1  0.49838107  0.75807659  0.87061259  1
  O  O251  1  0.25260298  0.13572801  0.49033955  1
  O  O252  1  0.24202958  0.13122792  0.99479805  1
  O  O253  1  0.24272713  0.61632960  0.48692022  1
  O  O254  1  0.23695595  0.61637036  0.99170973  1
  O  O255  1  0.74064361  0.13408888  0.50550740  1
  O  O256  1  0.74112146  0.12459315  0.99097195  1
  O  O257  1  0.71936209  0.64974182  0.52191466  1
  O  O258  1  0.74135120  0.61185667  0.99076203  1
  O  O259  1  0.25367114  0.37286259  0.00591039  1
  O  O260  1  0.25434399  0.36226747  0.49074835  1
  O  O261  1  0.22640684  0.87708555  -0.00477340  1
  O  O262  1  0.26486288  0.88096796  0.50724224  1
  O  O263  1  0.75907516  0.37460886  0.00659639  1
  O  O264  1  0.75392668  0.37028309  0.50575301  1
  O  O265  1  0.76463280  0.87887691  -0.00992051  1
  O  O266  1  0.75469459  0.87478455  0.51156659  1
  O  O267  1  0.13611906  0.48994158  0.25621601  1
  O  O268  1  0.13205455  0.49514977  0.74246572  1
  O  O269  1  0.13582255  0.99213285  0.25311748  1
  O  O270  1  0.13988520  0.99844842  0.75093000  1
  O  O271  1  0.63381538  0.48416054  0.23927112  1
  O  O272  1  0.62945166  0.48990880  0.74648927  1
  O  O273  1  0.63431455  1.03579655  0.24080950  1
  O  O274  1  0.63333948  0.99275701  0.74991605  1
  O  O275  1  0.36126359  0.00920103  0.24108130  1
  O  O276  1  0.36421738  -0.00351143  0.75543451  1
  O  O277  1  0.36705138  0.50492610  0.25885025  1
  O  O278  1  0.36929935  0.50421688  0.75502345  1
  O  O279  1  0.87508917  0.00903490  0.25664685  1
  O  O280  1  0.85767142  0.00243266  0.74971937  1
  O  O281  1  0.86535065  0.48808992  0.24900324  1
  O  O282  1  0.87085715  0.50782200  0.75531904  1
  O  O283  1  0.11792959  0.36922128  0.36298733  1
  O  O284  1  0.11871796  0.37080171  0.87140541  1
  O  O285  1  0.11944233  0.86561935  0.37118174  1
  O  O286  1  0.11322373  0.86634078  0.86333183  1
  O  O287  1  0.62356257  0.37511804  0.36176073  1
  O  O288  1  0.61739637  0.38124716  0.86906459  1
  O  O289  1  0.62115385  0.89774898  0.36943991  1
  O  O290  1  0.61643774  0.87393491  0.86827768  1
  O  O291  1  0.37996123  0.13067003  0.12689986  1
  O  O292  1  0.38796471  0.13846151  0.62216000  1
  O  O293  1  0.37318086  0.62239192  0.14002494  1
  O  O294  1  0.37837823  0.63078777  0.63061352  1
  O  O295  1  0.87875172  0.11922380  0.13349321  1
  O  O296  1  0.87179701  0.13759191  0.63213991  1
  O  O297  1  0.89063928  0.61810449  0.11735572  1
  O  O298  1  0.88423315  0.62541433  0.63070153  1
  O  O299  1  0.25538826  0.25672995  0.11951510  1
  O  O300  1  0.26227971  0.24842138  0.61388958  1
  O  O301  1  0.27377194  0.74243118  0.13859216  1
  O  O302  1  0.26488493  0.75584272  0.63102579  1
  O  O303  1  0.74587102  0.26131573  0.12027576  1
  O  O304  1  0.75469575  0.25766840  0.62236308  1
  O  O305  1  0.75989367  0.75289204  0.11234347  1
  O  O306  1  0.75163546  0.76682069  0.62627546  1
  O  O307  1  0.24586749  0.24234627  0.37661766  1
  O  O308  1  0.24459485  0.25090849  0.88013486  1
  O  O309  1  0.23823722  0.73996121  0.37018371  1
  O  O310  1  0.24485246  0.73685810  0.86670006  1
  O  O311  1  0.75532033  0.25068955  0.39167649  1
  O  O312  1  0.74630635  0.23735526  0.87791640  1
  O  O313  1  0.75428973  0.75159767  0.39100746  1
  O  O314  1  0.74899987  0.73614012  0.87310427  1
  O  O315  1  0.00473483  0.11273274  -0.00120445  1
  O  O316  1  0.00429104  0.12441628  0.50346807  1
  O  O317  1  0.00967497  0.61818534  0.00686190  1
  O  O318  1  0.00983858  0.61422804  0.50618434  1
  O  O319  1  0.50131650  0.11974611  0.00251894  1
  O  O320  1  0.50270443  0.12151964  0.51040758  1
  O  O321  1  0.50868436  0.60843650  -0.00795983  1
  O  O322  1  0.51023034  0.61662404  0.51399824  1
  O  O323  1  0.49930644  0.38256060  0.49971623  1
  O  O324  1  0.49793299  0.38085932  0.99594806  1
  O  O325  1  0.48833218  0.89085897  0.49672823  1
  O  O326  1  0.50244272  0.88175047  0.98723447  1
  O  O327  1  0.99958402  0.37661940  0.49326878  1
  O  O328  1  0.99663963  0.38143059  0.99731298  1
  O  O329  1  0.99292103  0.87585385  0.49117646  1
  O  O330  1  1.01272321  0.88486822  0.99040802  1
  O  O331  1  0.49270739  0.50016235  0.39273925  1
  O  O332  1  0.49471489  0.48889234  0.88265506  1
  O  O333  1  0.49028456  1.02095049  0.39449695  1
  O  O334  1  0.49190963  0.99373015  0.87640737  1
  O  O335  1  1.00688458  0.48881139  0.38706185  1
  O  O336  1  0.99537167  0.49544528  0.88321574  1
  O  O337  1  0.99004793  0.99201813  0.37779676  1
  O  O338  1  1.00341224  0.98657926  0.87825174  1
  O  O339  1  0.00364091  -0.00139758  0.10985722  1
  O  O340  1  0.00274174  0.00606088  0.62531697  1
  O  O341  1  0.00252169  0.50385597  0.11252391  1
  O  O342  1  0.01147212  0.50600964  0.61908530  1
  O  O343  1  0.49281666  0.00869875  0.11294467  1
  O  O344  1  0.49771662  0.01008310  0.62075947  1
  O  O345  1  0.51169667  0.49056859  0.11748308  1
  O  O346  1  0.50559197  0.50290264  0.61891564  1
  O  O347  1  0.24371146  0.38114971  0.24727066  1
  O  O348  1  0.24531156  0.38849495  0.75715225  1
  O  O349  1  0.24243071  0.88833778  0.25299531  1
  O  O350  1  0.24729219  0.88611606  0.73926831  1
  O  O351  1  0.74514157  0.37315233  0.24449252  1
  O  O352  1  0.74343490  0.38039181  0.74806972  1
  O  O353  1  0.73843315  0.87729791  0.24734614  1
  O  O354  1  0.74492385  0.88104295  0.75188824  1
  O  O355  1  0.25313300  0.11509249  0.25253998  1
  O  O356  1  0.24779661  0.11421076  0.74676619  1
  O  O357  1  0.25344057  0.61644097  0.26111438  1
  O  O358  1  0.25488786  0.61418592  0.75700820  1
  O  O359  1  0.76398217  0.13281238  0.25673752  1
  O  O360  1  0.74516288  0.12040570  0.76135584  1
  O  O361  1  0.75570782  0.60374707  0.24828639  1
  O  O362  1  0.75747131  0.61923987  0.75688120  1
  O  O363  1  0.36318379  0.13112977  0.36132288  1
  O  O364  1  0.37416072  0.11281050  0.87643910  1
  O  O365  1  0.36693187  0.61465024  0.37275312  1
  O  O366  1  0.36737311  0.62046289  0.87349779  1
  O  O367  1  0.87684127  0.11833487  0.36776690  1
  O  O368  1  0.85729368  0.12734258  0.87473495  1
  O  O369  1  0.85344960  0.61633441  0.42962428  1
  O  O370  1  0.87231378  0.62068844  0.87061514  1
  O  O371  1  0.13070680  0.37178960  0.13747805  1
  O  O372  1  0.12111016  0.38308310  0.62884961  1
  O  O373  1  0.11276069  0.86370393  0.14283963  1
  O  O374  1  0.14179908  0.86371046  0.62197289  1
  O  O375  1  0.63422124  0.37917548  0.13230393  1
  O  O376  1  0.62926688  0.38682343  0.63465458  1
  O  O377  1  0.62004121  0.87640585  0.12620248  1
  O  O378  1  0.63215563  0.87864236  0.64473738  1
  O  O379  1  0.12275857  0.25645096  0.25664236  1
  O  O380  1  0.11912599  0.25874420  0.75838299  1
  O  O381  1  0.11878626  0.75411085  0.26049441  1
  O  O382  1  0.12696790  0.74734620  0.75823201  1
  O  O383  1  0.61036083  0.25317611  0.24440325  1
  O  O384  1  0.61630574  0.26505543  0.74541842  1
  O  O385  1  0.62987637  0.73421328  0.24802987  1
  O  O386  1  0.61705427  0.75675027  0.75571459  1
  O  O387  1  0.37734720  0.24244996  0.24233472  1
  O  O388  1  0.38575174  0.25486561  0.74435413  1
  O  O389  1  0.38007163  0.73203944  0.25865089  1
  O  O390  1  0.37970814  0.74504544  0.74705333  1
  O  O391  1  0.88686975  0.23990117  0.25474406  1
  O  O392  1  0.88086840  0.24996743  0.74684475  1
  O  O393  1  0.88099587  0.74619926  0.25240643  1
  O  O394  1  0.87229855  0.73574853  0.74893480  1
  O  O395  1  0.38226056  0.49921794  0.49536503  1
  O  O396  1  0.38322124  0.49636342  0.99940132  1
  O  O397  1  0.38395096  0.98996134  0.50626886  1
  O  O398  1  0.38227512  0.99662427  0.98939216  1
  O  O399  1  0.89157989  0.48652613  0.51597140  1
  O  O400  1  0.88472965  0.49003750  0.99352621  1
  O  O401  1  0.87476268  0.99084543  0.49554174  1
  O  O402  1  0.89264614  0.98667304  0.99698686  1
  O  O403  1  0.11314488  0.01084065  -0.01112783  1
  O  O404  1  0.12708923  0.00772634  0.49136551  1
  O  O405  1  0.11575386  0.51449837  -0.00796917  1
  O  O406  1  0.12066965  0.50433952  0.50610169  1
  O  O407  1  0.60775418  0.01072083  -0.00122134  1
  O  O408  1  0.61008982  0.00886254  0.50657389  1
  O  O409  1  0.61892023  0.50200583  0.00914928  1
  O  O410  1  0.61946606  0.49990049  0.51070590  1
  O  O411  1  0.36958705  0.37157021  0.12199892  1
  O  O412  1  0.38016347  0.36222154  0.62515611  1
  O  O413  1  0.37229695  0.86752657  0.11372039  1
  O  O414  1  0.36821351  0.86782097  0.61945005  1
  O  O415  1  0.86741002  0.37658984  0.11500888  1
  O  O416  1  0.86665544  0.36770072  0.62276478  1
  O  O417  1  0.87978703  0.87389107  0.10838167  1
  O  O418  1  0.86763584  0.87592082  0.62019767  1
  O  O419  1  0.13486296  0.13453867  0.36992981  1
  O  O420  1  0.12620397  0.13600170  0.88235065  1
  O  O421  1  0.13065304  0.62859577  0.38158522  1
  O  O422  1  0.13065258  0.62953426  0.87836891  1
  O  O423  1  0.62841353  0.12693964  0.39352113  1
  O  O424  1  0.63304107  0.12508888  0.88353745  1
  O  O425  1  0.64265066  0.61494441  0.38530060  1
  O  O426  1  0.63576063  0.62277654  0.88379823  1
