# generated using pymatgen
data_V85Zn86O256
_symmetry_space_group_name_H-M   'P 1'
_cell_length_a   16.94765552
_cell_length_b   16.95360154
_cell_length_c   16.95185610
_cell_angle_alpha   90.02807649
_cell_angle_beta   90.02340408
_cell_angle_gamma   90.07140231
_symmetry_Int_Tables_number   1
_chemical_formula_structural   V85Zn86O256
_chemical_formula_sum   'V85 Zn86 O256'
_cell_volume   4870.66691473
_cell_formula_units_Z   1
loop_
 _symmetry_equiv_pos_site_id
 _symmetry_equiv_pos_as_xyz
  1  'x, y, z'
loop_
 _atom_site_type_symbol
 _atom_site_label
 _atom_site_symmetry_multiplicity
 _atom_site_fract_x
 _atom_site_fract_y
 _atom_site_fract_z
 _atom_site_occupancy
  V  V0  1  0.37145173  0.35856919  0.50538721  1
  V  V1  1  0.75044730  0.12397146  0.37275287  1
  V  V2  1  0.74670268  -0.00619140  0.23434540  1
  V  V3  1  0.87470995  0.37830162  0.00052810  1
  V  V4  1  0.87756931  0.49594776  0.37638273  1
  V  V5  1  0.49888864  0.49906305  0.49962317  1
  V  V6  1  0.62409190  0.37707583  0.75210925  1
  V  V7  1  0.61936497  0.74795082  0.36984067  1
  V  V8  1  0.00245603  0.12620829  0.12366877  1
  V  V9  1  0.00541505  0.74936346  0.25328052  1
  V  V10  1  0.24996939  0.00662259  0.25126516  1
  V  V11  1  0.00252491  0.36953224  0.37143394  1
  V  V12  1  0.74648837  0.25133014  0.00030258  1
  V  V13  1  0.00289585  0.24767200  0.75029230  1
  V  V14  1  0.49619792  0.12676010  0.62516278  1
  V  V15  1  0.75076163  0.24997094  0.49927798  1
  V  V16  1  0.43257422  0.67863099  0.67715330  1
  V  V17  1  0.87383986  -0.00223107  0.37359536  1
  V  V18  1  0.87367053  0.12318416  0.24693646  1
  V  V19  1  0.75123102  0.37166595  0.63079901  1
  V  V20  1  0.75010658  0.62840741  0.87659750  1
  V  V21  1  0.37237720  0.87160607  0.51282640  1
  V  V22  1  0.85850680  0.86619271  0.00166657  1
  V  V23  1  0.75167049  0.62603233  0.37480503  1
  V  V24  1  -0.00146465  0.50670713  -0.00064732  1
  V  V25  1  0.62201690  0.25028116  0.87832772  1
  V  V26  1  0.49475481  0.87020964  0.87175460  1
  V  V27  1  0.25397021  0.62438151  0.86413761  1
  V  V28  1  0.37513753  -0.00118698  0.37776956  1
  V  V29  1  0.62296178  0.62557488  -0.00175556  1
  V  V30  1  0.25258754  0.87303509  0.12317500  1
  V  V31  1  0.00363867  0.62498574  0.12739757  1
  V  V32  1  0.13503635  0.24914408  0.37635591  1
  V  V33  1  0.12215983  0.74985896  0.87608479  1
  V  V34  1  0.62644714  0.87261259  0.23935733  1
  V  V35  1  0.49925758  0.62560848  0.13044209  1
  V  V36  1  0.49861110  0.86923823  0.37250650  1
  V  V37  1  0.00206839  0.12197554  0.62436787  1
  V  V38  1  0.49863233  0.36670972  0.37014077  1
  V  V39  1  0.12967274  0.49037885  0.12465137  1
  V  V40  1  0.13588756  0.12752021  0.50222810  1
  V  V41  1  0.61889303  0.62356744  0.49995199  1
  V  V42  1  0.39536270  0.13231774  0.24959000  1
  V  V43  1  0.23991912  0.63728530  0.38025187  1
  V  V44  1  0.86858079  0.50268226  0.87669256  1
  V  V45  1  0.00206474  0.87076652  0.37464711  1
  V  V46  1  0.60842852  0.11283390  0.00991071  1
  V  V47  1  0.62594896  0.12303348  0.50143922  1
  V  V48  1  0.61338390  0.50197160  0.63135426  1
  V  V49  1  0.37231605  0.25412238  0.12476009  1
  V  V50  1  0.37100805  0.12845353  0.74777028  1
  V  V51  1  0.87319634  0.00093657  0.87537362  1
  V  V52  1  0.61928092  0.74730900  0.86855156  1
  V  V53  1  0.62094474  0.87464251  0.74518453  1
  V  V54  1  0.75038385  0.38292826  0.12528692  1
  V  V55  1  0.74826906  0.75307440  0.50717689  1
  V  V56  1  0.37801669  0.75038902  0.12326982  1
  V  V57  1  0.12629473  0.87358666  0.25212400  1
  V  V58  1  0.35282154  0.37525641  0.00552794  1
  V  V59  1  0.25062010  0.36923200  0.62316358  1
  V  V60  1  -0.00146744  0.87221456  0.87176310  1
  V  V61  1  0.13063857  0.87714337  0.74746587  1
  V  V62  1  0.49569166  0.49642111  0.00140166  1
  V  V63  1  0.00060871  0.37614821  0.87365662  1
  V  V64  1  0.49580798  0.25422160  0.74562169  1
  V  V65  1  0.49766340  0.37567502  0.87659003  1
  V  V66  1  0.25555874  0.12572941  0.88802611  1
  V  V67  1  0.74649114  0.12467403  0.87598012  1
  V  V68  1  0.12966698  0.00029140  0.12326273  1
  V  V69  1  0.87571093  0.25123601  0.12382618  1
  V  V70  1  0.25495018  0.75248012  -0.00112609  1
  V  V71  1  0.13231068  0.38629237  0.74547455  1
  V  V72  1  0.13273222  0.24981211  0.88014086  1
  V  V73  1  0.37864014  0.63098804  0.25610630  1
  V  V74  1  0.87401484  0.87470363  0.50756391  1
  V  V75  1  0.87740599  0.62753144  0.25410755  1
  V  V76  1  0.37406171  0.50124668  0.38078721  1
  V  V77  1  0.62070661  0.36956404  0.24729493  1
  V  V78  1  0.80393800  0.55363279  0.70602145  1
  V  V79  1  0.37780454  -0.00503061  0.87558258  1
  V  V80  1  0.24250883  0.75621442  0.51584811  1
  V  V81  1  0.00295726  -0.00234096  -0.00024922  1
  V  V82  1  0.01818097  0.49587940  0.50615670  1
  V  V83  1  0.37097955  0.50165024  0.86554063  1
  V  V84  1  0.25066440  0.49790317  0.24913156  1
  Zn  Zn85  1  0.00268342  0.24995247  0.24796001  1
  Zn  Zn86  1  0.25340383  -0.00371558  0.74469636  1
  Zn  Zn87  1  0.00123124  0.00310913  0.49822082  1
  Zn  Zn88  1  0.13147337  0.36830555  0.24583121  1
  Zn  Zn89  1  0.08499219  0.65147229  0.54669041  1
  Zn  Zn90  1  0.62757431  -0.00031239  0.62619848  1
  Zn  Zn91  1  0.94068495  0.69696484  0.67051788  1
  Zn  Zn92  1  0.12800362  0.62464787  -0.00009116  1
  Zn  Zn93  1  0.13199065  -0.00488517  0.61997271  1
  Zn  Zn94  1  0.87488034  0.12506633  0.74995441  1
  Zn  Zn95  1  0.62276784  0.24594343  0.36788002  1
  Zn  Zn96  1  0.87633150  0.24801243  0.62627689  1
  Zn  Zn97  1  0.13530939  0.13018116  0.00432630  1
  Zn  Zn98  1  0.50142440  -0.00201420  0.50233462  1
  Zn  Zn99  1  0.62361378  0.50023960  0.12676390  1
  Zn  Zn100  1  0.87805858  0.37182570  0.50213998  1
  Zn  Zn101  1  0.25556784  0.12946809  0.37858394  1
  Zn  Zn102  1  0.75171834  0.87661445  0.62832652  1
  Zn  Zn103  1  0.86548085  0.76072533  0.12576466  1
  Zn  Zn104  1  0.44130535  0.92935731  0.03570028  1
  Zn  Zn105  1  0.74767715  0.00065424  0.74891870  1
  Zn  Zn106  1  0.74883864  0.49764019  0.25408297  1
  Zn  Zn107  1  0.19299039  0.19127995  0.18719656  1
  Zn  Zn108  1  0.19044818  0.19232623  0.68636948  1
  Zn  Zn109  1  0.18835926  0.68393680  0.19029554  1
  Zn  Zn110  1  0.17877587  0.69433317  0.69418224  1
  Zn  Zn111  1  0.68679329  0.18754823  0.18434652  1
  Zn  Zn112  1  0.68452474  0.18761733  0.68928554  1
  Zn  Zn113  1  0.68777508  0.68936359  0.18735600  1
  Zn  Zn114  1  0.67348961  0.69027057  0.68434041  1
  Zn  Zn115  1  0.31496463  0.31262039  0.31007486  1
  Zn  Zn116  1  0.31278430  0.31375028  0.81279032  1
  Zn  Zn117  1  0.31342392  0.81316707  0.31122864  1
  Zn  Zn118  1  0.31566515  0.80430553  0.80321554  1
  Zn  Zn119  1  0.81256986  0.31054720  0.31031701  1
  Zn  Zn120  1  0.81388366  0.31175135  0.81225755  1
  Zn  Zn121  1  0.81192222  0.81164140  0.31359197  1
  Zn  Zn122  1  0.80710246  0.80991107  0.80719251  1
  Zn  Zn123  1  0.19435026  0.43281229  0.43438240  1
  Zn  Zn124  1  0.18273766  0.44365531  0.93058535  1
  Zn  Zn125  1  0.18713641  0.93824482  0.43913797  1
  Zn  Zn126  1  0.19302548  0.93913484  0.93504096  1
  Zn  Zn127  1  0.68545812  0.43397397  0.43801798  1
  Zn  Zn128  1  0.68689980  0.44235517  0.93790529  1
  Zn  Zn129  1  0.68769449  0.93702577  0.43348191  1
  Zn  Zn130  1  0.68094064  0.93763276  0.93655330  1
  Zn  Zn131  1  0.33967516  0.05520126  0.07432129  1
  Zn  Zn132  1  0.31160621  0.06036084  0.56717256  1
  Zn  Zn133  1  0.31119317  0.56573232  0.06061985  1
  Zn  Zn134  1  0.25835017  0.58064080  0.59119511  1
  Zn  Zn135  1  0.81169143  0.06247296  0.05640102  1
  Zn  Zn136  1  0.81328612  0.06094941  0.56516824  1
  Zn  Zn137  1  0.80286676  0.59143299  0.07455860  1
  Zn  Zn138  1  0.81009126  0.55731116  0.54295283  1
  Zn  Zn139  1  0.43459875  0.43702297  0.18736058  1
  Zn  Zn140  1  0.39163239  0.49139916  0.65353849  1
  Zn  Zn141  1  0.44109269  0.94015271  0.20027710  1
  Zn  Zn142  1  0.44211328  0.94231570  0.69102895  1
  Zn  Zn143  1  0.93966802  0.43973207  0.18998792  1
  Zn  Zn144  1  0.94597646  0.43289587  0.68222730  1
  Zn  Zn145  1  0.93624559  0.93690758  0.18440324  1
  Zn  Zn146  1  0.94021951  0.93837216  0.69128858  1
  Zn  Zn147  1  0.06309922  0.06318465  0.31309539  1
  Zn  Zn148  1  0.06650170  0.06322004  0.81447226  1
  Zn  Zn149  1  0.06483135  0.55882589  0.31720738  1
  Zn  Zn150  1  0.06165464  0.56770346  0.80517338  1
  Zn  Zn151  1  0.56674925  0.05430688  0.31531801  1
  Zn  Zn152  1  0.55940989  0.05998694  0.81603702  1
  Zn  Zn153  1  0.56280537  0.55588253  0.31132060  1
  Zn  Zn154  1  0.55352429  0.56363739  0.80937348  1
  Zn  Zn155  1  0.44130585  0.18514803  0.43527618  1
  Zn  Zn156  1  0.43291993  0.19249574  0.94012622  1
  Zn  Zn157  1  0.43433008  0.68854833  0.44885251  1
  Zn  Zn158  1  0.43709451  0.68736137  0.93592633  1
  Zn  Zn159  1  0.93905925  0.18685277  0.43942863  1
  Zn  Zn160  1  0.93867442  0.18760769  0.93792429  1
  Zn  Zn161  1  0.94338386  0.69232315  0.45723385  1
  Zn  Zn162  1  0.93743972  0.69219543  0.83213764  1
  Zn  Zn163  1  0.06355101  0.31453217  0.05951103  1
  Zn  Zn164  1  0.06650408  0.31104935  0.56200325  1
  Zn  Zn165  1  0.06072623  0.81085118  0.06110344  1
  Zn  Zn166  1  0.05634401  0.81687663  0.56255265  1
  Zn  Zn167  1  0.55818003  0.30768623  0.06678931  1
  Zn  Zn168  1  0.56164971  0.31297961  0.56161087  1
  Zn  Zn169  1  0.56710558  0.80230476  0.05910786  1
  Zn  Zn170  1  0.55548917  0.80882555  0.56359140  1
  O  O171  1  0.12001147  0.12154403  0.12341567  1
  O  O172  1  0.11967920  0.12915437  0.61768122  1
  O  O173  1  0.11569808  0.61646300  0.12646649  1
  O  O174  1  0.15450207  0.61385791  0.62290861  1
  O  O175  1  0.62670399  0.13020600  0.10816634  1
  O  O176  1  0.61901236  0.12455847  0.61706207  1
  O  O177  1  0.61494252  0.62198945  0.11786074  1
  O  O178  1  0.63094420  0.60885769  0.61510372  1
  O  O179  1  0.38084537  0.38123761  0.38020889  1
  O  O180  1  0.37686080  0.37949496  0.88909316  1
  O  O181  1  0.38198750  0.88209856  0.37513863  1
  O  O182  1  0.38383476  0.87913837  0.86210231  1
  O  O183  1  0.88232332  0.37956566  0.37496501  1
  O  O184  1  0.88055735  0.38212205  0.87947097  1
  O  O185  1  0.87983985  0.88269680  0.37981025  1
  O  O186  1  0.88078356  0.88301902  0.88410343  1
  O  O187  1  0.25827164  0.00080754  0.36770973  1
  O  O188  1  0.25499124  0.01025353  0.86492513  1
  O  O189  1  0.25878347  0.51104652  0.37327371  1
  O  O190  1  0.25486990  0.51610229  0.87902624  1
  O  O191  1  0.76067334  0.00439718  0.36768499  1
  O  O192  1  0.75677752  0.00899305  0.87605716  1
  O  O193  1  0.75894443  0.50608235  0.38032466  1
  O  O194  1  0.76171086  0.50197059  0.87040783  1
  O  O195  1  0.24137383  0.51143933  0.13574902  1
  O  O196  1  0.27365736  0.47419298  0.63112784  1
  O  O197  1  0.25025484  0.99392599  0.13249616  1
  O  O198  1  0.24406909  1.00240076  0.63277334  1
  O  O199  1  0.75164639  0.49071640  0.12416729  1
  O  O200  1  0.74799133  0.49512112  0.63334365  1
  O  O201  1  0.75464121  1.00398678  0.13585643  1
  O  O202  1  0.74666496  0.99650753  0.63013978  1
  O  O203  1  0.00447249  0.37140441  0.25746990  1
  O  O204  1  0.01118251  0.36770061  0.75281322  1
  O  O205  1  0.00349272  0.86836501  0.25405660  1
  O  O206  1  0.00754550  0.88178484  0.76753017  1
  O  O207  1  0.50747257  0.38250511  0.25822913  1
  O  O208  1  0.50766700  0.36512380  0.75959644  1
  O  O209  1  0.50811720  0.87720225  0.26458517  1
  O  O210  1  0.51069919  0.87703786  0.75846272  1
  O  O211  1  0.49312906  0.12018619  0.25316701  1
  O  O212  1  0.49307510  0.13186476  0.74504009  1
  O  O213  1  0.49174911  0.61801499  0.24218643  1
  O  O214  1  0.49611648  0.62493979  0.73562890  1
  O  O215  1  0.99437393  0.12276934  0.23616199  1
  O  O216  1  1.00249666  0.13207182  0.74459826  1
  O  O217  1  1.00061787  0.63244555  0.25035100  1
  O  O218  1  0.99452149  0.63434604  0.75172078  1
  O  O219  1  0.37164654  0.26565237  0.00894514  1
  O  O220  1  0.37781428  0.26058843  0.49352248  1
  O  O221  1  0.36754728  0.74441145  0.01067521  1
  O  O222  1  0.36431112  0.76665040  0.49467027  1
  O  O223  1  0.86917713  0.25806219  0.00392553  1
  O  O224  1  0.86201989  0.25021819  0.50122112  1
  O  O225  1  0.87567691  0.76908940  -0.00087011  1
  O  O226  1  0.85908955  0.76327882  0.48868623  1
  O  O227  1  0.12038328  0.24026551  0.48877968  1
  O  O228  1  0.12051731  0.24890289  0.98515898  1
  O  O229  1  0.13969438  0.75621787  0.50172711  1
  O  O230  1  0.13246798  0.74897707  0.99143692  1
  O  O231  1  0.63492871  0.24029632  0.49855062  1
  O  O232  1  0.62930360  0.24854781  0.99403628  1
  O  O233  1  0.62975934  0.74553255  0.48892045  1
  O  O234  1  0.62415552  0.73157960  0.98991918  1
  O  O235  1  0.47563181  0.26763233  0.13180661  1
  O  O236  1  0.50812931  0.24092467  0.63536575  1
  O  O237  1  0.49217954  0.73398846  0.11917894  1
  O  O238  1  0.48914431  0.72841798  0.60660903  1
  O  O239  1  0.99550320  0.24180929  0.12196369  1
  O  O240  1  1.00110194  0.24160108  0.63338816  1
  O  O241  1  0.99657037  0.74006339  0.13209688  1
  O  O242  1  0.99402067  0.72292856  0.57448642  1
  O  O243  1  0.00394981  0.25903648  0.37422657  1
  O  O244  1  0.00620171  0.25605850  0.86972017  1
  O  O245  1  -0.00500624  0.76321440  0.36941824  1
  O  O246  1  0.01087689  0.76189522  0.88893498  1
  O  O247  1  0.50386758  0.26271108  0.37676608  1
  O  O248  1  0.50424275  0.25706468  0.87143973  1
  O  O249  1  0.50779852  0.75565021  0.38134173  1
  O  O250  1  0.51029678  0.75113473  0.87404262  1
  O  O251  1  0.23962509  0.12382284  0.49808284  1
  O  O252  1  0.25734159  0.12050968  0.99018540  1
  O  O253  1  0.25920858  0.64548249  0.48874848  1
  O  O254  1  0.24715602  0.63786455  0.99501533  1
  O  O255  1  0.74516449  0.13116255  0.49524329  1
  O  O256  1  0.74467742  0.13173555  0.98975472  1
  O  O257  1  0.74218735  0.63238303  0.48994993  1
  O  O258  1  0.73493835  0.60847571  0.98292958  1
  O  O259  1  0.25526994  0.38015797  -0.00361858  1
  O  O260  1  0.26402653  0.37328364  0.50443007  1
  O  O261  1  0.24559216  0.86168917  0.00693732  1
  O  O262  1  0.26063211  0.86610760  0.49368175  1
  O  O263  1  0.75409430  0.37261318  0.00673854  1
  O  O264  1  0.74855193  0.36682145  0.51126079  1
  O  O265  1  0.75901970  0.87701257  -0.00553029  1
  O  O266  1  0.75574861  0.86908641  0.49962586  1
  O  O267  1  0.13324768  0.49900724  0.24222620  1
  O  O268  1  0.12234395  0.48375075  0.75706260  1
  O  O269  1  0.13301144  0.99641923  0.24387737  1
  O  O270  1  0.12582275  0.98541282  0.75444633  1
  O  O271  1  0.62987673  0.48719445  0.24660977  1
  O  O272  1  0.61616052  0.49144088  0.74108848  1
  O  O273  1  0.63507881  0.98630458  0.25390609  1
  O  O274  1  0.62570196  0.99034361  0.75161068  1
  O  O275  1  0.36864314  0.01082444  0.26320674  1
  O  O276  1  0.37592062  0.01112607  0.75807046  1
  O  O277  1  0.37021238  0.50944282  0.25927291  1
  O  O278  1  0.38173997  0.48730696  0.76833315  1
  O  O279  1  0.86857073  0.00338342  0.25441447  1
  O  O280  1  0.87386386  0.00139284  0.76490508  1
  O  O281  1  0.87474923  0.50532815  0.26389118  1
  O  O282  1  0.87384786  0.49393790  0.75547799  1
  O  O283  1  0.11977409  0.36566395  0.37269897  1
  O  O284  1  0.12059487  0.36891884  0.86631608  1
  O  O285  1  0.11266774  0.88445170  0.36517123  1
  O  O286  1  0.11853082  0.87023517  0.87195806  1
  O  O287  1  0.61694837  0.37359255  0.36673086  1
  O  O288  1  0.62012429  0.37108618  0.87191418  1
  O  O289  1  0.61712934  0.86555768  0.37148474  1
  O  O290  1  0.61941965  0.86474320  0.86777599  1
  O  O291  1  0.37129206  0.14135406  0.14306041  1
  O  O292  1  0.38566561  0.12433930  0.63304914  1
  O  O293  1  0.37955493  0.63060665  0.13383643  1
  O  O294  1  0.36945307  0.60756727  0.62951026  1
  O  O295  1  0.88242566  0.12960300  0.12572192  1
  O  O296  1  0.88554430  0.12742317  0.62898949  1
  O  O297  1  0.89768223  0.60563849  0.14060197  1
  O  O298  1  0.85443484  0.61052423  0.63783475  1
  O  O299  1  0.26986609  0.26264371  0.14387012  1
  O  O300  1  0.25809559  0.26722799  0.63413964  1
  O  O301  1  0.25632497  0.75157153  0.11992956  1
  O  O302  1  0.24932466  0.75504139  0.61408501  1
  O  O303  1  0.75659682  0.26184875  0.11886955  1
  O  O304  1  0.75000334  0.25549153  0.61850064  1
  O  O305  1  0.77334754  0.69675399  0.11900014  1
  O  O306  1  0.74187507  0.75188027  0.61047206  1
  O  O307  1  0.23889475  0.24880247  0.37036434  1
  O  O308  1  0.24336800  0.24059813  0.87149284  1
  O  O309  1  0.25064372  0.73934845  0.37246824  1
  O  O310  1  0.24788559  0.74340081  0.88181622  1
  O  O311  1  0.74856665  0.24329122  0.38233312  1
  O  O312  1  0.74385276  0.24542851  0.88093580  1
  O  O313  1  0.74227246  0.74154323  0.38071951  1
  O  O314  1  0.73578996  0.73665852  0.86961566  1
  O  O315  1  0.00093835  0.11507224  0.00932641  1
  O  O316  1  0.00698737  0.12410826  0.50917138  1
  O  O317  1  0.00275583  0.61229923  0.01057051  1
  O  O318  1  0.00879769  0.59901585  0.47668327  1
  O  O319  1  0.50995095  0.13014200  -0.00355544  1
  O  O320  1  0.50832798  0.12565553  0.50769118  1
  O  O321  1  0.50205905  0.61348862  0.00528224  1
  O  O322  1  0.50513442  0.60733168  0.48814465  1
  O  O323  1  0.49386649  0.37993753  0.49153634  1
  O  O324  1  0.49795947  0.38660523  0.99642107  1
  O  O325  1  0.48805215  0.87580052  0.49083268  1
  O  O326  1  0.50630332  0.86161138  0.98135698  1
  O  O327  1  0.99937575  0.37995691  0.49186350  1
  O  O328  1  0.99498454  0.38626524  0.99448308  1
  O  O329  1  0.99191730  0.88129209  0.48971844  1
  O  O330  1  0.99928634  0.88762912  0.99347642  1
  O  O331  1  0.49369405  0.48911409  0.37938280  1
  O  O332  1  0.49104887  0.49641331  0.88409858  1
  O  O333  1  0.49196031  0.99094601  0.38012420  1
  O  O334  1  0.48984657  0.98696420  0.87408240  1
  O  O335  1  0.99644039  0.48421718  0.37656503  1
  O  O336  1  0.99129503  0.49719736  0.88193301  1
  O  O337  1  0.98710522  0.99230763  0.36974139  1
  O  O338  1  0.99403436  0.99822884  0.88367685  1
  O  O339  1  0.00699806  0.00627822  0.11825288  1
  O  O340  1  0.00554605  0.01293897  0.62679333  1
  O  O341  1  0.01049864  0.50184280  0.11917049  1
  O  O342  1  -0.00181243  0.49718452  0.60476016  1
  O  O343  1  0.44315868  0.00624868  0.11291499  1
  O  O344  1  0.50509696  0.01345840  0.62220472  1
  O  O345  1  0.49702715  0.50910143  0.11767968  1
  O  O346  1  0.50447696  0.49234860  0.61161720  1
  O  O347  1  0.25113569  0.39407086  0.25947703  1
  O  O348  1  0.23666801  0.37196831  0.74865009  1
  O  O349  1  0.24675432  0.88445315  0.24458188  1
  O  O350  1  0.23358750  0.87335422  0.75672646  1
  O  O351  1  0.74593152  0.37695335  0.24061910  1
  O  O352  1  0.74160998  0.36580230  0.73825898  1
  O  O353  1  0.74106492  0.88138152  0.25330101  1
  O  O354  1  0.73540271  0.87717072  0.74873824  1
  O  O355  1  0.25318956  0.11307037  0.25330556  1
  O  O356  1  0.26463921  0.13133005  0.75575284  1
  O  O357  1  0.25743907  0.61896509  0.26225837  1
  O  O358  1  0.25119562  0.63334908  0.76628870  1
  O  O359  1  0.75385672  0.11824216  0.25418597  1
  O  O360  1  0.75088305  0.12745819  0.76455573  1
  O  O361  1  0.75349311  0.61978423  0.26546990  1
  O  O362  1  0.74019102  0.61831978  0.75664687  1
  O  O363  1  0.37611724  0.11863548  0.36694809  1
  O  O364  1  0.37242286  0.11954048  0.86895047  1
  O  O365  1  0.37154801  0.61940168  0.37122382  1
  O  O366  1  0.36312680  0.61669496  0.88083382  1
  O  O367  1  0.87225330  0.11734365  0.36834207  1
  O  O368  1  0.86675391  0.11825258  0.87680299  1
  O  O369  1  0.86890288  0.61854010  0.37457116  1
  O  O370  1  0.86105335  0.61635178  0.87700246  1
  O  O371  1  0.12399528  0.38610936  0.12625584  1
  O  O372  1  0.13303318  0.37138395  0.63712606  1
  O  O373  1  0.13050971  0.88087878  0.13154580  1
  O  O374  1  0.11052458  0.87439644  0.64468687  1
  O  O375  1  0.63306142  0.37679451  0.12905371  1
  O  O376  1  0.63127038  0.38461640  0.62827626  1
  O  O377  1  0.61792525  0.86268708  0.13992918  1
  O  O378  1  0.62071713  0.87535048  0.63166688  1
  O  O379  1  0.12143550  0.24882483  0.25927613  1
  O  O380  1  0.11646353  0.25477243  0.76060637  1
  O  O381  1  0.11310084  0.75586929  0.24538345  1
  O  O382  1  0.12466732  0.76305811  0.76644307  1
  O  O383  1  0.63115172  0.26429482  0.24972680  1
  O  O384  1  0.61565649  0.25401539  0.75911569  1
  O  O385  1  0.63083106  0.75387974  0.26271430  1
  O  O386  1  0.62284010  0.75933070  0.75649000  1
  O  O387  1  0.37941377  0.23612212  0.25433516  1
  O  O388  1  0.38911152  0.24462285  0.75824593  1
  O  O389  1  0.37105915  0.73666634  0.24335738  1
  O  O390  1  0.38110316  0.74435978  0.73467892  1
  O  O391  1  0.87742884  0.24096700  0.24128853  1
  O  O392  1  0.89098817  0.24895105  0.75193653  1
  O  O393  1  0.88631118  0.74527696  0.24858168  1
  O  O394  1  0.88571726  0.75645351  0.75211616  1
  O  O395  1  0.38297043  0.49111303  0.48697598  1
  O  O396  1  0.37732444  0.49100370  0.99533779  1
  O  O397  1  0.37296895  0.99083534  0.49030038  1
  O  O398  1  0.35929293  0.99192504  0.97811205  1
  O  O399  1  0.88305079  0.49311823  0.48678112  1
  O  O400  1  0.88067495  0.49644185  0.99260444  1
  O  O401  1  0.87559947  0.99362394  0.48917783  1
  O  O402  1  0.88305071  0.99594250  0.99089368  1
  O  O403  1  0.11970659  0.00332455  0.00526468  1
  O  O404  1  0.12071030  0.01012951  0.49982765  1
  O  O405  1  0.11733737  0.50214078  0.00642287  1
  O  O406  1  0.11806987  0.48870853  0.49891324  1
  O  O407  1  0.62169443  0.01338929  -0.00304145  1
  O  O408  1  0.62542478  0.01275043  0.49773751  1
  O  O409  1  0.61286371  0.50738051  0.00112318  1
  O  O410  1  0.61707550  0.50082707  0.50642851  1
  O  O411  1  0.37001427  0.37873650  0.11042099  1
  O  O412  1  0.37997925  0.37260543  0.60681815  1
  O  O413  1  0.37298096  0.85801029  0.13091661  1
  O  O414  1  0.38229487  0.88254225  0.61029119  1
  O  O415  1  0.86971268  0.37275353  0.12104532  1
  O  O416  1  0.86540973  0.37070797  0.62380483  1
  O  O417  1  0.87715011  0.87706164  0.10819327  1
  O  O418  1  0.87790361  0.88108202  0.61123079  1
  O  O419  1  0.12475801  0.13211294  0.38281021  1
  O  O420  1  0.13655917  0.13234004  0.87793833  1
  O  O421  1  0.14200506  0.62230329  0.37473143  1
  O  O422  1  0.13567456  0.63304469  0.87660693  1
  O  O423  1  0.63146003  0.12611973  0.38188750  1
  O  O424  1  0.62997603  0.13119738  0.88231575  1
  O  O425  1  0.63092146  0.62868149  0.37791379  1
  O  O426  1  0.62556633  0.62707040  0.87827703  1
