# generated using pymatgen
data_V85Zn86O256
_symmetry_space_group_name_H-M   'P 1'
_cell_length_a   16.90398014
_cell_length_b   16.89805772
_cell_length_c   16.89687536
_cell_angle_alpha   89.96781294
_cell_angle_beta   90.05657113
_cell_angle_gamma   89.95283881
_symmetry_Int_Tables_number   1
_chemical_formula_structural   V85Zn86O256
_chemical_formula_sum   'V85 Zn86 O256'
_cell_volume   4826.49361494
_cell_formula_units_Z   1
loop_
 _symmetry_equiv_pos_site_id
 _symmetry_equiv_pos_as_xyz
  1  'x, y, z'
loop_
 _atom_site_type_symbol
 _atom_site_label
 _atom_site_symmetry_multiplicity
 _atom_site_fract_x
 _atom_site_fract_y
 _atom_site_fract_z
 _atom_site_occupancy
  V  V0  1  0.87432346  0.25252576  0.62339191  1
  V  V1  1  0.87561885  0.74344327  0.12383948  1
  V  V2  1  0.74949374  0.24951924  0.49989227  1
  V  V3  1  0.25282433  0.63201891  0.37947824  1
  V  V4  1  -0.00653768  0.50857630  0.00612982  1
  V  V5  1  0.26174107  -0.00149215  0.76501780  1
  V  V6  1  0.62810084  0.61932422  0.50241838  1
  V  V7  1  0.74990108  0.61662978  0.87612100  1
  V  V8  1  0.00125734  0.25253338  0.75346993  1
  V  V9  1  0.00198035  0.24978912  0.25143985  1
  V  V10  1  0.62318759  0.37162086  0.24879467  1
  V  V11  1  0.12610946  0.62020917  0.01477265  1
  V  V12  1  0.88249325  0.87217321  -0.00301745  1
  V  V13  1  0.49733414  0.37072195  0.87640236  1
  V  V14  1  0.87500489  0.37715068  -0.01255227  1
  V  V15  1  0.00193084  0.74642935  0.24539883  1
  V  V16  1  -0.00133471  -0.00070587  0.50358160  1
  V  V17  1  0.88208109  -0.00537843  0.87304463  1
  V  V18  1  0.13777848  -0.00247453  0.62496912  1
  V  V19  1  0.49858804  0.37368466  0.37498983  1
  V  V20  1  0.12705082  0.87771011  0.25071432  1
  V  V21  1  0.87324782  0.38524306  0.49598548  1
  V  V22  1  0.62011212  0.24816601  0.86862568  1
  V  V23  1  0.50502061  0.75055806  0.75135068  1
  V  V24  1  0.35751091  0.86988256  0.49452690  1
  V  V25  1  0.50293250  0.87671122  0.87451222  1
  V  V26  1  0.37434185  0.87779181  -0.00858484  1
  V  V27  1  0.37349185  0.13666014  0.76006097  1
  V  V28  1  0.87619071  0.61775725  0.75473900  1
  V  V29  1  0.37824706  0.75032493  0.12400610  1
  V  V30  1  0.61619788  0.49895702  0.11922449  1
  V  V31  1  0.37713324  0.00961698  0.37381982  1
  V  V32  1  0.74333099  0.00056494  0.74646677  1
  V  V33  1  0.87917311  0.61914545  0.25386289  1
  V  V34  1  0.37946837  0.50164049  0.88119876  1
  V  V35  1  0.12372795  0.74979307  0.87713911  1
  V  V36  1  0.36995599  0.36143888  0.50305545  1
  V  V37  1  0.12715539  0.12529577  -0.00826629  1
  V  V38  1  0.87394041  0.12515771  0.74826203  1
  V  V39  1  0.12828882  0.87719973  0.75081198  1
  V  V40  1  0.50179981  0.62494540  0.62574194  1
  V  V41  1  0.50457156  -0.01309386  0.50422595  1
  V  V42  1  0.25354752  0.50059417  0.74995382  1
  V  V43  1  0.61755815  0.38167675  0.74204918  1
  V  V44  1  0.12816237  0.75249064  0.37902393  1
  V  V45  1  0.87607192  -0.00247692  0.37911102  1
  V  V46  1  0.13887609  0.12834542  0.49789254  1
  V  V47  1  0.49083072  0.12671216  0.13025922  1
  V  V48  1  0.25203768  0.36288431  0.62237349  1
  V  V49  1  0.61710061  0.62551594  -0.00448372  1
  V  V50  1  0.74564377  0.74967330  -0.00642497  1
  V  V51  1  0.25198094  0.87746646  0.12673722  1
  V  V52  1  0.25458455  0.01438712  0.25392238  1
  V  V53  1  0.75330404  0.49818882  0.25628243  1
  V  V54  1  0.24326106  0.50193227  0.24595378  1
  V  V55  1  0.37319002  0.50128358  0.37762004  1
  V  V56  1  0.74790857  0.12424570  0.37649133  1
  V  V57  1  -0.00020783  0.62758328  0.62512267  1
  V  V58  1  0.87503874  0.12448315  0.24959732  1
  V  V59  1  0.12577512  0.49963221  0.62529959  1
  V  V60  1  0.74706833  0.87982927  0.62005038  1
  V  V61  1  0.87559121  0.75625800  0.62348646  1
  V  V62  1  0.00136682  0.12263616  0.12201888  1
  V  V63  1  -0.00501501  0.87495810  0.37800194  1
  V  V64  1  0.62587277  0.87428013  0.75120459  1
  V  V65  1  0.74987031  -0.00128452  0.24875905  1
  V  V66  1  0.74743769  0.12370672  0.87650686  1
  V  V67  1  -0.00131354  0.38043298  0.37509565  1
  V  V68  1  0.12982259  0.63241098  0.50302340  1
  V  V69  1  0.48574541  0.24713861  0.24680519  1
  V  V70  1  0.25752717  0.24447753  -0.00151183  1
  V  V71  1  0.50117917  0.49802363  0.50614896  1
  V  V72  1  0.36525079  0.75553750  0.62375591  1
  V  V73  1  0.62226413  0.75012700  0.37631106  1
  V  V74  1  -0.00261857  0.75864079  0.75662770  1
  V  V75  1  0.37977431  0.37685666  0.01046677  1
  V  V76  1  0.48757156  0.13308452  0.62602331  1
  V  V77  1  0.50102779  0.75144998  0.25214197  1
  V  V78  1  0.75493401  0.75309710  0.49838409  1
  V  V79  1  0.13593498  0.24868813  0.37744209  1
  V  V80  1  0.75224756  0.37381691  0.12183337  1
  V  V81  1  0.62288554  0.12132741  0.50974367  1
  V  V82  1  0.50007778  0.00220679  -0.00226733  1
  V  V83  1  0.62331292  0.87517412  0.25280734  1
  V  V84  1  0.24057112  0.37555464  0.12281741  1
  Zn  Zn85  1  0.00172410  0.38631024  0.87174198  1
  Zn  Zn86  1  0.12947434  0.25257369  0.87353046  1
  Zn  Zn87  1  0.37724460  0.62536670  0.24981612  1
  Zn  Zn88  1  0.12795428  0.00153586  0.12358994  1
  Zn  Zn89  1  0.74999511  0.24946421  -0.00137706  1
  Zn  Zn90  1  0.25052538  0.62521388  0.87666830  1
  Zn  Zn91  1  0.74952013  0.87393504  0.12295248  1
  Zn  Zn92  1  0.62470350  0.00148306  0.12528684  1
  Zn  Zn93  1  0.75532409  0.62004954  0.37785773  1
  Zn  Zn94  1  0.00339671  0.12580622  0.62381109  1
  Zn  Zn95  1  0.12514358  0.37458732  0.75126380  1
  Zn  Zn96  1  0.87609693  0.25120619  0.12146294  1
  Zn  Zn97  1  0.62220182  0.24644516  0.37458668  1
  Zn  Zn98  1  0.49804779  0.62217593  0.12242750  1
  Zn  Zn99  1  0.00456888  -0.00352116  -0.00426574  1
  Zn  Zn100  1  -0.00234901  0.50438193  0.49576038  1
  Zn  Zn101  1  0.62418530  0.12646657  0.00236972  1
  Zn  Zn102  1  0.74146188  0.38323007  0.62158754  1
  Zn  Zn103  1  0.24976152  0.75033603  -0.00206637  1
  Zn  Zn104  1  0.37621299  0.62665889  0.75212093  1
  Zn  Zn105  1  0.12152621  0.37943994  0.24737845  1
  Zn  Zn106  1  0.74708337  0.49955185  0.74641569  1
  Zn  Zn107  1  0.18687281  0.19220650  0.18055608  1
  Zn  Zn108  1  0.18968130  0.18175658  0.68971720  1
  Zn  Zn109  1  0.19223500  0.69049883  0.19108327  1
  Zn  Zn110  1  0.18770301  0.68669848  0.69209518  1
  Zn  Zn111  1  0.68227326  0.18662629  0.18477996  1
  Zn  Zn112  1  0.68277044  0.19106044  0.68632414  1
  Zn  Zn113  1  0.69007615  0.68455808  0.18420251  1
  Zn  Zn114  1  0.68757619  0.68637182  0.68748830  1
  Zn  Zn115  1  0.31073369  0.31559346  0.31169881  1
  Zn  Zn116  1  0.31050029  0.31524242  0.81558887  1
  Zn  Zn117  1  0.31565010  0.81689514  0.31343827  1
  Zn  Zn118  1  0.31119883  0.81308820  0.81020083  1
  Zn  Zn119  1  0.81403719  0.31104145  0.31326865  1
  Zn  Zn120  1  0.80699368  0.31310623  0.80908439  1
  Zn  Zn121  1  0.81249772  0.81041884  0.31258518  1
  Zn  Zn122  1  0.81070981  0.80954399  0.81446199  1
  Zn  Zn123  1  0.18625597  0.43883211  0.43876271  1
  Zn  Zn124  1  0.18589944  0.43741429  0.93627971  1
  Zn  Zn125  1  0.18741379  0.94275898  0.43455385  1
  Zn  Zn126  1  0.18524209  0.93566174  0.93613807  1
  Zn  Zn127  1  0.68552659  0.43622026  0.43686868  1
  Zn  Zn128  1  0.68464267  0.43885577  0.93511528  1
  Zn  Zn129  1  0.68452905  0.93625794  0.43543925  1
  Zn  Zn130  1  0.68754187  0.93603696  0.93572532  1
  Zn  Zn131  1  0.31528206  0.06157994  0.06077360  1
  Zn  Zn132  1  0.31581895  0.05902943  0.56294362  1
  Zn  Zn133  1  0.31060842  0.56268189  0.06225747  1
  Zn  Zn134  1  0.31394359  0.56253501  0.56374151  1
  Zn  Zn135  1  0.81426232  0.06112207  0.06158142  1
  Zn  Zn136  1  0.81500416  0.06217334  0.56235139  1
  Zn  Zn137  1  0.80970206  0.56124828  0.06622933  1
  Zn  Zn138  1  0.81032252  0.56331169  0.56978847  1
  Zn  Zn139  1  0.43370511  0.43733210  0.18953121  1
  Zn  Zn140  1  0.43568988  0.43332077  0.68891559  1
  Zn  Zn141  1  0.43914106  0.93802691  0.18797005  1
  Zn  Zn142  1  0.43653033  0.93755045  0.68204100  1
  Zn  Zn143  1  0.93965516  0.43869611  0.18069592  1
  Zn  Zn144  1  0.93768043  0.43683809  0.68338400  1
  Zn  Zn145  1  0.93659581  0.93464977  0.18548070  1
  Zn  Zn146  1  0.93750407  0.93727138  0.68560834  1
  Zn  Zn147  1  0.06683813  0.06364375  0.31335544  1
  Zn  Zn148  1  0.06292684  0.06502104  0.80935054  1
  Zn  Zn149  1  0.06349594  0.56462415  0.31324634  1
  Zn  Zn150  1  0.06121892  0.56385227  0.81708087  1
  Zn  Zn151  1  0.55957044  0.06159782  0.31718932  1
  Zn  Zn152  1  0.55731130  0.06144625  0.80923350  1
  Zn  Zn153  1  0.56328727  0.56276935  0.31303159  1
  Zn  Zn154  1  0.56028888  0.56162878  0.81718225  1
  Zn  Zn155  1  0.44018627  0.18519563  0.43684920  1
  Zn  Zn156  1  0.43639699  0.18858378  0.93880574  1
  Zn  Zn157  1  0.43901283  0.69047761  0.43977022  1
  Zn  Zn158  1  0.43783841  0.69125513  0.93539609  1
  Zn  Zn159  1  0.94148771  0.18733671  0.43748680  1
  Zn  Zn160  1  0.93512012  0.18815131  0.93680112  1
  Zn  Zn161  1  0.93820087  0.68777504  0.43609856  1
  Zn  Zn162  1  0.93957476  0.68356260  0.93654032  1
  Zn  Zn163  1  0.06157291  0.31287313  0.05837603  1
  Zn  Zn164  1  0.06239416  0.31213159  0.56276596  1
  Zn  Zn165  1  0.06365564  0.81107508  0.06371757  1
  Zn  Zn166  1  0.06517394  0.81597521  0.56518578  1
  Zn  Zn167  1  0.56253927  0.30754716  0.05904605  1
  Zn  Zn168  1  0.55840110  0.30806372  0.56107474  1
  Zn  Zn169  1  0.56488201  0.81305493  0.06447804  1
  Zn  Zn170  1  0.56556214  0.81016105  0.56630416  1
  O  O171  1  0.11739367  0.12338773  0.11411326  1
  O  O172  1  0.12412058  0.11756647  0.61478722  1
  O  O173  1  0.12774168  0.63385295  0.11328214  1
  O  O174  1  0.12169113  0.62240218  0.61975736  1
  O  O175  1  0.61519468  0.12042225  0.12083391  1
  O  O176  1  0.61485819  0.12564058  0.61579079  1
  O  O177  1  0.62560362  0.61503537  0.11668752  1
  O  O178  1  0.61360364  0.63196187  0.61382814  1
  O  O179  1  0.37841729  0.38404812  0.38142212  1
  O  O180  1  0.38080919  0.38040532  0.88345569  1
  O  O181  1  0.37587177  0.87780812  0.39084546  1
  O  O182  1  0.38135991  0.87085161  0.88604404  1
  O  O183  1  0.88413749  0.36853242  0.38492114  1
  O  O184  1  0.87204425  0.37452837  0.88440484  1
  O  O185  1  0.88820068  0.87753086  0.37130062  1
  O  O186  1  0.86846516  0.88278154  0.88322295  1
  O  O187  1  0.26410855  -0.00466266  0.36721875  1
  O  O188  1  0.25074683  -0.00044860  0.86358948  1
  O  O189  1  0.25651397  0.50930355  0.37166668  1
  O  O190  1  0.26007308  0.49935186  0.86693348  1
  O  O191  1  0.75532785  0.00301374  0.36739661  1
  O  O192  1  0.75498934  0.00800358  0.86687611  1
  O  O193  1  0.74718038  0.49862281  0.36060636  1
  O  O194  1  0.74882141  0.51232937  0.86995970  1
  O  O195  1  0.25587286  0.49298824  0.13607284  1
  O  O196  1  0.24418608  0.49664297  0.63127551  1
  O  O197  1  0.25545851  0.98949411  0.13260500  1
  O  O198  1  0.24036827  1.00050041  0.63179374  1
  O  O199  1  0.74053160  0.48934858  0.13389154  1
  O  O200  1  0.74834698  0.49646205  0.63157897  1
  O  O201  1  0.74988336  0.99911352  0.13820544  1
  O  O202  1  0.75683563  0.98832577  0.63104699  1
  O  O203  1  -0.00029462  0.36741485  0.25505953  1
  O  O204  1  0.00091460  0.36795975  0.75060954  1
  O  O205  1  0.00666270  0.86974516  0.25681130  1
  O  O206  1  0.00598502  0.86497524  0.74719158  1
  O  O207  1  0.50570604  0.36884312  0.25276397  1
  O  O208  1  0.50810601  0.37456547  0.75845540  1
  O  O209  1  0.50855109  0.86219696  0.24738231  1
  O  O210  1  0.50620760  0.87267477  0.75312495  1
  O  O211  1  0.50515892  0.13168092  0.23986933  1
  O  O212  1  0.48696827  0.11514069  0.73488202  1
  O  O213  1  0.50015256  0.63710636  0.24799423  1
  O  O214  1  0.50041990  0.63253173  0.74313581  1
  O  O215  1  0.99700451  0.13061002  0.24469595  1
  O  O216  1  0.99079732  0.13153560  0.74561866  1
  O  O217  1  0.99441981  0.63445614  0.25369112  1
  O  O218  1  0.99442854  0.63569043  0.74529906  1
  O  O219  1  0.36462886  0.25797792  -0.00066279  1
  O  O220  1  0.37775747  0.26248369  0.49343238  1
  O  O221  1  0.37394630  0.75832432  0.00784621  1
  O  O222  1  0.37845447  0.76178628  0.50810308  1
  O  O223  1  0.87072724  0.26029639  0.00119656  1
  O  O224  1  0.86998118  0.25408553  0.50601692  1
  O  O225  1  0.87178592  0.75300875  0.00603466  1
  O  O226  1  0.86335749  0.74595371  0.50623849  1
  O  O227  1  0.11931859  0.23552966  0.49479349  1
  O  O228  1  0.13490072  0.24284847  0.99906054  1
  O  O229  1  0.12209462  0.74060465  0.49706565  1
  O  O230  1  0.12383180  0.74247678  0.99342048  1
  O  O231  1  0.63108652  0.24096027  0.49834634  1
  O  O232  1  0.63005612  0.24894165  0.98455749  1
  O  O233  1  0.63285000  0.74385280  0.49390670  1
  O  O234  1  0.63561262  0.74124261  1.00719572  1
  O  O235  1  0.50390990  0.23640404  0.13111626  1
  O  O236  1  0.49655340  0.23220566  0.62115710  1
  O  O237  1  0.49373724  0.74891631  0.13258453  1
  O  O238  1  0.49328189  0.74369583  0.63045820  1
  O  O239  1  1.00092728  0.23985807  0.13273990  1
  O  O240  1  0.99176507  0.24955439  0.63382761  1
  O  O241  1  0.99338371  0.75532963  0.13832259  1
  O  O242  1  0.99224322  0.74814902  0.63024300  1
  O  O243  1  0.00673653  0.25746478  0.36801612  1
  O  O244  1  -0.00355606  0.25073723  0.86077002  1
  O  O245  1  0.00539200  0.75782559  0.36799609  1
  O  O246  1  0.00698805  0.74739998  0.86616216  1
  O  O247  1  0.50149596  0.25503486  0.36632081  1
  O  O248  1  0.50536448  0.26093050  0.87779998  1
  O  O249  1  0.51386254  0.74564024  0.36978681  1
  O  O250  1  0.49586281  0.76363810  0.86425186  1
  O  O251  1  0.23777297  0.11970837  0.50159376  1
  O  O252  1  0.24544595  0.13640064  1.00706291  1
  O  O253  1  0.24272053  0.62228237  0.49199951  1
  O  O254  1  0.23776620  0.62830231  0.99897891  1
  O  O255  1  0.74169823  0.12781347  0.49857556  1
  O  O256  1  0.74732591  0.12337267  0.98926855  1
  O  O257  1  0.74342868  0.63202253  0.49974656  1
  O  O258  1  0.74468593  0.62951074  0.99400508  1
  O  O259  1  0.25605499  0.36968029  0.00661832  1
  O  O260  1  0.25808641  0.38191360  0.50976386  1
  O  O261  1  0.25820739  0.87571105  0.00757213  1
  O  O262  1  0.25871882  0.87513593  0.49902765  1
  O  O263  1  0.75652520  0.37784269  0.00577920  1
  O  O264  1  0.75574458  0.36759012  0.49833078  1
  O  O265  1  0.75751871  0.86648280  0.00037919  1
  O  O266  1  0.74346372  0.86719683  0.50854846  1
  O  O267  1  0.13892926  0.49909568  0.25658622  1
  O  O268  1  0.13123880  0.50347697  0.73903216  1
  O  O269  1  0.13533363  0.99443916  0.24963220  1
  O  O270  1  0.13292688  0.99624285  0.74573670  1
  O  O271  1  0.63031655  0.48908871  0.24484883  1
  O  O272  1  0.62080342  0.48499220  0.75430248  1
  O  O273  1  0.63165557  0.99191321  0.25435253  1
  O  O274  1  0.63685947  0.99399154  0.75130429  1
  O  O275  1  0.37238505  -0.00764816  0.26633097  1
  O  O276  1  0.36406530  -0.00055074  0.74737423  1
  O  O277  1  0.36866619  0.50204109  0.26349119  1
  O  O278  1  0.36885828  0.50183496  0.75709230  1
  O  O279  1  0.86848419  0.00342615  0.25653870  1
  O  O280  1  0.86461908  0.00202874  0.75456242  1
  O  O281  1  0.86769024  0.50756631  0.24134270  1
  O  O282  1  0.87807362  0.51495906  0.74538598  1
  O  O283  1  0.11733545  0.36656659  0.37621586  1
  O  O284  1  0.12134877  0.37158655  0.87006188  1
  O  O285  1  0.11725862  0.87138943  0.37141983  1
  O  O286  1  0.12620103  0.86452149  0.86409240  1
  O  O287  1  0.61639934  0.37327317  0.36603703  1
  O  O288  1  0.61594295  0.36961293  0.86939275  1
  O  O289  1  0.62892422  0.86481956  0.36307086  1
  O  O290  1  0.62003309  0.87533406  0.86108698  1
  O  O291  1  0.39123022  0.12130261  0.12492687  1
  O  O292  1  0.38263375  0.12288787  0.63059839  1
  O  O293  1  0.37564148  0.63809560  0.12534012  1
  O  O294  1  0.38596545  0.63672548  0.62271522  1
  O  O295  1  0.88164089  0.12770941  0.13072950  1
  O  O296  1  0.87554247  0.13682781  0.62918202  1
  O  O297  1  0.87124236  0.63625260  0.13437570  1
  O  O298  1  0.87912003  0.63850190  0.63178458  1
  O  O299  1  0.24974175  0.26108285  0.11255340  1
  O  O300  1  0.24242315  0.26417517  0.62818806  1
  O  O301  1  0.25935525  0.76219124  0.12618491  1
  O  O302  1  0.26655080  0.74505944  0.63065793  1
  O  O303  1  0.74870734  0.26306233  0.12423679  1
  O  O304  1  0.75602244  0.25414613  0.61694318  1
  O  O305  1  0.75880765  0.74984433  0.11455768  1
  O  O306  1  0.75573402  0.75719104  0.61841133  1
  O  O307  1  0.23564039  0.25412758  0.37070919  1
  O  O308  1  0.24911444  0.25479085  0.89343454  1
  O  O309  1  0.24592687  0.73954652  0.36896490  1
  O  O310  1  0.24137802  0.74805791  0.87577720  1
  O  O311  1  0.74840874  0.24204616  0.38258051  1
  O  O312  1  0.74372793  0.23589186  0.87204310  1
  O  O313  1  0.74185487  0.74791173  0.38254252  1
  O  O314  1  0.75254818  0.74055130  0.88773757  1
  O  O315  1  0.00575286  0.12416423  0.00656736  1
  O  O316  1  0.00742644  0.11242793  0.50078680  1
  O  O317  1  0.00891026  0.61787184  0.00279242  1
  O  O318  1  0.00739563  0.62480774  0.50572442  1
  O  O319  1  0.50006105  0.11810136  0.00818811  1
  O  O320  1  0.50367410  0.11635427  0.50861656  1
  O  O321  1  0.51292200  0.63181614  0.00105325  1
  O  O322  1  0.50663635  0.61858819  0.50566613  1
  O  O323  1  0.49394276  0.38198658  0.49681243  1
  O  O324  1  0.48978490  0.37071820  0.99374864  1
  O  O325  1  0.49998188  0.88497607  0.50460356  1
  O  O326  1  0.49637317  0.87827552  0.99295746  1
  O  O327  1  0.99153694  0.37589728  0.49286112  1
  O  O328  1  0.99043275  0.38226128  0.99703405  1
  O  O329  1  1.00783960  0.88766937  0.49163806  1
  O  O330  1  0.98720142  0.87639570  1.00462204  1
  O  O331  1  0.49261086  0.49605822  0.38270970  1
  O  O332  1  0.48729709  0.48916477  0.87236373  1
  O  O333  1  0.48835505  1.00165540  0.38905134  1
  O  O334  1  0.50307853  0.98660623  0.88114659  1
  O  O335  1  1.00578626  0.48560123  0.37574172  1
  O  O336  1  1.00414112  0.50160896  0.89429393  1
  O  O337  1  0.99722369  0.99325102  0.38039525  1
  O  O338  1  0.98535322  1.00357101  0.87261299  1
  O  O339  1  0.00010302  0.01235392  0.12540267  1
  O  O340  1  0.00873575  0.00012707  0.61820492  1
  O  O341  1  0.00751797  0.49366237  0.10645010  1
  O  O342  1  0.00902442  0.50807471  0.62234938  1
  O  O343  1  0.50219162  0.00841159  0.12001842  1
  O  O344  1  0.49484336  0.00716697  0.60869664  1
  O  O345  1  0.51196092  0.50173795  0.13249483  1
  O  O346  1  0.49215588  0.50831290  0.61412981  1
  O  O347  1  0.24872003  0.38353660  0.24124155  1
  O  O348  1  0.24966841  0.38563858  0.74160558  1
  O  O349  1  0.24612164  0.88072952  0.24357447  1
  O  O350  1  0.24357555  0.88792298  0.75147385  1
  O  O351  1  0.74410515  0.37817233  0.24417307  1
  O  O352  1  0.73196883  0.37677956  0.75057167  1
  O  O353  1  0.74506687  0.88286240  0.24995775  1
  O  O354  1  0.74413184  0.87939377  0.74493682  1
  O  O355  1  0.24616107  0.11317771  0.24132610  1
  O  O356  1  0.26385375  0.11210646  0.74663324  1
  O  O357  1  0.25422552  0.61906745  0.25863937  1
  O  O358  1  0.25414382  0.61264177  0.75139637  1
  O  O359  1  0.75262116  0.11851061  0.25511077  1
  O  O360  1  0.75242907  0.11735291  0.75213512  1
  O  O361  1  0.75757907  0.61487596  0.25042695  1
  O  O362  1  0.75777649  0.62830021  0.75806921  1
  O  O363  1  0.37398240  0.10877006  0.38203696  1
  O  O364  1  0.38583311  0.12293230  0.85886668  1
  O  O365  1  0.36890361  0.62049037  0.37706274  1
  O  O366  1  0.37405263  0.61699035  0.87463469  1
  O  O367  1  0.86938122  0.11945368  0.36945338  1
  O  O368  1  0.86559884  0.11806305  0.86823218  1
  O  O369  1  0.87308619  0.62968097  0.35987099  1
  O  O370  1  0.86588456  0.63108041  0.86535924  1
  O  O371  1  0.13609233  0.37311872  0.12587142  1
  O  O372  1  0.13172895  0.38500683  0.62413750  1
  O  O373  1  0.13524105  0.87718624  0.12992082  1
  O  O374  1  0.12307412  0.88207843  0.63959124  1
  O  O375  1  0.62932737  0.37981203  0.12877068  1
  O  O376  1  0.61896220  0.36803775  0.63877940  1
  O  O377  1  0.62920385  0.87718658  0.13869716  1
  O  O378  1  0.63515779  0.87176214  0.63700038  1
  O  O379  1  0.11492388  0.24974571  0.25705689  1
  O  O380  1  0.11569989  0.24746506  0.75094327  1
  O  O381  1  0.11848340  0.75533916  0.25658528  1
  O  O382  1  0.11873037  0.75668138  0.75520611  1
  O  O383  1  0.61989634  0.26213111  0.25057695  1
  O  O384  1  0.62589961  0.25924421  0.76137162  1
  O  O385  1  0.62294917  0.75308085  0.25612735  1
  O  O386  1  0.61308767  0.75670682  0.74499148  1
  O  O387  1  0.38640498  0.25554211  0.25104733  1
  O  O388  1  0.36736038  0.23636583  0.75279924  1
  O  O389  1  0.38457395  0.75146919  0.24420143  1
  O  O390  1  0.38504957  0.75240981  0.73863567  1
  O  O391  1  0.88627385  0.24342892  0.24882672  1
  O  O392  1  0.87776327  0.24753257  0.74107006  1
  O  O393  1  0.88162839  0.74472406  0.24311220  1
  O  O394  1  0.88132885  0.74609394  0.74400884  1
  O  O395  1  0.38167782  0.49658529  0.49081473  1
  O  O396  1  0.37027127  0.49145475  0.99214674  1
  O  O397  1  0.38004884  0.98690319  0.49444882  1
  O  O398  1  0.38866033  0.99057175  1.00386576  1
  O  O399  1  0.87541579  0.48881761  0.50311225  1
  O  O400  1  0.88492696  0.49617776  1.00548693  1
  O  O401  1  0.88506528  1.00272012  0.49269647  1
  O  O402  1  0.87506748  0.99016707  0.99106002  1
  O  O403  1  0.12368026  0.00700910  0.00212759  1
  O  O404  1  0.12166088  0.00766560  0.50618266  1
  O  O405  1  0.12119596  0.51586813  -0.00081172  1
  O  O406  1  0.12472308  0.51213572  0.51056039  1
  O  O407  1  0.61268962  -0.00243630  0.00120334  1
  O  O408  1  0.61195004  0.00418913  0.49568707  1
  O  O409  1  0.62903035  0.50935026  0.00875581  1
  O  O410  1  0.61509597  0.50779286  0.49564530  1
  O  O411  1  0.36693809  0.38037710  0.11469034  1
  O  O412  1  0.36453319  0.37926097  0.61592789  1
  O  O413  1  0.37213746  0.86747265  0.11785228  1
  O  O414  1  0.37807238  0.86358640  0.61238684  1
  O  O415  1  0.86593378  0.37348473  0.11640971  1
  O  O416  1  0.87378120  0.36473413  0.61554381  1
  O  O417  1  0.87175854  0.86318945  0.11853923  1
  O  O418  1  0.86603953  0.86318596  0.62930081  1
  O  O419  1  0.12216323  0.13164913  0.38885434  1
  O  O420  1  0.11997901  0.12786670  0.88774821  1
  O  O421  1  0.13228911  0.63110374  0.38385984  1
  O  O422  1  0.12703276  0.63748484  0.88117943  1
  O  O423  1  0.62980531  0.12429599  0.38789493  1
  O  O424  1  0.62870649  0.12998421  0.87284627  1
  O  O425  1  0.62878906  0.63035153  0.38574752  1
  O  O426  1  0.63259819  0.62284191  0.88400696  1
