# generated using pymatgen
data_V85Zn86O256
_symmetry_space_group_name_H-M   'P 1'
_cell_length_a   16.94130369
_cell_length_b   16.95534501
_cell_length_c   16.95034341
_cell_angle_alpha   89.98665563
_cell_angle_beta   90.02738259
_cell_angle_gamma   90.00563500
_symmetry_Int_Tables_number   1
_chemical_formula_structural   V85Zn86O256
_chemical_formula_sum   'V85 Zn86 O256'
_cell_volume   4868.91168286
_cell_formula_units_Z   1
loop_
 _symmetry_equiv_pos_site_id
 _symmetry_equiv_pos_as_xyz
  1  'x, y, z'
loop_
 _atom_site_type_symbol
 _atom_site_label
 _atom_site_symmetry_multiplicity
 _atom_site_fract_x
 _atom_site_fract_y
 _atom_site_fract_z
 _atom_site_occupancy
  V  V0  1  0.50287957  0.50120170  -0.00189802  1
  V  V1  1  0.37948704  0.86899466  0.50268859  1
  V  V2  1  0.87158196  0.36937465  -0.00175019  1
  V  V3  1  0.63655630  0.88547416  0.24951775  1
  V  V4  1  0.61975301  0.36837224  0.74431225  1
  V  V5  1  0.12410000  0.87202898  0.74611622  1
  V  V6  1  0.62191478  0.49122244  0.12380046  1
  V  V7  1  0.87023637  0.12167076  0.75021541  1
  V  V8  1  0.74881715  0.37214478  0.61774830  1
  V  V9  1  0.49480762  0.74288293  0.25202394  1
  V  V10  1  0.75567680  0.10770384  0.37933325  1
  V  V11  1  0.63841405  0.65489234  0.02684488  1
  V  V12  1  0.64103284  0.25011811  0.38411152  1
  V  V13  1  0.50110713  0.37384674  0.37598367  1
  V  V14  1  -0.05388489  0.67437610  0.06677126  1
  V  V15  1  0.24516938  0.24471579  0.00286338  1
  V  V16  1  -0.01409963  0.62616167  0.63472885  1
  V  V17  1  -0.01295281  0.76863280  0.22904052  1
  V  V18  1  0.50366148  0.87347089  0.37679955  1
  V  V19  1  0.62760011  0.37254694  0.25436217  1
  V  V20  1  0.63615474  0.13082751  0.00752183  1
  V  V21  1  0.25449351  0.87226421  0.62418100  1
  V  V22  1  0.49777936  0.36622460  0.86915299  1
  V  V23  1  0.87492672  0.24620313  0.12308466  1
  V  V24  1  0.50206005  0.24821819  0.25433206  1
  V  V25  1  0.48933747  0.75491180  0.74068384  1
  V  V26  1  0.50495855  0.12214253  0.12781196  1
  V  V27  1  0.01371974  0.12372146  0.12264948  1
  V  V28  1  0.87168415  0.24730846  0.62190389  1
  V  V29  1  0.75068608  0.36619066  0.12447186  1
  V  V30  1  0.87014833  -0.00289869  0.87895366  1
  V  V31  1  0.37425225  0.37349410  0.00001901  1
  V  V32  1  0.37420416  0.50512818  0.87443809  1
  V  V33  1  0.87267321  0.49994097  0.87444690  1
  V  V34  1  0.24600675  0.12370338  0.38125943  1
  V  V35  1  0.24659320  0.74860886  0.50254566  1
  V  V36  1  0.12122798  0.24633011  0.87880132  1
  V  V37  1  -0.00155664  0.24755883  0.25306023  1
  V  V38  1  0.37824209  0.86845819  0.00582089  1
  V  V39  1  0.12653673  0.87807210  0.25602641  1
  V  V40  1  0.63445160  0.25189574  0.87897712  1
  V  V41  1  0.11123530  0.62094604  0.49908369  1
  V  V42  1  0.37497886  0.37636408  0.50000688  1
  V  V43  1  0.64585837  0.00161121  0.65281758  1
  V  V44  1  0.87985127  0.63030982  0.24815848  1
  V  V45  1  0.37608264  0.00081405  0.37862267  1
  V  V46  1  0.37554475  -0.00019454  0.87727392  1
  V  V47  1  0.37731695  0.12441388  0.25331341  1
  V  V48  1  -0.00012867  0.38111255  0.38094851  1
  V  V49  1  0.50247232  0.87355927  0.87105062  1
  V  V50  1  0.86762078  0.86263009  0.50363495  1
  V  V51  1  0.68475628  -0.05668567  0.06619362  1
  V  V52  1  0.01020699  0.12657613  0.62206273  1
  V  V53  1  0.50277240  -0.00143165  0.00929584  1
  V  V54  1  0.25037055  0.00021431  0.74923330  1
  V  V55  1  -0.00186593  0.00357296  0.49276772  1
  V  V56  1  0.24362724  0.87594895  0.12410305  1
  V  V57  1  0.24725036  0.24702473  0.50347236  1
  V  V58  1  0.63873312  0.74504395  0.37719885  1
  V  V59  1  0.62057604  0.74731377  0.86665783  1
  V  V60  1  0.00261861  0.88018650  0.87864514  1
  V  V61  1  0.37933133  0.13354619  0.75018374  1
  V  V62  1  0.12439167  0.37611623  0.25149459  1
  V  V63  1  0.73969210  0.62404033  0.87365860  1
  V  V64  1  0.25345831  0.50389373  0.24663297  1
  V  V65  1  0.24699177  0.12431221  0.87855533  1
  V  V66  1  0.75100564  0.49965568  0.74752979  1
  V  V67  1  0.12147881  0.37534524  0.75111188  1
  V  V68  1  0.49268574  0.62822434  0.61992511  1
  V  V69  1  0.12401036  0.24902309  0.37972599  1
  V  V70  1  0.63805228  0.62740420  0.50125626  1
  V  V71  1  0.24829900  0.00147766  0.24598154  1
  V  V72  1  0.37565248  0.50635677  0.37234196  1
  V  V73  1  0.12595588  0.75019534  0.87951270  1
  V  V74  1  0.87163571  0.10779298  0.25036569  1
  V  V75  1  0.87477975  0.37333162  0.49875725  1
  V  V76  1  0.11885127  0.50403103  0.12451250  1
  V  V77  1  0.37512803  0.24897016  0.12664544  1
  V  V78  1  0.01858136  0.00946310  -0.00185169  1
  V  V79  1  0.87598179  0.50840602  0.37861192  1
  V  V80  1  0.24885833  0.62821591  0.37131277  1
  V  V81  1  0.24837021  0.37704957  0.62411332  1
  V  V82  1  0.24649754  0.50384949  0.74896470  1
  V  V83  1  0.75126606  0.50545389  0.25389517  1
  V  V84  1  0.50915731  0.00131331  0.50565649  1
  Zn  Zn85  1  0.76710795  0.86168654  0.64354095  1
  Zn  Zn86  1  -0.00120336  0.25081940  0.74994489  1
  Zn  Zn87  1  0.50551057  0.12968655  0.62721148  1
  Zn  Zn88  1  0.11375560  0.74964183  0.37046706  1
  Zn  Zn89  1  0.50137688  0.50318781  0.49925081  1
  Zn  Zn90  1  -0.02221012  0.76119677  0.73449434  1
  Zn  Zn91  1  0.24702020  0.62745761  0.87492747  1
  Zn  Zn92  1  0.24897664  0.74527040  0.00358028  1
  Zn  Zn93  1  0.63314096  0.12562408  0.50572305  1
  Zn  Zn94  1  -0.00194358  0.49599378  0.00197904  1
  Zn  Zn95  1  -0.01161825  0.88009386  0.37634811  1
  Zn  Zn96  1  0.12363105  0.62705913  0.00105211  1
  Zn  Zn97  1  0.36855114  0.74024343  0.13486889  1
  Zn  Zn98  1  0.38232015  0.25673117  0.63329903  1
  Zn  Zn99  1  0.48968111  0.61264535  0.13663846  1
  Zn  Zn100  1  -0.00167373  0.37510104  0.87561940  1
  Zn  Zn101  1  0.11755306  0.49947905  0.61857211  1
  Zn  Zn102  1  0.62260653  0.49988753  0.62205959  1
  Zn  Zn103  1  0.12713828  0.00283151  0.61902026  1
  Zn  Zn104  1  0.75174365  0.12736289  0.87594620  1
  Zn  Zn105  1  0.36988457  0.62930772  0.74098416  1
  Zn  Zn106  1  0.24834629  0.37401997  0.12534915  1
  Zn  Zn107  1  0.18925518  0.18918148  0.19323144  1
  Zn  Zn108  1  0.19170328  0.19072780  0.69114445  1
  Zn  Zn109  1  0.18171538  0.69144158  0.18729269  1
  Zn  Zn110  1  0.18190570  0.68861752  0.68470850  1
  Zn  Zn111  1  0.69006405  0.18381718  0.19392707  1
  Zn  Zn112  1  0.68870425  0.18940475  0.68870124  1
  Zn  Zn113  1  0.68401325  0.68702104  0.19617368  1
  Zn  Zn114  1  0.68941032  0.68520718  0.68970680  1
  Zn  Zn115  1  0.31168785  0.31424782  0.31432525  1
  Zn  Zn116  1  0.30702684  0.31555972  0.81594549  1
  Zn  Zn117  1  0.31204470  0.81377067  0.31669592  1
  Zn  Zn118  1  0.31406499  0.81230256  0.81423710  1
  Zn  Zn119  1  0.81587335  0.31232632  0.31005700  1
  Zn  Zn120  1  0.81166616  0.31266061  0.80613163  1
  Zn  Zn121  1  0.81601190  0.81782643  0.31706389  1
  Zn  Zn122  1  0.80895418  0.81018018  0.81356978  1
  Zn  Zn123  1  0.18790071  0.44022875  0.43644449  1
  Zn  Zn124  1  0.18770306  0.43531716  0.93847718  1
  Zn  Zn125  1  0.18332472  0.94036592  0.44067183  1
  Zn  Zn126  1  0.18932160  0.93503788  0.93782305  1
  Zn  Zn127  1  0.69004358  0.44213964  0.43795327  1
  Zn  Zn128  1  0.68825362  0.43247706  0.93753545  1
  Zn  Zn129  1  0.69195505  0.93226125  0.44113363  1
  Zn  Zn130  1  0.68857625  0.93661166  0.82796554  1
  Zn  Zn131  1  0.31445848  0.06152979  0.06390609  1
  Zn  Zn132  1  0.31599891  0.05988367  0.56461083  1
  Zn  Zn133  1  0.31000582  0.56645767  0.06186837  1
  Zn  Zn134  1  0.30934875  0.56332032  0.55983783  1
  Zn  Zn135  1  0.82333153  0.06440153  0.05673112  1
  Zn  Zn136  1  0.81819345  0.05793625  0.56098005  1
  Zn  Zn137  1  0.80573464  0.55339757  0.06040004  1
  Zn  Zn138  1  0.81525363  0.55989580  0.56246916  1
  Zn  Zn139  1  0.43416386  0.43366122  0.18975063  1
  Zn  Zn140  1  0.43734737  0.44277298  0.68582853  1
  Zn  Zn141  1  0.43721287  0.93185551  0.19086445  1
  Zn  Zn142  1  0.43804076  0.94122499  0.68627949  1
  Zn  Zn143  1  0.93693034  0.43641226  0.19133733  1
  Zn  Zn144  1  0.93802033  0.44407123  0.68441849  1
  Zn  Zn145  1  0.94375449  0.93798502  0.18015842  1
  Zn  Zn146  1  0.93663535  0.94290778  0.68494181  1
  Zn  Zn147  1  0.06436903  0.06319770  0.31210876  1
  Zn  Zn148  1  0.06172590  0.06444646  0.80555298  1
  Zn  Zn149  1  0.05933699  0.56670792  0.30899766  1
  Zn  Zn150  1  0.05839189  0.56398405  0.81351022  1
  Zn  Zn151  1  0.56663211  0.06269658  0.31940544  1
  Zn  Zn152  1  0.55715879  0.07011125  0.82316841  1
  Zn  Zn153  1  0.56613150  0.56277008  0.31744037  1
  Zn  Zn154  1  0.56086824  0.56088283  0.80581311  1
  Zn  Zn155  1  0.43914145  0.18897907  0.44252622  1
  Zn  Zn156  1  0.43908520  0.18623784  0.93911083  1
  Zn  Zn157  1  0.43927281  0.68919949  0.43868197  1
  Zn  Zn158  1  0.44574582  0.68545044  0.94153827  1
  Zn  Zn159  1  0.93362368  0.18576463  0.43849441  1
  Zn  Zn160  1  0.93933102  0.18600573  0.93809582  1
  Zn  Zn161  1  0.93599002  0.69624257  0.42669651  1
  Zn  Zn162  1  0.91659755  0.70382797  0.89354189  1
  Zn  Zn163  1  0.06104590  0.31372339  0.06376614  1
  Zn  Zn164  1  0.06111685  0.31293908  0.56252557  1
  Zn  Zn165  1  0.05418676  0.82057938  0.06633694  1
  Zn  Zn166  1  0.05881553  0.81172115  0.55946518  1
  Zn  Zn167  1  0.55936300  0.31076475  0.06155254  1
  Zn  Zn168  1  0.55938258  0.30783785  0.56130732  1
  Zn  Zn169  1  0.57164437  0.80699107  0.06987535  1
  Zn  Zn170  1  0.60544596  0.79987523  0.58706106  1
  O  O171  1  0.11252160  0.12836077  0.13575955  1
  O  O172  1  0.11334349  0.13052813  0.63066079  1
  O  O173  1  0.13324453  0.60595695  0.12434828  1
  O  O174  1  0.12187185  0.62318607  0.60912794  1
  O  O175  1  0.61716783  0.13367533  0.12080857  1
  O  O176  1  0.62789554  0.11066412  0.62661535  1
  O  O177  1  0.61466421  0.60199142  0.12799586  1
  O  O178  1  0.61580793  0.62274926  0.61148810  1
  O  O179  1  0.37819024  0.38488436  0.38080223  1
  O  O180  1  0.38117483  0.38363400  0.87709777  1
  O  O181  1  0.38304594  0.88120893  0.38208280  1
  O  O182  1  0.38288152  0.88057861  0.88479804  1
  O  O183  1  0.88114940  0.38109893  0.38018122  1
  O  O184  1  0.87061446  0.37967868  0.88291932  1
  O  O185  1  0.87244362  0.87871497  0.39330837  1
  O  O186  1  0.88756322  0.89153913  0.87390201  1
  O  O187  1  0.25594974  0.00793747  0.37317914  1
  O  O188  1  0.25573313  0.00520188  0.87131316  1
  O  O189  1  0.25541329  0.50760879  0.36739541  1
  O  O190  1  0.25790659  0.49863959  0.86762462  1
  O  O191  1  0.74853358  0.00988762  0.37306491  1
  O  O192  1  0.76700652  0.00534766  0.88182247  1
  O  O193  1  0.75988703  0.49404564  0.36132765  1
  O  O194  1  0.74989806  0.49989977  0.86670943  1
  O  O195  1  0.24308618  0.49500707  0.13325634  1
  O  O196  1  0.24608849  0.49523453  0.63264935  1
  O  O197  1  0.25801066  0.99308906  0.13688050  1
  O  O198  1  0.24758495  0.99183752  0.62983770  1
  O  O199  1  0.74132354  0.48616688  0.13314549  1
  O  O200  1  0.74758506  0.49187284  0.63144560  1
  O  O201  1  0.75760878  0.99249262  0.11543079  1
  O  O202  1  0.74543020  0.99973991  0.63267695  1
  O  O203  1  0.00336634  0.36785361  0.26134013  1
  O  O204  1  0.01219800  0.37604253  0.74860153  1
  O  O205  1  0.01480346  0.88837021  0.26226414  1
  O  O206  1  0.00916376  0.87702956  0.75589231  1
  O  O207  1  0.50677280  0.36915891  0.25746893  1
  O  O208  1  0.50706060  0.38114211  0.75729346  1
  O  O209  1  0.50853583  0.86918454  0.26184101  1
  O  O210  1  0.49080949  0.86897940  0.75863557  1
  O  O211  1  0.49733393  0.12792637  0.24913094  1
  O  O212  1  0.48193495  0.12247375  0.75417162  1
  O  O213  1  0.50418550  0.63892338  0.25567535  1
  O  O214  1  0.49478962  0.63081516  0.73815086  1
  O  O215  1  0.99028670  0.12763568  0.24616550  1
  O  O216  1  0.99108379  0.12970459  0.73916757  1
  O  O217  1  0.98478187  0.63310506  0.24836410  1
  O  O218  1  1.00237519  0.62842682  0.73684302  1
  O  O219  1  0.36981544  0.25393933  0.00570947  1
  O  O220  1  0.36442970  0.26374469  0.49556114  1
  O  O221  1  0.37808539  0.76179835  -0.00022682  1
  O  O222  1  0.36714862  0.76341598  0.49344279  1
  O  O223  1  0.87768501  0.25210767  0.01446557  1
  O  O224  1  0.87702016  0.26413110  0.50521270  1
  O  O225  1  0.89921315  0.73704270  0.00496635  1
  O  O226  1  0.87895679  0.76297529  0.49923868  1
  O  O227  1  0.13951893  0.25616799  0.49595233  1
  O  O228  1  0.13382905  0.25533102  0.99288952  1
  O  O229  1  0.13121671  0.74107289  0.49328584  1
  O  O230  1  0.12532752  0.75370655  0.99252685  1
  O  O231  1  0.62402351  0.24434630  0.48780976  1
  O  O232  1  0.61923512  0.24265618  0.99204144  1
  O  O233  1  0.61803475  0.73905145  0.48438508  1
  O  O234  1  0.58862157  0.73953721  0.97620688  1
  O  O235  1  0.49408818  0.24457932  0.13406801  1
  O  O236  1  0.49307941  0.24170934  0.62014069  1
  O  O237  1  0.50118430  0.75070950  0.14590519  1
  O  O238  1  0.50986395  0.74567554  0.63330285  1
  O  O239  1  0.99418024  0.24318377  0.13134573  1
  O  O240  1  0.98929245  0.24424394  0.62260505  1
  O  O241  1  1.02220818  0.71622511  0.12377965  1
  O  O242  1  1.00712479  0.73379712  0.62604406  1
  O  O243  1  0.00513604  0.25511202  0.37304275  1
  O  O244  1  0.00776326  0.25390632  0.87309219  1
  O  O245  1  -0.00340893  0.76051698  0.35146127  1
  O  O246  1  0.01523774  0.76714227  0.87557663  1
  O  O247  1  0.50699852  0.25528627  0.37101568  1
  O  O248  1  0.50527759  0.26271538  0.87888704  1
  O  O249  1  0.50478259  0.75793614  0.36892335  1
  O  O250  1  0.49596032  0.75730659  0.86198696  1
  O  O251  1  0.25912621  0.13467474  0.49342664  1
  O  O252  1  0.25661456  0.13662047  0.99558286  1
  O  O253  1  0.24280964  0.63216398  0.49097599  1
  O  O254  1  0.24338918  0.62731616  0.99256414  1
  O  O255  1  0.75493006  0.12003360  0.48423263  1
  O  O256  1  0.73891470  0.12595250  1.00210603  1
  O  O257  1  0.73680874  0.62317940  0.50518833  1
  O  O258  1  0.72984401  0.61100063  0.99386858  1
  O  O259  1  0.25724708  0.36222919  0.00032838  1
  O  O260  1  0.25568862  0.37067970  0.50338477  1
  O  O261  1  0.25967655  0.87618665  0.00943034  1
  O  O262  1  0.25526590  0.86891109  0.50510476  1
  O  O263  1  0.76033270  0.37501249  0.01111490  1
  O  O264  1  0.75548584  0.37854303  0.51117151  1
  O  O265  1  0.72427727  0.88274138  0.00339244  1
  O  O266  1  0.76433354  0.88052208  0.51026035  1
  O  O267  1  0.13169687  0.49725829  0.24282179  1
  O  O268  1  0.13431546  0.49392404  0.75288879  1
  O  O269  1  0.14134691  0.99625267  0.25614740  1
  O  O270  1  0.13332609  0.98950377  0.74732194  1
  O  O271  1  0.63164652  0.49265200  0.24730479  1
  O  O272  1  0.63281193  0.48560186  0.74787058  1
  O  O273  1  0.62429594  0.98387657  0.25938778  1
  O  O274  1  0.62965323  1.00980660  0.75617700  1
  O  O275  1  0.36795761  0.00308548  0.25930168  1
  O  O276  1  0.36863243  0.00804181  0.75825357  1
  O  O277  1  0.36183335  0.49545170  0.25723856  1
  O  O278  1  0.36243085  0.50090451  0.75644239  1
  O  O279  1  0.88027560  0.00960739  0.24319627  1
  O  O280  1  0.88616549  0.01103173  0.76573576  1
  O  O281  1  0.86831004  0.50641635  0.25424328  1
  O  O282  1  0.85991681  0.48946009  0.75907435  1
  O  O283  1  0.11729361  0.37284537  0.37161977  1
  O  O284  1  0.12424023  0.36579104  0.86809287  1
  O  O285  1  0.13494270  0.87003916  0.36331202  1
  O  O286  1  0.12170853  0.87346701  0.86568908  1
  O  O287  1  0.62344038  0.36791310  0.37351726  1
  O  O288  1  0.61712860  0.36873207  0.86817316  1
  O  O289  1  0.62123064  0.86530425  0.37193391  1
  O  O290  1  0.60892790  0.86569772  0.87486612  1
  O  O291  1  0.38314226  0.13008200  0.13346759  1
  O  O292  1  0.36899125  0.12643441  0.64390625  1
  O  O293  1  0.37989629  0.62791833  0.12280274  1
  O  O294  1  0.38738634  0.62342013  0.61942225  1
  O  O295  1  0.88183787  0.13106181  0.13462814  1
  O  O296  1  0.88003172  0.13227909  0.62996124  1
  O  O297  1  0.87540113  0.62126008  0.12506934  1
  O  O298  1  0.88666041  0.62467839  0.62227911  1
  O  O299  1  0.25513889  0.24971281  0.11975429  1
  O  O300  1  0.25547645  0.25747882  0.61806928  1
  O  O301  1  0.25110524  0.76031939  0.12511519  1
  O  O302  1  0.24720675  0.75536004  0.61066325  1
  O  O303  1  0.75788159  0.25943818  0.13380317  1
  O  O304  1  0.76241660  0.25698288  0.62648186  1
  O  O305  1  0.67589052  0.73217696  0.09258767  1
  O  O306  1  0.70950673  0.76644566  0.62038700  1
  O  O307  1  0.24567949  0.24358676  0.38234886  1
  O  O308  1  0.24305715  0.24527596  0.88443630  1
  O  O309  1  0.24897154  0.74197329  0.38290092  1
  O  O310  1  0.23889901  0.75275753  0.87765816  1
  O  O311  1  0.74408635  0.24566586  0.36948042  1
  O  O312  1  0.73779772  0.25297506  0.87481113  1
  O  O313  1  0.73668227  0.74952064  0.37232061  1
  O  O314  1  0.73305756  0.73533135  0.87755204  1
  O  O315  1  0.00392624  0.11936693  0.00794115  1
  O  O316  1  -0.00615576  0.11615977  0.50862338  1
  O  O317  1  0.00046182  0.61492251  0.00160483  1
  O  O318  1  0.00988376  0.63157999  0.49802115  1
  O  O319  1  0.50670658  0.11672304  0.00647836  1
  O  O320  1  0.50364762  0.11386606  0.49839687  1
  O  O321  1  0.51310740  0.60832254  0.00368568  1
  O  O322  1  0.50637262  0.62471624  0.50510084  1
  O  O323  1  0.49109005  0.37875764  0.49344302  1
  O  O324  1  0.49345389  0.38160360  0.99172328  1
  O  O325  1  0.49376221  0.88075583  0.49032470  1
  O  O326  1  0.49583836  0.88168134  0.99886697  1
  O  O327  1  0.99375108  0.37413504  0.48825634  1
  O  O328  1  0.98456878  0.37440813  1.00000051  1
  O  O329  1  0.99559111  0.88445495  0.49687513  1
  O  O330  1  1.01008719  0.89408224  0.98685342  1
  O  O331  1  0.49074095  0.49384108  0.37352800  1
  O  O332  1  0.49500957  0.49129813  0.88041425  1
  O  O333  1  0.49520415  0.99255330  0.38122502  1
  O  O334  1  0.49656265  0.99336592  0.88832809  1
  O  O335  1  0.98973630  0.49135294  0.36654387  1
  O  O336  1  0.98669507  0.49564037  0.87528973  1
  O  O337  1  1.00263684  1.00513830  0.38911784  1
  O  O338  1  1.00069669  1.00055191  0.88186918  1
  O  O339  1  -0.00211792  0.00947237  0.10590099  1
  O  O340  1  0.00515500  0.01241592  0.61943013  1
  O  O341  1  0.01494481  0.49402866  0.12822952  1
  O  O342  1  0.00227993  0.51711767  0.62463552  1
  O  O343  1  0.49137499  0.00455634  0.11635427  1
  O  O344  1  0.49614141  0.01082465  0.61541574  1
  O  O345  1  0.50552355  0.49053883  0.11830302  1
  O  O346  1  0.50324163  0.51088989  0.62109577  1
  O  O347  1  0.24171906  0.38506237  0.25271302  1
  O  O348  1  0.24021483  0.38182032  0.74524603  1
  O  O349  1  0.24851008  0.88262575  0.24472817  1
  O  O350  1  0.24824475  0.87954208  0.74150865  1
  O  O351  1  0.74694274  0.38187960  0.24324551  1
  O  O352  1  0.74186868  0.37846936  0.73687496  1
  O  O353  1  0.73492600  0.86833586  0.25027834  1
  O  O354  1  0.74907148  0.87894451  0.75482520  1
  O  O355  1  0.25755150  0.11893071  0.25785623  1
  O  O356  1  0.25662775  0.11937200  0.75869936  1
  O  O357  1  0.24195292  0.61940146  0.26284858  1
  O  O358  1  0.25034315  0.61791256  0.75134905  1
  O  O359  1  0.76539894  0.12425098  0.25670669  1
  O  O360  1  0.76577220  0.13174548  0.75334667  1
  O  O361  1  0.75985796  0.61450516  0.24053017  1
  O  O362  1  0.73972621  0.61110218  0.75925404  1
  O  O363  1  0.36679184  0.12224241  0.37148324  1
  O  O364  1  0.36954534  0.12051218  0.86909393  1
  O  O365  1  0.36648482  0.61313182  0.38178723  1
  O  O366  1  0.37861933  0.61134611  0.87552501  1
  O  O367  1  0.86590072  0.12811158  0.36184287  1
  O  O368  1  0.87547790  0.12060350  0.86747087  1
  O  O369  1  0.87716075  0.61484883  0.36661736  1
  O  O370  1  0.85315481  0.60463405  0.88846708  1
  O  O371  1  0.12686637  0.38179989  0.13462002  1
  O  O372  1  0.12950045  0.37834676  0.63175838  1
  O  O373  1  0.13736865  0.87686398  0.13553364  1
  O  O374  1  0.13650228  0.87354379  0.63036795  1
  O  O375  1  0.63080745  0.37505577  0.13205715  1
  O  O376  1  0.63113633  0.37395847  0.62812150  1
  O  O377  1  0.62244088  0.88696551  0.13635938  1
  O  O378  1  0.61332058  0.91004860  0.62749045  1
  O  O379  1  0.11985607  0.25671058  0.25958647  1
  O  O380  1  0.12531709  0.26024069  0.75798310  1
  O  O381  1  0.11173827  0.76263882  0.24649570  1
  O  O382  1  0.12824199  0.76388086  0.75569100  1
  O  O383  1  0.62112629  0.25518140  0.26029896  1
  O  O384  1  0.62678136  0.26141632  0.75788294  1
  O  O385  1  0.61576130  0.75613696  0.26373682  1
  O  O386  1  0.60733938  0.74185113  0.76245973  1
  O  O387  1  0.38035214  0.24484757  0.24810766  1
  O  O388  1  0.36628123  0.23712532  0.75458356  1
  O  O389  1  0.39120295  0.75624256  0.25523682  1
  O  O390  1  0.38389705  0.74674422  0.75022279  1
  O  O391  1  0.88238868  0.24588693  0.23969900  1
  O  O392  1  0.87925383  0.24654523  0.73969944  1
  O  O393  1  0.87517651  0.74295240  0.24943932  1
  O  O394  1  0.88383589  0.73498451  0.78992000  1
  O  O395  1  0.37189015  0.48990521  0.49047626  1
  O  O396  1  0.38169627  0.49300467  0.99272402  1
  O  O397  1  0.38161643  0.98992730  0.49574884  1
  O  O398  1  0.38250163  0.99095004  0.99654586  1
  O  O399  1  0.86960005  0.48806507  0.48866093  1
  O  O400  1  0.87381991  0.48664818  0.99408914  1
  O  O401  1  0.89336695  0.99192119  0.50671886  1
  O  O402  1  0.89185098  1.01023329  0.98184142  1
  O  O403  1  0.11807301  0.00779340  -0.00651540  1
  O  O404  1  0.10865479  -0.00316198  0.50440026  1
  O  O405  1  0.12239339  0.49423900  0.01371568  1
  O  O406  1  0.12848306  0.51687282  0.49772070  1
  O  O407  1  0.61756423  0.01076839  0.00995369  1
  O  O408  1  0.61444168  0.00284224  0.49352491  1
  O  O409  1  0.61580135  0.48457486  0.01160650  1
  O  O410  1  0.62273147  0.51492848  0.49597463  1
  O  O411  1  0.37174024  0.36595019  0.11964306  1
  O  O412  1  0.36847008  0.37718271  0.61623973  1
  O  O413  1  0.36656874  0.87033660  0.12025195  1
  O  O414  1  0.36352307  0.87968492  0.61668975  1
  O  O415  1  0.86862510  0.36757048  0.12168917  1
  O  O416  1  0.87029434  0.37085719  0.61735759  1
  O  O417  1  0.95217289  0.83233369  0.14483308  1
  O  O418  1  0.88007300  0.87437137  0.61473989  1
  O  O419  1  0.13954658  0.13124703  0.37142404  1
  O  O420  1  0.13080595  0.13911068  0.86681140  1
  O  O421  1  0.12931516  0.62758586  0.38225436  1
  O  O422  1  0.12260134  0.63705650  0.87607719  1
  O  O423  1  0.64343570  0.13221643  0.37217233  1
  O  O424  1  0.62669526  0.13599574  0.88622988  1
  O  O425  1  0.62471825  0.63583001  0.38438679  1
  O  O426  1  0.62800378  0.62622450  0.87759090  1
