# generated using pymatgen
data_V85Zn86O256
_symmetry_space_group_name_H-M   'P 1'
_cell_length_a   16.93032538
_cell_length_b   16.93334716
_cell_length_c   16.93213992
_cell_angle_alpha   90.00164438
_cell_angle_beta   90.01538223
_cell_angle_gamma   90.06055081
_symmetry_Int_Tables_number   1
_chemical_formula_structural   V85Zn86O256
_chemical_formula_sum   'V85 Zn86 O256'
_cell_volume   4854.22281542
_cell_formula_units_Z   1
loop_
 _symmetry_equiv_pos_site_id
 _symmetry_equiv_pos_as_xyz
  1  'x, y, z'
loop_
 _atom_site_type_symbol
 _atom_site_label
 _atom_site_symmetry_multiplicity
 _atom_site_fract_x
 _atom_site_fract_y
 _atom_site_fract_z
 _atom_site_occupancy
  V  V0  1  0.88509778  0.73484042  0.63671088  1
  V  V1  1  0.25614030  0.49087507  0.74266357  1
  V  V2  1  0.62135239  0.36153345  0.74837114  1
  V  V3  1  -0.00578194  0.12342320  0.63534573  1
  V  V4  1  0.50199265  0.62859983  0.13063194  1
  V  V5  1  0.75468391  0.62397495  0.86816132  1
  V  V6  1  0.49742669  0.25641519  0.24725263  1
  V  V7  1  -0.00577306  0.88998854  0.37645308  1
  V  V8  1  0.62011512  0.74872771  0.37162556  1
  V  V9  1  0.24371374  0.36536023  0.13092378  1
  V  V10  1  0.75657266  0.12239904  0.37630140  1
  V  V11  1  0.49805278  0.49626859  0.00176579  1
  V  V12  1  0.87528653  0.88763153  0.49620864  1
  V  V13  1  0.87742491  0.37407857  0.50969237  1
  V  V14  1  0.38587132  0.75444010  0.63114838  1
  V  V15  1  0.37235794  0.49912376  0.87643562  1
  V  V16  1  0.24876547  0.00075004  0.25148563  1
  V  V17  1  0.24860579  0.00266538  0.74591796  1
  V  V18  1  0.75010880  0.87390598  0.12348854  1
  V  V19  1  0.88106068  0.48906644  0.37281035  1
  V  V20  1  0.87943626  0.87826742  -0.00510056  1
  V  V21  1  0.61707047  0.24292851  0.88819551  1
  V  V22  1  0.24941198  0.87525798  0.12454765  1
  V  V23  1  0.75198081  0.87200703  0.62742016  1
  V  V24  1  0.50205232  0.87142698  0.86698806  1
  V  V25  1  0.76521355  0.24495062  0.00369042  1
  V  V26  1  0.49785987  0.49235321  0.49069265  1
  V  V27  1  0.36695100  0.25801010  0.62562867  1
  V  V28  1  0.75444717  0.74879360  0.50044556  1
  V  V29  1  0.37982508  0.75115224  0.13467457  1
  V  V30  1  0.62549963  0.00651185  0.11984578  1
  V  V31  1  0.75643277  0.12739699  0.87284253  1
  V  V32  1  0.12384790  0.37504419  0.74928382  1
  V  V33  1  -0.00089917  0.75040352  0.25208542  1
  V  V34  1  0.87770925  0.62464043  0.24988465  1
  V  V35  1  0.62431095  0.62461266  -0.00279099  1
  V  V36  1  0.13262395  0.50636292  0.12614550  1
  V  V37  1  0.62943943  0.49324873  0.62742177  1
  V  V38  1  0.00496653  0.87133546  0.85492400  1
  V  V39  1  0.24913597  0.13176869  0.87826087  1
  V  V40  1  0.12323591  0.87706852  0.25193813  1
  V  V41  1  0.75196690  0.62340162  0.37246011  1
  V  V42  1  0.24229267  0.74348181  -0.00039014  1
  V  V43  1  0.87748372  0.12663003  0.24370905  1
  V  V44  1  0.75722820  0.00572910  0.74789389  1
  V  V45  1  0.76418531  0.37337059  0.11748396  1
  V  V46  1  0.13121206  0.49085243  0.61886287  1
  V  V47  1  0.62401065  0.00064051  0.62723353  1
  V  V48  1  0.49899177  0.00767237  0.50082663  1
  V  V49  1  0.12288098  0.75184198  0.37684208  1
  V  V50  1  0.87594148  0.49869330  0.88559392  1
  V  V51  1  0.87117721  0.25019634  0.63392177  1
  V  V52  1  0.12142064  0.00123707  0.62468627  1
  V  V53  1  0.25759921  0.62156711  0.37443325  1
  V  V54  1  0.87506737  0.74951521  0.12356387  1
  V  V55  1  -0.00365632  0.37413736  0.88356092  1
  V  V56  1  0.24925182  0.75593283  0.50341480  1
  V  V57  1  0.38226665  0.62719453  0.75274061  1
  V  V58  1  0.37619230  0.12595136  0.24810172  1
  V  V59  1  0.37187585  0.87842009  0.50567506  1
  V  V60  1  -0.00304204  0.26368444  0.24510283  1
  V  V61  1  0.37766629  0.87735079  0.00129468  1
  V  V62  1  0.24388362  0.13009884  0.37824972  1
  V  V63  1  0.00106273  0.49703788  0.49819022  1
  V  V64  1  0.75352170  0.49318139  0.74971146  1
  V  V65  1  0.11500008  0.26513912  0.37226894  1
  V  V66  1  0.00568793  0.62736537  0.11452849  1
  V  V67  1  0.12640266  0.13325594  -0.00017302  1
  V  V68  1  0.74976807  0.25660634  0.50236281  1
  V  V69  1  0.36607411  0.36618540  0.00127602  1
  V  V70  1  0.62008347  0.87254942  0.24851816  1
  V  V71  1  0.50047086  0.13412539  0.62895795  1
  V  V72  1  0.37996023  0.12943128  0.75240291  1
  V  V73  1  0.62405610  0.37497476  0.24744070  1
  V  V74  1  0.11279006  0.12440384  0.49878617  1
  V  V75  1  0.75552368  -0.00166103  0.25533382  1
  V  V76  1  0.12008819  0.00268885  0.12199796  1
  V  V77  1  0.11869147  0.62561990  0.50211445  1
  V  V78  1  0.19360810  0.83135402  0.68292903  1
  V  V79  1  0.62533902  0.25102363  0.37183446  1
  V  V80  1  0.62467611  0.62166529  0.50217127  1
  V  V81  1  0.75200763  0.49764406  0.24690669  1
  V  V82  1  0.49986935  0.87520716  0.37605552  1
  V  V83  1  0.74956052  0.74924351  -0.00471104  1
  V  V84  1  0.37509890  0.00448227  0.37750879  1
  Zn  Zn85  1  -0.00385573  0.25363935  0.75035052  1
  Zn  Zn86  1  0.38556969  0.62165590  0.25843100  1
  Zn  Zn87  1  0.50492982  0.12806374  0.12023288  1
  Zn  Zn88  1  0.61657577  0.74307249  0.86402745  1
  Zn  Zn89  1  0.25591049  0.49626887  0.25394739  1
  Zn  Zn90  1  0.62559723  0.12764533  0.49846156  1
  Zn  Zn91  1  0.00619264  0.50140323  0.00019938  1
  Zn  Zn92  1  0.62065826  0.86611369  0.74537658  1
  Zn  Zn93  1  0.87929041  0.00430329  0.86882067  1
  Zn  Zn94  1  0.49607921  0.36784827  0.87408852  1
  Zn  Zn95  1  0.62643624  0.49662642  0.12140264  1
  Zn  Zn96  1  -0.00658794  0.13272919  0.11936041  1
  Zn  Zn97  1  0.12720438  0.25484288  0.87773230  1
  Zn  Zn98  1  0.24086170  0.61921258  0.87912090  1
  Zn  Zn99  1  0.36681394  0.38839234  0.48230893  1
  Zn  Zn100  1  0.12131691  0.74964201  0.86353704  1
  Zn  Zn101  1  0.50587204  0.62670143  0.63165187  1
  Zn  Zn102  1  0.24159414  0.26054747  0.50942888  1
  Zn  Zn103  1  0.37604192  0.00141412  0.87574742  1
  Zn  Zn104  1  0.37132734  0.24570065  0.11974408  1
  Zn  Zn105  1  0.50737402  0.00354413  -0.00575936  1
  Zn  Zn106  1  -0.00011688  0.00223514  -0.00636474  1
  Zn  Zn107  1  0.18192946  0.18818414  0.19151424  1
  Zn  Zn108  1  0.18529296  0.18669679  0.69081473  1
  Zn  Zn109  1  0.18789902  0.68879567  0.18853392  1
  Zn  Zn110  1  0.19172101  0.66552616  0.68826260  1
  Zn  Zn111  1  0.69284336  0.18886912  0.18626239  1
  Zn  Zn112  1  0.68882197  0.18745279  0.68752212  1
  Zn  Zn113  1  0.68669365  0.68728831  0.18587059  1
  Zn  Zn114  1  0.68940300  0.68640772  0.68875929  1
  Zn  Zn115  1  0.30981045  0.31503906  0.31253604  1
  Zn  Zn116  1  0.31432508  0.31052140  0.81092792  1
  Zn  Zn117  1  0.31244403  0.81161190  0.31536544  1
  Zn  Zn118  1  0.31879114  0.80930418  0.81970650  1
  Zn  Zn119  1  0.81344968  0.31114559  0.30967132  1
  Zn  Zn120  1  0.80932007  0.31676621  0.81629617  1
  Zn  Zn121  1  0.81131278  0.81320428  0.31357275  1
  Zn  Zn122  1  0.81341161  0.81254759  0.81045189  1
  Zn  Zn123  1  0.19081748  0.43610168  0.43724180  1
  Zn  Zn124  1  0.18553059  0.43934517  0.94155242  1
  Zn  Zn125  1  0.18409990  0.94026818  0.44081564  1
  Zn  Zn126  1  0.18613800  0.93807995  0.93464675  1
  Zn  Zn127  1  0.68852056  0.43532188  0.43399392  1
  Zn  Zn128  1  0.68560564  0.43211601  0.93620270  1
  Zn  Zn129  1  0.68744379  0.93848326  0.43935968  1
  Zn  Zn130  1  0.68937742  0.93657804  0.93352012  1
  Zn  Zn131  1  0.31022293  0.06173575  0.06182999  1
  Zn  Zn132  1  0.30845444  0.07127737  0.56372274  1
  Zn  Zn133  1  0.31560630  0.56202461  0.06683612  1
  Zn  Zn134  1  0.31496660  0.56604897  0.56263357  1
  Zn  Zn135  1  0.80989930  0.06210847  0.06077494  1
  Zn  Zn136  1  0.81166839  0.06765088  0.56300235  1
  Zn  Zn137  1  0.81340152  0.56239146  0.06081552  1
  Zn  Zn138  1  0.81083210  0.55778006  0.56331746  1
  Zn  Zn139  1  0.43137416  0.43979703  0.19003860  1
  Zn  Zn140  1  0.44636939  0.43800519  0.68581489  1
  Zn  Zn141  1  0.43986284  0.93820669  0.18919640  1
  Zn  Zn142  1  0.43389686  0.94194326  0.68856122  1
  Zn  Zn143  1  0.94202771  0.44061912  0.18388673  1
  Zn  Zn144  1  0.96018530  0.47699860  0.70849459  1
  Zn  Zn145  1  0.93639607  0.93891630  0.18705884  1
  Zn  Zn146  1  0.93592326  0.93619017  0.67992024  1
  Zn  Zn147  1  0.05948102  0.06715425  0.30884641  1
  Zn  Zn148  1  0.06417567  0.05925032  0.81163740  1
  Zn  Zn149  1  0.06655720  0.56094285  0.31039311  1
  Zn  Zn150  1  0.05878013  0.58085098  0.80817096  1
  Zn  Zn151  1  0.56527281  0.06546099  0.30978645  1
  Zn  Zn152  1  0.56532572  0.06075634  0.81334905  1
  Zn  Zn153  1  0.56484874  0.55972958  0.31103026  1
  Zn  Zn154  1  0.56256195  0.55662454  0.81417284  1
  Zn  Zn155  1  0.42103282  0.22375832  0.42116203  1
  Zn  Zn156  1  0.43853272  0.18163650  0.94190695  1
  Zn  Zn157  1  0.43952836  0.68788063  0.44567454  1
  Zn  Zn158  1  0.43335746  0.68901113  0.94224166  1
  Zn  Zn159  1  0.93596572  0.18712765  0.43630586  1
  Zn  Zn160  1  0.94066310  0.18755710  0.93412044  1
  Zn  Zn161  1  0.93724656  0.68771971  0.43851147  1
  Zn  Zn162  1  0.93671926  0.69055871  0.93022780  1
  Zn  Zn163  1  0.06610471  0.31457334  0.06544882  1
  Zn  Zn164  1  0.05629362  0.31357821  0.56080425  1
  Zn  Zn165  1  0.06154935  0.81503307  0.06222857  1
  Zn  Zn166  1  0.05302791  0.81221851  0.55896371  1
  Zn  Zn167  1  0.56261517  0.31334830  0.06433225  1
  Zn  Zn168  1  0.56195836  0.31341787  0.56215964  1
  Zn  Zn169  1  0.56220581  0.81296109  0.05726024  1
  Zn  Zn170  1  0.56365492  0.81422327  0.55985577  1
  O  O171  1  0.12578672  0.11759018  0.11782292  1
  O  O172  1  0.11646965  0.12153460  0.61864505  1
  O  O173  1  0.11843572  0.61964626  0.12759454  1
  O  O174  1  0.13214653  0.60857822  0.61053958  1
  O  O175  1  0.62853154  0.10888953  0.13253238  1
  O  O176  1  0.61755199  0.11868026  0.62333992  1
  O  O177  1  0.62129136  0.62320724  0.11262903  1
  O  O178  1  0.62790770  0.61575998  0.61645896  1
  O  O179  1  0.38887129  0.33019446  0.38717192  1
  O  O180  1  0.37566033  0.38055303  0.88240744  1
  O  O181  1  0.38138399  0.88118468  0.38264994  1
  O  O182  1  0.38492334  0.87778889  0.88398547  1
  O  O183  1  0.86809521  0.38663188  0.38076707  1
  O  O184  1  0.88888375  0.37935934  0.87390428  1
  O  O185  1  0.88192357  0.87044148  0.38332553  1
  O  O186  1  0.88408311  0.87698311  0.87937723  1
  O  O187  1  0.25462707  0.01132269  0.37347410  1
  O  O188  1  0.24904788  0.00714394  0.86194647  1
  O  O189  1  0.24562771  0.51876242  0.37602316  1
  O  O190  1  0.26099232  0.49888540  0.87065437  1
  O  O191  1  0.74344654  0.00815082  0.36674867  1
  O  O192  1  0.74834404  0.00884920  0.86515796  1
  O  O193  1  0.75799249  0.50505000  0.36746612  1
  O  O194  1  0.75444974  0.50349109  0.87315068  1
  O  O195  1  0.24398624  0.49572180  0.12725244  1
  O  O196  1  0.24688040  0.50038938  0.63075676  1
  O  O197  1  0.23953199  0.99372944  0.13119660  1
  O  O198  1  0.24337276  1.00634526  0.63665887  1
  O  O199  1  0.74990150  0.48878385  0.12679912  1
  O  O200  1  0.73918015  0.49999300  0.63356862  1
  O  O201  1  0.74188118  0.99268952  0.13217566  1
  O  O202  1  0.74272369  0.99573412  0.62803698  1
  O  O203  1  -0.00656513  0.36263409  0.25096194  1
  O  O204  1  0.00926251  0.38078224  0.75961435  1
  O  O205  1  0.00224445  0.86961482  0.25618579  1
  O  O206  1  -0.00161920  0.87592470  0.75641567  1
  O  O207  1  0.50914479  0.36655545  0.24233085  1
  O  O208  1  0.51707773  0.37947192  0.75700766  1
  O  O209  1  0.51309350  0.87906624  0.25838506  1
  O  O210  1  0.49721404  0.87849020  0.76357087  1
  O  O211  1  0.49124540  0.13048120  0.24558687  1
  O  O212  1  0.49211424  0.11788456  0.74168293  1
  O  O213  1  0.50710702  0.62400372  0.23507514  1
  O  O214  1  0.48740120  0.61680661  0.75036318  1
  O  O215  1  0.99054594  0.13173463  0.24580685  1
  O  O216  1  1.00440905  0.13015525  0.73910779  1
  O  O217  1  0.99537334  0.63213067  0.24353453  1
  O  O218  1  0.98338659  0.58364833  0.73422628  1
  O  O219  1  0.37726714  0.26249109  0.00032043  1
  O  O220  1  0.36833112  0.23546995  0.52277410  1
  O  O221  1  0.36665620  0.76160786  0.00994539  1
  O  O222  1  0.36657472  0.75489718  0.51159915  1
  O  O223  1  0.86374247  0.24931453  -0.00145762  1
  O  O224  1  0.86843972  0.25684338  0.50305411  1
  O  O225  1  0.86903280  0.75637087  0.00508898  1
  O  O226  1  0.86233771  0.75375004  0.50096372  1
  O  O227  1  0.12119041  0.24469508  0.48767080  1
  O  O228  1  0.12340191  0.23718339  0.99988276  1
  O  O229  1  0.13007421  0.74393550  0.49934908  1
  O  O230  1  0.14134112  0.75485024  1.00602241  1
  O  O231  1  0.63113728  0.25149069  0.49040340  1
  O  O232  1  0.63140522  0.25256970  0.98982208  1
  O  O233  1  0.63529297  0.74247156  0.49587474  1
  O  O234  1  0.63200844  0.74110780  0.99477771  1
  O  O235  1  0.49837359  0.24705095  0.13485169  1
  O  O236  1  0.49531012  0.23718296  0.62116276  1
  O  O237  1  0.49214656  0.74214816  0.11759133  1
  O  O238  1  0.48956972  0.74735653  0.61842881  1
  O  O239  1  1.00591407  0.25043123  0.14042772  1
  O  O240  1  0.98930954  0.24371430  0.62698445  1
  O  O241  1  0.99589664  0.74526503  0.13129746  1
  O  O242  1  0.98398780  0.74885904  0.62079757  1
  O  O243  1  0.00938771  0.24595750  0.36680225  1
  O  O244  1  0.00258593  0.26161428  0.86967132  1
  O  O245  1  0.00578791  0.75549660  0.36968192  1
  O  O246  1  0.00046487  0.76554351  0.87391194  1
  O  O247  1  0.51929743  0.23811225  0.36080837  1
  O  O248  1  0.51370986  0.24722615  0.87911613  1
  O  O249  1  0.51385282  0.75505299  0.38486907  1
  O  O250  1  0.49790682  0.76651861  0.88380722  1
  O  O251  1  0.23729147  0.13289356  0.49266158  1
  O  O252  1  0.24187420  0.11808335  0.98900549  1
  O  O253  1  0.24554652  0.63674307  0.49283986  1
  O  O254  1  0.25847289  0.64077912  1.00117270  1
  O  O255  1  0.74857910  0.13548141  0.49150907  1
  O  O256  1  0.75039778  0.13811257  0.99485929  1
  O  O257  1  0.74177973  0.62891983  0.49375516  1
  O  O258  1  0.74186663  0.62739279  0.99241193  1
  O  O259  1  0.25653834  0.37920696  0.01298395  1
  O  O260  1  0.25602976  0.37204131  0.49844225  1
  O  O261  1  0.25605981  0.86917981  0.00633023  1
  O  O262  1  0.25423781  0.86340135  0.49449893  1
  O  O263  1  0.74658151  0.36470517  0.01082408  1
  O  O264  1  0.75702336  0.36318386  0.49429513  1
  O  O265  1  0.76027646  0.86940780  0.00045725  1
  O  O266  1  0.75250189  0.86675577  0.50711781  1
  O  O267  1  0.13200292  0.50504776  0.23483571  1
  O  O268  1  0.13716826  0.49061578  0.73715012  1
  O  O269  1  0.12974562  0.99661183  0.24378390  1
  O  O270  1  0.13324404  1.00269680  0.73593751  1
  O  O271  1  0.63374261  0.49206901  0.24632865  1
  O  O272  1  0.63103815  0.49063679  0.74502135  1
  O  O273  1  0.63502164  0.99172413  0.24390827  1
  O  O274  1  0.63224405  0.99505379  0.73790547  1
  O  O275  1  0.37071826  0.00610723  0.25787532  1
  O  O276  1  0.36693185  0.01254111  0.75072751  1
  O  O277  1  0.37042266  0.50955688  0.25011022  1
  O  O278  1  0.37371731  0.50005389  0.75646516  1
  O  O279  1  0.86191496  0.00477004  0.24768822  1
  O  O280  1  0.86092226  -0.00406018  0.74666871  1
  O  O281  1  0.87286623  0.50397794  0.25616154  1
  O  O282  1  0.85601307  0.48569833  0.76346174  1
  O  O283  1  0.12408991  0.36325344  0.37351634  1
  O  O284  1  0.11661460  0.37736374  0.86820926  1
  O  O285  1  0.11688351  0.87179232  0.37216225  1
  O  O286  1  0.10938026  0.87112476  0.87676434  1
  O  O287  1  0.63415518  0.36614274  0.35760066  1
  O  O288  1  0.62210228  0.35952130  0.86918317  1
  O  O289  1  0.62131567  0.86849033  0.36977364  1
  O  O290  1  0.61196993  0.87377975  0.87437505  1
  O  O291  1  0.36878447  0.12443710  0.13900613  1
  O  O292  1  0.38271743  0.12890233  0.63489260  1
  O  O293  1  0.38589818  0.63513163  0.12466439  1
  O  O294  1  0.37772245  0.63541959  0.63363755  1
  O  O295  1  0.87257897  0.12105864  0.13860587  1
  O  O296  1  0.88379880  0.13573274  0.61925182  1
  O  O297  1  0.88176313  0.62965305  0.13068486  1
  O  O298  1  0.86813355  0.63694061  0.61886859  1
  O  O299  1  0.24741182  0.26161161  0.12869487  1
  O  O300  1  0.26268855  0.24739668  0.62998847  1
  O  O301  1  0.25749304  0.75592194  0.11898623  1
  O  O302  1  0.25190150  0.75654327  0.62192141  1
  O  O303  1  0.74896165  0.25783507  0.11228781  1
  O  O304  1  0.75703020  0.24320643  0.61309421  1
  O  O305  1  0.75443293  0.75510042  0.11693624  1
  O  O306  1  0.75491926  0.75666997  0.61672987  1
  O  O307  1  0.23095362  0.23901913  0.36787136  1
  O  O308  1  0.24656266  0.23631753  0.86917924  1
  O  O309  1  0.24237956  0.74675594  0.38495037  1
  O  O310  1  0.24902116  0.75192261  0.89154832  1
  O  O311  1  0.74287705  0.24336710  0.37810486  1
  O  O312  1  0.74461758  0.24643013  0.88675009  1
  O  O313  1  0.74108629  0.74564139  0.38194766  1
  O  O314  1  0.75168714  0.74005425  0.87961137  1
  O  O315  1  0.00773888  0.12180158  0.00158407  1
  O  O316  1  0.00854604  0.12827341  0.50732809  1
  O  O317  1  -0.00557823  0.62826012  0.01233669  1
  O  O318  1  0.01178207  0.61859692  0.49378902  1
  O  O319  1  0.49346538  0.11407278  0.00926819  1
  O  O320  1  0.50117383  0.11400909  0.50695848  1
  O  O321  1  0.50639383  0.61904745  0.00595404  1
  O  O322  1  0.51442663  0.61853485  0.50263506  1
  O  O323  1  0.50141057  0.38989736  0.50154859  1
  O  O324  1  0.49174496  0.38267329  1.00061955  1
  O  O325  1  0.49519110  0.88812208  0.49540876  1
  O  O326  1  0.49300311  0.88147311  0.99382737  1
  O  O327  1  0.98936205  0.38239655  0.49353933  1
  O  O328  1  1.00734390  0.37558467  0.98671334  1
  O  O329  1  0.98735847  0.87409161  0.48886394  1
  O  O330  1  0.98716201  0.87697348  1.00028769  1
  O  O331  1  0.50842046  0.50362190  0.39195427  1
  O  O332  1  0.48923738  0.49807444  0.88669216  1
  O  O333  1  0.49536066  0.99931391  0.38217177  1
  O  O334  1  0.49881662  0.98877857  0.87625186  1
  O  O335  1  0.99166234  0.50670477  0.38243392  1
  O  O336  1  0.99249930  0.49033018  0.88070490  1
  O  O337  1  1.00152698  0.98906711  0.36973063  1
  O  O338  1  0.99806862  0.98710298  0.87346014  1
  O  O339  1  0.01202387  0.00178889  0.12546482  1
  O  O340  1  0.00773611  0.00916330  0.62727897  1
  O  O341  1  0.01035003  0.50974290  0.12377773  1
  O  O342  1  0.01312503  0.49369201  0.60405775  1
  O  O343  1  0.51867962  -0.00288247  0.12903775  1
  O  O344  1  0.50650439  0.00601598  0.61964564  1
  O  O345  1  0.50045236  0.50764442  0.11361062  1
  O  O346  1  0.51549039  0.50359257  0.61732989  1
  O  O347  1  0.25288267  0.37668514  0.23591399  1
  O  O348  1  0.24488850  0.38491795  0.75572694  1
  O  O349  1  0.24457009  0.88122966  0.24684620  1
  O  O350  1  0.25705186  0.88318061  0.75004679  1
  O  O351  1  0.74679148  0.37660112  0.23724112  1
  O  O352  1  0.73239352  0.38131217  0.75780000  1
  O  O353  1  0.74255642  0.88115847  0.24688261  1
  O  O354  1  0.74923769  0.88127696  0.73730024  1
  O  O355  1  0.25296246  0.11912883  0.25769662  1
  O  O356  1  0.25577124  0.11904941  0.75673059  1
  O  O357  1  0.25019594  0.63318169  0.26885499  1
  O  O358  1  0.26494631  0.60778153  0.75425953  1
  O  O359  1  0.75605619  0.11868471  0.25586661  1
  O  O360  1  0.74627199  0.11695192  0.75781190  1
  O  O361  1  0.75630089  0.61804566  0.25161838  1
  O  O362  1  0.74225501  0.61131228  0.76306571  1
  O  O363  1  0.36485972  0.12786300  0.36562920  1
  O  O364  1  0.36759474  0.12345278  0.86875440  1
  O  O365  1  0.36146651  0.63803943  0.37773341  1
  O  O366  1  0.37289767  0.61716719  0.87107597  1
  O  O367  1  0.86334899  0.12765167  0.36573108  1
  O  O368  1  0.86212881  0.12418885  0.87554366  1
  O  O369  1  0.86912806  0.61848631  0.36957302  1
  O  O370  1  0.86454740  0.61512350  0.87949989  1
  O  O371  1  0.13824437  0.38522784  0.12359997  1
  O  O372  1  0.12185020  0.38356697  0.62920498  1
  O  O373  1  0.12880322  0.88264506  0.13176439  1
  O  O374  1  0.12523996  0.88227648  0.61895722  1
  O  O375  1  0.63490921  0.37523706  0.13404045  1
  O  O376  1  0.62258084  0.37688603  0.63878896  1
  O  O377  1  0.63080059  0.87759609  0.13264403  1
  O  O378  1  0.63357999  0.88263077  0.62217981  1
  O  O379  1  0.10963030  0.24482790  0.26285570  1
  O  O380  1  0.12357321  0.26570361  0.74857664  1
  O  O381  1  0.12006103  0.75902158  0.25543981  1
  O  O382  1  0.14390722  0.75824068  0.73984853  1
  O  O383  1  0.62147265  0.25529028  0.25224637  1
  O  O384  1  0.62950106  0.25849267  0.75869927  1
  O  O385  1  0.63219214  0.75945561  0.25972269  1
  O  O386  1  0.62696798  0.75273064  0.75150305  1
  O  O387  1  0.38330378  0.24232185  0.24552525  1
  O  O388  1  0.37484033  0.23833882  0.74142806  1
  O  O389  1  0.37343570  0.74912138  0.23831521  1
  O  O390  1  0.36884464  0.74046673  0.74238261  1
  O  O391  1  0.88814635  0.24218213  0.25585464  1
  O  O392  1  0.87078009  0.25862723  0.73668207  1
  O  O393  1  0.87788602  0.74559997  0.24314084  1
  O  O394  1  0.86958702  0.74907640  0.73519879  1
  O  O395  1  0.39287568  0.50332757  0.50418657  1
  O  O396  1  0.37935111  0.49266832  0.99437825  1
  O  O397  1  0.37931962  1.00040588  0.49683049  1
  O  O398  1  0.37102777  0.98546200  1.00043916  1
  O  O399  1  0.88040186  0.49343101  0.49393716  1
  O  O400  1  0.87745428  0.49907155  0.98965524  1
  O  O401  1  0.86469484  0.98665817  0.50193849  1
  O  O402  1  0.87493347  0.99176012  0.99556310  1
  O  O403  1  0.12362815  0.00680896  0.00786282  1
  O  O404  1  0.13114227  0.01064043  0.51404630  1
  O  O405  1  0.12476215  0.50195450  0.01771645  1
  O  O406  1  0.12024629  0.50531811  0.49952912  1
  O  O407  1  0.63038165  -0.00753183  0.01725112  1
  O  O408  1  0.61819375  0.00224852  0.51018000  1
  O  O409  1  0.61605916  0.50474160  -0.00074411  1
  O  O410  1  0.62450011  0.50354663  0.50614777  1
  O  O411  1  0.36216507  0.37320512  0.11750848  1
  O  O412  1  0.38566441  0.35792046  0.62755420  1
  O  O413  1  0.37181535  0.87051863  0.12184101  1
  O  O414  1  0.37913136  0.86843148  0.61835877  1
  O  O415  1  0.86293816  0.37768952  0.12660388  1
  O  O416  1  0.87690508  0.36762662  0.61145871  1
  O  O417  1  0.86863188  0.87050754  0.11774230  1
  O  O418  1  0.86695360  0.86645988  0.61482424  1
  O  O419  1  0.12832486  0.12415084  0.38311406  1
  O  O420  1  0.13093999  0.12578424  0.88213559  1
  O  O421  1  0.13346551  0.63275623  0.38407357  1
  O  O422  1  0.12890622  0.63560973  0.86848062  1
  O  O423  1  0.63812182  0.13152979  0.37406795  1
  O  O424  1  0.63502466  0.13856663  0.86976136  1
  O  O425  1  0.63151765  0.63158203  0.37927463  1
  O  O426  1  0.62949822  0.62254230  0.88501386  1
