# generated using pymatgen
data_V85Zn86O256
_symmetry_space_group_name_H-M   'P 1'
_cell_length_a   16.94210804
_cell_length_b   16.93132112
_cell_length_c   16.93717658
_cell_angle_alpha   90.00157574
_cell_angle_beta   90.03370386
_cell_angle_gamma   90.00331720
_symmetry_Int_Tables_number   1
_chemical_formula_structural   V85Zn86O256
_chemical_formula_sum   'V85 Zn86 O256'
_cell_volume   4858.46672606
_cell_formula_units_Z   1
loop_
 _symmetry_equiv_pos_site_id
 _symmetry_equiv_pos_as_xyz
  1  'x, y, z'
loop_
 _atom_site_type_symbol
 _atom_site_label
 _atom_site_symmetry_multiplicity
 _atom_site_fract_x
 _atom_site_fract_y
 _atom_site_fract_z
 _atom_site_occupancy
  V  V0  1  0.87245112  0.87784614  -0.00073257  1
  V  V1  1  0.50654860  0.25060046  0.75379368  1
  V  V2  1  0.12546689  0.24449804  0.87360216  1
  V  V3  1  0.49988332  0.87367850  0.87615316  1
  V  V4  1  0.13062226  0.37973657  0.74992104  1
  V  V5  1  0.37408538  0.12695838  0.75200686  1
  V  V6  1  -0.00216185  0.23631258  0.74373297  1
  V  V7  1  0.87554392  0.23628797  0.62691547  1
  V  V8  1  -0.00660342  0.37642644  0.86757973  1
  V  V9  1  0.24891740  0.61606646  0.87500753  1
  V  V10  1  0.68144232  0.68385512  0.54965112  1
  V  V11  1  -0.00028157  0.87704749  0.87333789  1
  V  V12  1  0.25542808  0.87337444  0.62122011  1
  V  V13  1  0.25005710  0.00128717  0.74747793  1
  V  V14  1  0.13183435  0.75045199  0.87539924  1
  V  V15  1  0.38215109  0.75016565  0.14043074  1
  V  V16  1  0.49772629  0.50269924  -0.00058507  1
  V  V17  1  0.12923622  0.61671028  0.00377578  1
  V  V18  1  0.25087666  0.74079374  0.50383776  1
  V  V19  1  0.49667133  0.86747813  0.37164305  1
  V  V20  1  0.24634378  0.49309427  0.23771828  1
  V  V21  1  0.11203197  0.12566568  0.50130914  1
  V  V22  1  0.62559608  0.12645765  0.49551082  1
  V  V23  1  -0.00157323  0.37727599  0.37559458  1
  V  V24  1  0.50548632  0.36914298  0.36147847  1
  V  V25  1  -0.00756557  0.49954010  -0.00501985  1
  V  V26  1  0.00912092  0.62931251  0.62413109  1
  V  V27  1  -0.01042523  0.25099292  0.24707714  1
  V  V28  1  0.49165095  0.63310693  0.61998677  1
  V  V29  1  0.74581868  0.13186401  0.87050855  1
  V  V30  1  0.37173012  0.50035377  0.86791893  1
  V  V31  1  0.50636815  0.50377334  0.49913572  1
  V  V32  1  0.00055466  0.87277778  0.36686913  1
  V  V33  1  0.54285646  0.18276493  0.18553665  1
  V  V34  1  0.24786966  0.12395525  0.37570130  1
  V  V35  1  -0.01071760  0.75132366  0.74711124  1
  V  V36  1  0.37537201  0.50417311  0.36881148  1
  V  V37  1  0.87609790  0.62449519  0.25034158  1
  V  V38  1  0.49853774  0.12582548  0.62377434  1
  V  V39  1  0.24138732  -0.00565939  0.23664500  1
  V  V40  1  0.49742627  0.00021515  0.49881100  1
  V  V41  1  0.75689574  0.00379943  0.74804218  1
  V  V42  1  0.50090392  0.62830731  0.13864772  1
  V  V43  1  0.62520693  0.62411373  -0.00171455  1
  V  V44  1  0.87552811  0.00834426  0.87517249  1
  V  V45  1  0.12350873  0.25264475  0.37222752  1
  V  V46  1  0.49844712  0.00549898  0.00403419  1
  V  V47  1  0.20852621  0.80185061  0.05884988  1
  V  V48  1  0.37149311  -0.00069879  0.37405885  1
  V  V49  1  0.75170016  0.74945939  -0.00608895  1
  V  V50  1  0.00315031  0.13044006  0.12145532  1
  V  V51  1  0.62617557  0.87755847  0.75104476  1
  V  V52  1  0.11734395  0.00297722  0.62322785  1
  V  V53  1  0.76238424  0.37255038  0.12762761  1
  V  V54  1  0.00390641  0.61982984  0.12813633  1
  V  V55  1  0.75190304  -0.00344035  0.25188081  1
  V  V56  1  0.87479053  0.74917006  0.12977428  1
  V  V57  1  0.37394551  0.00095946  0.87696965  1
  V  V58  1  0.62587901  -0.00014456  0.62350156  1
  V  V59  1  0.62592962  0.74115555  0.36908449  1
  V  V60  1  0.87420550  -0.00473974  0.38186146  1
  V  V61  1  0.37492366  0.86869319  0.00605717  1
  V  V62  1  0.37402537  0.25228895  0.62521641  1
  V  V63  1  0.24086492  0.24643290  0.01061412  1
  V  V64  1  0.61920213  0.13462076  -0.00358955  1
  V  V65  1  0.37057402  0.63251285  0.74636879  1
  V  V66  1  0.76080292  0.24792233  0.00071989  1
  V  V67  1  0.37612805  0.37564344  0.49846689  1
  V  V68  1  0.74863887  0.25418215  0.49931172  1
  V  V69  1  0.75233920  0.38661855  0.62875528  1
  V  V70  1  0.61956827  0.00150299  0.12696415  1
  V  V71  1  0.74791559  0.49657846  0.25265503  1
  V  V72  1  0.36600123  0.37634410  0.00574626  1
  V  V73  1  0.01224322  0.00421009  0.00676983  1
  V  V74  1  0.62733231  0.38442809  0.75025194  1
  V  V75  1  0.37139739  0.12943760  0.24226216  1
  V  V76  1  0.61984892  0.86823311  0.24849664  1
  V  V77  1  0.00883277  0.50376122  0.50143620  1
  V  V78  1  0.25075970  0.62272068  0.37015999  1
  V  V79  1  0.12397306  0.74649197  0.36894865  1
  V  V80  1  0.75711565  0.60564597  0.87491120  1
  V  V81  1  0.12476511  0.87324174  0.74624009  1
  V  V82  1  0.87813807  0.60432787  0.75240041  1
  V  V83  1  0.62555027  0.49164562  0.12597019  1
  V  V84  1  0.50253091  0.37268935  0.87510860  1
  Zn  Zn85  1  0.49694852  0.75322911  0.74469975  1
  Zn  Zn86  1  0.62850122  0.50532113  0.62333207  1
  Zn  Zn87  1  -0.00463700  -0.01073686  0.50346701  1
  Zn  Zn88  1  0.62506540  0.25276835  0.36013094  1
  Zn  Zn89  1  0.37447251  0.87102453  0.50156399  1
  Zn  Zn90  1  0.87289882  0.37745185  -0.00836888  1
  Zn  Zn91  1  0.75415619  0.86676291  0.61901152  1
  Zn  Zn92  1  0.75145140  0.62769209  0.37741366  1
  Zn  Zn93  1  0.12501091  0.37442396  0.23465993  1
  Zn  Zn94  1  0.24527728  0.12472095  0.87911147  1
  Zn  Zn95  1  0.86993520  0.83102053  0.51248083  1
  Zn  Zn96  1  0.24762901  0.25073579  0.50118555  1
  Zn  Zn97  1  0.25442022  0.38125658  0.63112941  1
  Zn  Zn98  1  0.37309073  0.25753086  0.13069766  1
  Zn  Zn99  1  0.12513312  0.87234561  0.23653943  1
  Zn  Zn100  1  0.62429914  0.74848117  0.87672008  1
  Zn  Zn101  1  0.74867115  0.87525040  0.12286683  1
  Zn  Zn102  1  0.75385921  0.12738603  0.37408967  1
  Zn  Zn103  1  0.87536705  0.38246280  0.50429810  1
  Zn  Zn104  1  0.13603607  0.50442430  0.62337676  1
  Zn  Zn105  1  0.87692002  0.12111876  0.24756973  1
  Zn  Zn106  1  0.87551618  0.50058287  0.37718076  1
  Zn  Zn107  1  0.17926315  0.18412179  0.18752577  1
  Zn  Zn108  1  0.18732454  0.18862835  0.68648503  1
  Zn  Zn109  1  0.18855801  0.67791785  0.19378691  1
  Zn  Zn110  1  0.18881777  0.68843123  0.69080459  1
  Zn  Zn111  1  0.70737015  0.18504293  0.18335157  1
  Zn  Zn112  1  0.68761119  0.19064284  0.68466405  1
  Zn  Zn113  1  0.68931303  0.68470991  0.18556214  1
  Zn  Zn114  1  0.68767525  0.68338015  0.71242028  1
  Zn  Zn115  1  0.31293139  0.31397341  0.31256416  1
  Zn  Zn116  1  0.31136861  0.31219459  0.81841372  1
  Zn  Zn117  1  0.30844919  0.81410021  0.31271449  1
  Zn  Zn118  1  0.31151049  0.81169681  0.81378360  1
  Zn  Zn119  1  0.81241381  0.31560511  0.31527769  1
  Zn  Zn120  1  0.81238586  0.30988053  0.80760014  1
  Zn  Zn121  1  0.80970705  0.81182839  0.31559603  1
  Zn  Zn122  1  0.81154278  0.81592206  0.81263362  1
  Zn  Zn123  1  0.18961180  0.43577801  0.43815841  1
  Zn  Zn124  1  0.18704766  0.43695513  1.06046189  1
  Zn  Zn125  1  0.18450022  0.93490277  0.43667214  1
  Zn  Zn126  1  0.18704710  0.94098409  0.93254171  1
  Zn  Zn127  1  0.68716599  0.43798693  0.43651747  1
  Zn  Zn128  1  0.68391247  0.43183897  0.93969791  1
  Zn  Zn129  1  0.69071963  0.92788691  0.43864845  1
  Zn  Zn130  1  0.68673142  0.94289800  0.93861094  1
  Zn  Zn131  1  0.31174066  0.06602206  0.06231988  1
  Zn  Zn132  1  0.30832979  0.06299224  0.56059223  1
  Zn  Zn133  1  0.31725546  0.57227301  0.05978422  1
  Zn  Zn134  1  0.31287543  0.55999258  0.56035917  1
  Zn  Zn135  1  0.81425716  0.06450827  0.06444496  1
  Zn  Zn136  1  0.80896782  0.05898117  0.55955266  1
  Zn  Zn137  1  0.81305545  0.56119916  0.06288051  1
  Zn  Zn138  1  0.84940581  0.61091327  0.54009941  1
  Zn  Zn139  1  0.43516905  0.44254443  0.18733515  1
  Zn  Zn140  1  0.43911482  0.44310719  0.68589991  1
  Zn  Zn141  1  0.43435454  0.93976293  0.18936894  1
  Zn  Zn142  1  0.43671430  0.93822883  0.68807455  1
  Zn  Zn143  1  0.94069550  0.44017921  0.18640458  1
  Zn  Zn144  1  0.94327196  0.43256692  0.68041496  1
  Zn  Zn145  1  0.93845928  0.93617826  0.18838355  1
  Zn  Zn146  1  0.93261686  0.93364474  0.68322921  1
  Zn  Zn147  1  0.06072307  0.06114623  0.31031580  1
  Zn  Zn148  1  0.06201941  0.06262435  0.81116681  1
  Zn  Zn149  1  0.06593120  0.56255472  0.31089058  1
  Zn  Zn150  1  0.06374954  0.56083672  0.81394152  1
  Zn  Zn151  1  0.56462204  0.05504988  0.31853276  1
  Zn  Zn152  1  0.56251716  0.06201661  0.81453016  1
  Zn  Zn153  1  0.56354083  0.55511447  0.31159827  1
  Zn  Zn154  1  0.55935362  0.56460733  0.81174363  1
  Zn  Zn155  1  0.43671716  0.18923635  0.43311569  1
  Zn  Zn156  1  0.43193750  0.19110413  0.94051953  1
  Zn  Zn157  1  0.43402960  0.68774663  0.43590735  1
  Zn  Zn158  1  0.43596946  0.68902212  0.94027851  1
  Zn  Zn159  1  0.93271580  0.18651717  0.43492878  1
  Zn  Zn160  1  0.93958744  0.18560753  0.93354975  1
  Zn  Zn161  1  0.95041928  0.68468956  0.43055297  1
  Zn  Zn162  1  0.93888164  0.68591789  0.93434160  1
  Zn  Zn163  1  0.05580028  0.31061916  0.05846269  1
  Zn  Zn164  1  0.06074272  0.31341381  0.56301797  1
  Zn  Zn165  1  0.04481987  0.80939467  0.06066509  1
  Zn  Zn166  1  0.06399374  0.81072890  0.55587348  1
  Zn  Zn167  1  0.56629228  0.31726876  0.05594921  1
  Zn  Zn168  1  0.56247640  0.31565319  0.56197182  1
  Zn  Zn169  1  0.56163531  0.81174022  0.06286433  1
  Zn  Zn170  1  0.55865400  0.81836681  0.56311307  1
  O  O171  1  0.10435227  0.12076251  0.12699009  1
  O  O172  1  0.13404498  0.11583642  0.61272730  1
  O  O173  1  0.11517433  0.63393100  0.11660732  1
  O  O174  1  0.11305167  0.62041467  0.63985195  1
  O  O175  1  0.61613144  0.12228286  0.12466223  1
  O  O176  1  0.61810894  0.12140906  0.61466147  1
  O  O177  1  0.62034687  0.61627930  0.11757783  1
  O  O178  1  0.62341046  0.62869443  0.62074640  1
  O  O179  1  0.38460277  0.38076579  0.38059755  1
  O  O180  1  0.38109754  0.38368194  0.88102689  1
  O  O181  1  0.38096899  0.88166554  0.37464782  1
  O  O182  1  0.38078298  0.88086514  0.88143735  1
  O  O183  1  0.88741358  0.37778568  0.37958414  1
  O  O184  1  0.88825415  0.36835917  0.87099396  1
  O  O185  1  0.88419387  0.87837410  0.37230523  1
  O  O186  1  0.88027050  0.88659834  0.87855780  1
  O  O187  1  0.25378880  0.00722913  0.37062635  1
  O  O188  1  0.25613942  0.00323821  0.86673019  1
  O  O189  1  0.25752975  0.50540789  0.37294431  1
  O  O190  1  0.25857048  0.51348117  0.87571752  1
  O  O191  1  0.75536990  -0.00161519  0.36687177  1
  O  O192  1  0.75603399  0.00913097  0.86959127  1
  O  O193  1  0.75157386  0.50329031  0.36649611  1
  O  O194  1  0.75070247  0.50662849  0.88349712  1
  O  O195  1  0.25494525  0.50500945  0.13384313  1
  O  O196  1  0.24856268  0.49388594  0.62069529  1
  O  O197  1  0.25105980  1.00477061  0.13811270  1
  O  O198  1  0.24178519  0.99274507  0.62851556  1
  O  O199  1  0.74371383  0.49304786  0.12839391  1
  O  O200  1  0.74771084  0.48622260  0.62246940  1
  O  O201  1  0.73709751  1.00018496  0.13115992  1
  O  O202  1  0.74175784  1.00398389  0.63511724  1
  O  O203  1  0.00117704  0.36971070  0.25705797  1
  O  O204  1  0.00623097  0.36377231  0.75165284  1
  O  O205  1  0.00715226  0.87720246  0.25936107  1
  O  O206  1  0.00555858  0.86996654  0.75541570  1
  O  O207  1  0.49716221  0.38008608  0.26282263  1
  O  O208  1  0.50379187  0.36980461  0.75565013  1
  O  O209  1  0.50876538  0.88230029  0.25961891  1
  O  O210  1  0.50610767  0.87589376  0.75779357  1
  O  O211  1  0.49096835  0.12036671  0.25301917  1
  O  O212  1  0.49567904  0.13204316  0.74614364  1
  O  O213  1  0.50223261  0.61811861  0.23741351  1
  O  O214  1  0.49278890  0.62920961  0.74134184  1
  O  O215  1  0.99951908  0.13251169  0.24116901  1
  O  O216  1  1.00118209  0.13642102  0.74831562  1
  O  O217  1  0.99253855  0.61734943  0.23912674  1
  O  O218  1  0.99323991  0.63203106  0.75239674  1
  O  O219  1  0.36203394  0.25969165  0.00307076  1
  O  O220  1  0.37671005  0.25633423  0.50829710  1
  O  O221  1  0.37541260  0.76444737  0.00417949  1
  O  O222  1  0.35582360  0.75341229  0.49360530  1
  O  O223  1  0.86374819  0.24864276  -0.00457054  1
  O  O224  1  0.86337300  0.25004900  0.50698413  1
  O  O225  1  0.86944018  0.75607774  0.00267907  1
  O  O226  1  0.86925780  0.71787612  0.49742465  1
  O  O227  1  0.12538152  0.24280081  0.49314214  1
  O  O228  1  0.13501765  0.25377095  0.99071740  1
  O  O229  1  0.14084288  0.75436601  0.48359507  1
  O  O230  1  0.13029674  0.74856930  0.99561725  1
  O  O231  1  0.63513536  0.24332484  0.50366736  1
  O  O232  1  0.63397976  0.23852173  1.00339451  1
  O  O233  1  0.62322869  0.74748601  0.49203915  1
  O  O234  1  0.63466851  0.74469845  0.99868952  1
  O  O235  1  0.49728596  0.25058568  0.12218069  1
  O  O236  1  0.49092479  0.24579591  0.63106118  1
  O  O237  1  0.49497877  0.74097334  0.12331882  1
  O  O238  1  0.50269111  0.73840310  0.62336630  1
  O  O239  1  0.99734657  0.23848300  0.12961801  1
  O  O240  1  0.98396558  0.25216419  0.62759779  1
  O  O241  1  0.98280248  0.73548037  0.11878094  1
  O  O242  1  1.01133610  0.74366819  0.63657579  1
  O  O243  1  0.00425494  0.25588648  0.36872382  1
  O  O244  1  0.00419577  0.25233963  0.86540645  1
  O  O245  1  0.01707596  0.75330108  0.37021602  1
  O  O246  1  0.01170924  0.75554624  0.87095717  1
  O  O247  1  0.50245553  0.26463721  0.37604410  1
  O  O248  1  0.49131710  0.26124530  0.86641060  1
  O  O249  1  0.50472361  0.76182946  0.37961703  1
  O  O250  1  0.50132587  0.76470186  0.87768737  1
  O  O251  1  0.24326422  0.12680840  0.48638069  1
  O  O252  1  0.25465502  0.14158070  0.99710286  1
  O  O253  1  0.25284948  0.63467851  0.48979521  1
  O  O254  1  0.24037071  0.62486891  0.99148740  1
  O  O255  1  0.74037473  0.13214308  0.49710054  1
  O  O256  1  0.74302226  0.13079617  0.99593872  1
  O  O257  1  0.73755151  0.61492351  0.49876146  1
  O  O258  1  0.74756924  0.63071458  0.99306865  1
  O  O259  1  0.25625231  0.36431852  -0.00090917  1
  O  O260  1  0.26621569  0.37017016  0.49661698  1
  O  O261  1  0.25693563  0.87604520  -0.00065059  1
  O  O262  1  0.25121129  0.86716505  0.50649065  1
  O  O263  1  0.75197139  0.36500260  0.00409547  1
  O  O264  1  0.75081664  0.36890819  0.50744846  1
  O  O265  1  0.75359756  0.86825453  -0.00011353  1
  O  O266  1  0.75980357  0.87418106  0.50433790  1
  O  O267  1  0.14273371  0.49733702  0.25345918  1
  O  O268  1  0.12050780  0.48190766  0.75082935  1
  O  O269  1  0.13792195  0.99775327  0.25132285  1
  O  O270  1  0.13034153  0.99465302  0.74334905  1
  O  O271  1  0.63858665  0.50341446  0.24036492  1
  O  O272  1  0.61835234  0.48817684  0.74587578  1
  O  O273  1  0.63014163  0.99186788  0.24513150  1
  O  O274  1  0.63013480  0.99199025  0.74667491  1
  O  O275  1  0.36465649  0.00743232  0.25671057  1
  O  O276  1  0.37024035  0.00573825  0.75608019  1
  O  O277  1  0.36237247  0.49509639  0.25958776  1
  O  O278  1  0.38186566  0.51023928  0.76269016  1
  O  O279  1  0.86569407  -0.00570415  0.25851639  1
  O  O280  1  0.86346345  -0.00246603  0.75774604  1
  O  O281  1  0.86457643  0.50625466  0.24875017  1
  O  O282  1  0.88495933  0.50643515  0.75198279  1
  O  O283  1  0.11706504  0.36279178  0.37565777  1
  O  O284  1  0.11154709  0.35905223  0.85913579  1
  O  O285  1  0.11932231  0.86503640  0.37152777  1
  O  O286  1  0.11996847  0.86881057  0.86903947  1
  O  O287  1  0.60998878  0.37339172  0.37580229  1
  O  O288  1  0.61112809  0.37749637  0.86797541  1
  O  O289  1  0.61669368  0.86694800  0.36691841  1
  O  O290  1  0.61643308  0.87911136  0.86974863  1
  O  O291  1  0.37593061  0.12663882  0.13847062  1
  O  O292  1  0.37970171  0.13152535  0.62936997  1
  O  O293  1  0.39000413  0.63703281  0.11768062  1
  O  O294  1  0.38051551  0.62234622  0.63453110  1
  O  O295  1  0.89223750  0.11344534  0.13117918  1
  O  O296  1  0.86911404  0.13744015  0.62101783  1
  O  O297  1  0.87914939  0.62940851  0.13192737  1
  O  O298  1  0.89279513  0.62360354  0.64633488  1
  O  O299  1  0.24747927  0.24576121  0.11414357  1
  O  O300  1  0.26434908  0.25312814  0.62377108  1
  O  O301  1  0.26172538  0.73908101  0.12354953  1
  O  O302  1  0.24150177  0.75547060  0.61088731  1
  O  O303  1  0.75093853  0.26023924  0.11454101  1
  O  O304  1  0.75862009  0.25565587  0.61899422  1
  O  O305  1  0.75844777  0.74831176  0.11134517  1
  O  O306  1  0.73509709  0.73760597  0.61747281  1
  O  O307  1  0.24005932  0.24251425  0.37405254  1
  O  O308  1  0.24129565  0.24843340  0.88401167  1
  O  O309  1  0.24626091  0.74192028  0.38017918  1
  O  O310  1  0.23706232  0.74406601  0.87223165  1
  O  O311  1  0.74408179  0.25029641  0.38251879  1
  O  O312  1  0.75231320  0.23748834  0.87964655  1
  O  O313  1  0.73462795  0.74534759  0.37047827  1
  O  O314  1  0.75103038  0.74477838  0.88483606  1
  O  O315  1  -0.00484254  0.11402119  0.00792588  1
  O  O316  1  0.01032357  0.12081993  0.49393685  1
  O  O317  1  0.00754677  0.61884606  0.00226841  1
  O  O318  1  0.00663132  0.61839845  0.51215386  1
  O  O319  1  0.50705717  0.11970746  -0.00670685  1
  O  O320  1  0.50492593  0.12131369  0.50310516  1
  O  O321  1  0.50768330  0.61912587  0.00112088  1
  O  O322  1  0.49175743  0.61672238  0.50654894  1
  O  O323  1  0.49113221  0.38131921  0.49470824  1
  O  O324  1  0.49378737  0.38101987  0.99034030  1
  O  O325  1  0.49529786  0.88273756  0.49283103  1
  O  O326  1  0.49451716  0.88301318  0.99416868  1
  O  O327  1  0.99739219  0.38096683  0.49224025  1
  O  O328  1  0.99544658  0.38194164  0.98783332  1
  O  O329  1  0.99404114  0.86981870  0.48510345  1
  O  O330  1  0.99329094  0.88720633  0.99269494  1
  O  O331  1  0.49366341  0.49245411  0.37951743  1
  O  O332  1  0.49243730  0.49434867  0.88020307  1
  O  O333  1  0.49205409  0.99005808  0.38012552  1
  O  O334  1  0.49425186  0.99072177  0.88123196  1
  O  O335  1  1.00350673  0.49180846  0.37929313  1
  O  O336  1  1.00648632  0.48853524  0.88230625  1
  O  O337  1  0.99257763  0.99041902  0.37520323  1
  O  O338  1  0.99233299  0.99981188  0.88219536  1
  O  O339  1  -0.00068076  0.00091482  0.11077646  1
  O  O340  1  0.01351159  -0.00492718  0.62502323  1
  O  O341  1  -0.00369973  0.51258387  0.11438510  1
  O  O342  1  0.00738005  0.50654301  0.61753651  1
  O  O343  1  0.51138975  -0.00240723  0.12099337  1
  O  O344  1  0.50509639  0.00578595  0.61981089  1
  O  O345  1  0.50721421  0.50544323  0.11931477  1
  O  O346  1  0.50304063  0.51313793  0.61688367  1
  O  O347  1  0.24765755  0.38888778  0.25280625  1
  O  O348  1  0.23450147  0.36773765  0.75273330  1
  O  O349  1  0.24866320  0.89101026  0.25044660  1
  O  O350  1  0.24438463  0.87853090  0.74241259  1
  O  O351  1  0.75407019  0.38205340  0.24051088  1
  O  O352  1  0.73711181  0.36682260  0.74311332  1
  O  O353  1  0.74020768  0.88337874  0.24686697  1
  O  O354  1  0.74122502  0.88451815  0.75019197  1
  O  O355  1  0.25245236  0.11802866  0.25846974  1
  O  O356  1  0.25789128  0.11959476  0.75058784  1
  O  O357  1  0.25102666  0.61017007  0.26220869  1
  O  O358  1  0.25856938  0.62979161  0.76035143  1
  O  O359  1  0.75221449  0.10950806  0.25324898  1
  O  O360  1  0.73820195  0.11642025  0.75910148  1
  O  O361  1  0.75835780  0.61529668  0.24840637  1
  O  O362  1  0.76809449  0.62157686  0.75960302  1
  O  O363  1  0.36609630  0.12061203  0.36784499  1
  O  O364  1  0.37473624  0.11740207  0.86918199  1
  O  O365  1  0.36827748  0.61270696  0.37668370  1
  O  O366  1  0.36880024  0.62054723  0.87163875  1
  O  O367  1  0.87361099  0.11277883  0.36830586  1
  O  O368  1  0.86545019  0.11419700  0.87778485  1
  O  O369  1  0.87750644  0.62222204  0.35822392  1
  O  O370  1  0.87084673  0.62474060  0.86331874  1
  O  O371  1  0.11779976  0.37676722  0.12252882  1
  O  O372  1  0.12678410  0.36919041  0.64003666  1
  O  O373  1  0.13513751  0.85281029  0.11741142  1
  O  O374  1  0.13399129  0.88195885  0.62679662  1
  O  O375  1  0.63368620  0.38750898  0.11862612  1
  O  O376  1  0.63157237  0.37556952  0.63339810  1
  O  O377  1  0.62538253  0.88245018  0.13156724  1
  O  O378  1  0.62759818  0.88170514  0.63401302  1
  O  O379  1  0.11381769  0.25165785  0.25788676  1
  O  O380  1  0.11656053  0.25275266  0.75213249  1
  O  O381  1  0.13932359  0.75461508  0.26495269  1
  O  O382  1  0.11832689  0.75621878  0.75879992  1
  O  O383  1  0.61600938  0.23240934  0.24178488  1
  O  O384  1  0.61018157  0.25704076  0.74428147  1
  O  O385  1  0.62758101  0.76086195  0.25171345  1
  O  O386  1  0.62150802  0.76463172  0.75709844  1
  O  O387  1  0.37013571  0.23987479  0.24778940  1
  O  O388  1  0.38310794  0.24809498  0.74403049  1
  O  O389  1  0.37416584  0.75495413  0.23971022  1
  O  O390  1  0.37859133  0.73777219  0.75627493  1
  O  O391  1  0.88641859  0.24810043  0.25485485  1
  O  O392  1  0.88062160  0.24876101  0.73490712  1
  O  O393  1  0.86546014  0.74120678  0.23859856  1
  O  O394  1  0.88801105  0.74921918  0.75837665  1
  O  O395  1  0.38401019  0.49227076  0.48987956  1
  O  O396  1  0.37741226  0.49540535  0.98959629  1
  O  O397  1  0.37880471  1.00019107  0.49102934  1
  O  O398  1  0.37797440  0.99217630  0.99730334  1
  O  O399  1  0.89231937  0.50633380  0.49620753  1
  O  O400  1  0.88827681  0.50230049  0.99799564  1
  O  O401  1  0.87690555  1.00434581  0.48664211  1
  O  O402  1  0.87808544  0.99458500  0.99192598  1
  O  O403  1  0.11023181  -0.00064621  -0.00606589  1
  O  O404  1  0.12274639  0.00639983  0.50657579  1
  O  O405  1  0.11693104  0.51307789  0.00180987  1
  O  O406  1  0.11386171  0.49204432  0.50120630  1
  O  O407  1  0.62174401  0.01187323  0.01034922  1
  O  O408  1  0.61915573  0.00740880  0.50229321  1
  O  O409  1  0.61913894  0.50441309  0.00695864  1
  O  O410  1  0.60976355  0.49535282  0.50099717  1
  O  O411  1  0.38041490  0.37780479  0.10963810  1
  O  O412  1  0.37873708  0.36836478  0.61837480  1
  O  O413  1  0.38117173  0.86614107  0.11809291  1
  O  O414  1  0.36005280  0.87913045  0.62535005  1
  O  O415  1  0.86480610  0.38161591  0.11764512  1
  O  O416  1  0.86609952  0.36674380  0.62329749  1
  O  O417  1  0.87301286  0.86595185  0.11947005  1
  O  O418  1  0.86885699  0.86865274  0.62266056  1
  O  O419  1  0.12934076  0.13280926  0.37922488  1
  O  O420  1  0.12498685  0.13857546  0.87000109  1
  O  O421  1  0.13291940  0.63721556  0.37157354  1
  O  O422  1  0.13074859  0.63116566  0.88243720  1
  O  O423  1  0.62354477  0.12885028  0.38651705  1
  O  O424  1  0.63343144  0.11841308  0.88591298  1
  O  O425  1  0.62016326  0.63830573  0.36751361  1
  O  O426  1  0.63562442  0.62557470  0.87797070  1
