# generated using pymatgen
data_V85Zn86O256
_symmetry_space_group_name_H-M   'P 1'
_cell_length_a   16.93372250
_cell_length_b   16.93737063
_cell_length_c   16.92799884
_cell_angle_alpha   89.99922412
_cell_angle_beta   90.06690493
_cell_angle_gamma   89.93978339
_symmetry_Int_Tables_number   1
_chemical_formula_structural   V85Zn86O256
_chemical_formula_sum   'V85 Zn86 O256'
_cell_volume   4855.15963665
_cell_formula_units_Z   1
loop_
 _symmetry_equiv_pos_site_id
 _symmetry_equiv_pos_as_xyz
  1  'x, y, z'
loop_
 _atom_site_type_symbol
 _atom_site_label
 _atom_site_symmetry_multiplicity
 _atom_site_fract_x
 _atom_site_fract_y
 _atom_site_fract_z
 _atom_site_occupancy
  V  V0  1  0.74195812  0.25004039  -0.01483161  1
  V  V1  1  0.50152508  0.11837167  0.12182465  1
  V  V2  1  0.12924368  0.37340323  0.25353557  1
  V  V3  1  0.74648848  0.87912333  0.62563449  1
  V  V4  1  0.75316815  0.74993797  0.00104982  1
  V  V5  1  0.12078898  0.49789820  0.62208688  1
  V  V6  1  0.62065174  0.87507217  0.75259807  1
  V  V7  1  0.25240181  0.49705911  0.25064343  1
  V  V8  1  0.62947115  0.37567788  0.24868099  1
  V  V9  1  0.12355152  0.63039701  -0.00788353  1
  V  V10  1  0.12389465  0.62769555  0.49374737  1
  V  V11  1  -0.00319960  0.50092010  -0.00131556  1
  V  V12  1  0.01354038  0.88103082  0.87701288  1
  V  V13  1  0.37365810  -0.00297542  0.89185342  1
  V  V14  1  -0.00435197  0.13755771  0.62716191  1
  V  V15  1  0.49670817  0.62675292  0.62285407  1
  V  V16  1  0.12192205  0.00094689  0.63035055  1
  V  V17  1  0.37839854  0.12365681  0.74919880  1
  V  V18  1  0.01605045  0.74957364  0.25510086  1
  V  V19  1  0.37418690  0.87973269  0.49137142  1
  V  V20  1  0.25380285  0.87451383  0.13038912  1
  V  V21  1  0.50328634  0.37607430  0.38082389  1
  V  V22  1  0.87875675  0.50051915  0.87324482  1
  V  V23  1  0.24598742  -0.00150957  0.75541417  1
  V  V24  1  0.38523418  0.24890672  0.62708494  1
  V  V25  1  0.49708192  0.01141404  0.49154523  1
  V  V26  1  0.62210932  0.37370687  0.75584764  1
  V  V27  1  0.86893524  0.11849615  0.24523624  1
  V  V28  1  0.49906543  0.62472146  0.12824666  1
  V  V29  1  0.37767811  0.75392381  0.12465263  1
  V  V30  1  0.24895785  0.24010869  0.49913019  1
  V  V31  1  0.01284844  0.75491108  0.75697283  1
  V  V32  1  0.76526266  0.50624025  0.25636514  1
  V  V33  1  0.87410803  0.24920948  0.11953023  1
  V  V34  1  0.62372101  0.50409672  0.62257779  1
  V  V35  1  0.62750029  0.00190707  0.12919905  1
  V  V36  1  -0.00031934  0.62814985  0.62291515  1
  V  V37  1  0.25015868  0.37113517  0.12156726  1
  V  V38  1  0.62632355  0.87121845  0.25780652  1
  V  V39  1  0.63195914  0.24625318  0.37609724  1
  V  V40  1  0.25129340  0.00394318  0.25953099  1
  V  V41  1  0.74989439  0.50142815  0.74364033  1
  V  V42  1  0.93110000  0.33135915  -0.05871552  1
  V  V43  1  0.49564777  0.75311520  0.75289680  1
  V  V44  1  0.24751948  0.13832068  0.87941202  1
  V  V45  1  0.11674016  0.36765622  0.76073539  1
  V  V46  1  0.50207174  0.24767291  0.24724190  1
  V  V47  1  0.86306719  0.37071672  0.51003156  1
  V  V48  1  0.49983871  0.49941238  0.00044191  1
  V  V49  1  0.12312510  -0.00943930  0.12412998  1
  V  V50  1  0.01221199  0.87105167  0.37194564  1
  V  V51  1  0.74870019  0.62822999  0.87257267  1
  V  V52  1  0.00034166  0.24608628  0.25109516  1
  V  V53  1  0.24919541  0.62841394  0.37230048  1
  V  V54  1  0.75677285  0.37497351  0.11927863  1
  V  V55  1  0.62652055  0.62585642  -0.00003753  1
  V  V56  1  0.75913531  0.63114231  0.37812009  1
  V  V57  1  0.37321937  0.24613005  0.11914948  1
  V  V58  1  0.86760221  0.12854103  0.75340213  1
  V  V59  1  0.87255532  -0.00483029  0.36893314  1
  V  V60  1  0.87568364  0.74861315  0.13421265  1
  V  V61  1  0.37188103  0.62696727  0.75185252  1
  V  V62  1  -0.00264791  0.62547064  0.12884899  1
  V  V63  1  0.61288715  0.00570129  0.62262674  1
  V  V64  1  0.87361048  0.62865267  0.74749566  1
  V  V65  1  0.00098595  0.11742409  0.12087975  1
  V  V66  1  0.87485692  0.75371741  0.62508805  1
  V  V67  1  0.62833488  0.49906483  0.12443997  1
  V  V68  1  0.50046043  0.36739575  0.87688302  1
  V  V69  1  0.24627439  0.50054540  0.75082817  1
  V  V70  1  0.00038685  -0.00000010  0.50043650  1
  V  V71  1  0.87562086  0.87367208  0.49898796  1
  V  V72  1  0.62569573  0.11948803  -0.01453183  1
  V  V73  1  0.49461774  0.87710184  0.89169524  1
  V  V74  1  0.75292758  0.12467131  0.37849746  1
  V  V75  1  0.12965071  0.13322333  -0.00041204  1
  V  V76  1  0.24517939  0.75442570  0.49438378  1
  V  V77  1  0.87922406  0.88148734  -0.00319425  1
  V  V78  1  -0.01102805  0.38198039  0.37318401  1
  V  V79  1  0.75214124  0.88074243  0.12938992  1
  V  V80  1  0.37115003  0.37342017  -0.00035614  1
  V  V81  1  0.24525940  0.87601117  0.62945509  1
  V  V82  1  0.37264197  0.50102860  0.87568104  1
  V  V83  1  0.24831067  0.37265923  0.62361748  1
  V  V84  1  0.24958079  0.75585816  -0.00421808  1
  Zn  Zn85  1  0.37077146  0.75398146  0.62567604  1
  Zn  Zn86  1  -0.00499310  0.50335802  0.49043325  1
  Zn  Zn87  1  0.50408802  0.74473838  0.26235683  1
  Zn  Zn88  1  0.12468968  0.12263878  0.49423378  1
  Zn  Zn89  1  0.73904489  0.75574377  0.49247174  1
  Zn  Zn90  1  0.37522166  0.49729849  0.37726981  1
  Zn  Zn91  1  0.67482397  0.16846735  0.53960986  1
  Zn  Zn92  1  0.74714821  0.35442564  0.62372053  1
  Zn  Zn93  1  0.37512082  0.62521916  0.25156042  1
  Zn  Zn94  1  0.49827762  0.50114082  0.49860752  1
  Zn  Zn95  1  0.74589670  0.00356555  0.75936406  1
  Zn  Zn96  1  0.37965524  0.10975743  0.26680689  1
  Zn  Zn97  1  0.87191049  -0.00203074  0.87347961  1
  Zn  Zn98  1  0.24300254  0.63189452  0.87268915  1
  Zn  Zn99  1  0.50087955  0.87043444  0.37778629  1
  Zn  Zn100  1  0.50199166  0.24490381  0.75370420  1
  Zn  Zn101  1  0.61424856  0.63583376  0.48080367  1
  Zn  Zn102  1  0.12716343  0.24197530  0.37293232  1
  Zn  Zn103  1  0.12534724  0.50053016  0.12295873  1
  Zn  Zn104  1  0.37503208  0.37585403  0.50024243  1
  Zn  Zn105  1  -0.00377658  0.25351696  0.76216476  1
  Zn  Zn106  1  0.62313375  0.75272257  0.87754973  1
  Zn  Zn107  1  0.18918720  0.18436774  0.18806082  1
  Zn  Zn108  1  0.18673946  0.18696876  0.68883361  1
  Zn  Zn109  1  0.18696843  0.68485060  0.18138413  1
  Zn  Zn110  1  0.18752184  0.68725418  0.68258601  1
  Zn  Zn111  1  0.68977198  0.18752555  0.18487686  1
  Zn  Zn112  1  0.68072421  0.18986742  0.70494855  1
  Zn  Zn113  1  0.68934366  0.68705608  0.19069529  1
  Zn  Zn114  1  0.68279180  0.69397092  0.67660834  1
  Zn  Zn115  1  0.33307983  0.28046155  0.32835971  1
  Zn  Zn116  1  0.31083476  0.31392153  0.80951011  1
  Zn  Zn117  1  0.31095768  0.81250867  0.30872399  1
  Zn  Zn118  1  0.31039327  0.81659483  0.81483931  1
  Zn  Zn119  1  0.81385244  0.31070399  0.30957669  1
  Zn  Zn120  1  0.80911855  0.30982962  0.80165291  1
  Zn  Zn121  1  0.81404953  0.81178901  0.30977357  1
  Zn  Zn122  1  0.81211379  0.81754446  0.81256704  1
  Zn  Zn123  1  0.18543280  0.43556858  0.43571111  1
  Zn  Zn124  1  0.18600466  0.44056089  0.93886152  1
  Zn  Zn125  1  0.18589779  0.94124704  0.44027053  1
  Zn  Zn126  1  0.18911803  0.94105681  0.94571856  1
  Zn  Zn127  1  0.68639521  0.44387410  0.43684744  1
  Zn  Zn128  1  0.69061347  0.43836347  0.93554052  1
  Zn  Zn129  1  0.68961954  0.94466746  0.44037201  1
  Zn  Zn130  1  0.68758582  0.93853443  0.93937700  1
  Zn  Zn131  1  0.30807779  0.06444763  0.06922886  1
  Zn  Zn132  1  0.31644693  0.06209190  0.56571558  1
  Zn  Zn133  1  0.31091454  0.56413389  0.06341153  1
  Zn  Zn134  1  0.31257982  0.56025594  0.56020037  1
  Zn  Zn135  1  0.80730756  0.06153288  0.05632481  1
  Zn  Zn136  1  0.81880157  0.05729687  0.56742727  1
  Zn  Zn137  1  0.81642875  0.56202219  0.06219702  1
  Zn  Zn138  1  0.81550836  0.55790015  0.55463995  1
  Zn  Zn139  1  0.43723508  0.43511403  0.19071825  1
  Zn  Zn140  1  0.43655267  0.43827450  0.68725482  1
  Zn  Zn141  1  0.43799850  0.93611710  0.18879563  1
  Zn  Zn142  1  0.43172133  0.93773131  0.68748919  1
  Zn  Zn143  1  0.93908083  0.43426865  0.18312794  1
  Zn  Zn144  1  0.93633395  0.43459510  0.68224005  1
  Zn  Zn145  1  0.94074590  0.93290343  0.18916957  1
  Zn  Zn146  1  0.93847817  0.93874794  0.69345321  1
  Zn  Zn147  1  0.06540693  0.05839049  0.30997281  1
  Zn  Zn148  1  0.06083832  0.06340404  0.81357124  1
  Zn  Zn149  1  0.06425156  0.56293279  0.30871014  1
  Zn  Zn150  1  0.05998234  0.56215418  0.81044996  1
  Zn  Zn151  1  0.56715142  0.05963595  0.31040611  1
  Zn  Zn152  1  0.55547820  0.05473916  0.81276571  1
  Zn  Zn153  1  0.56969055  0.56064101  0.31133012  1
  Zn  Zn154  1  0.56076297  0.56208510  0.81292992  1
  Zn  Zn155  1  0.43995352  0.18993730  0.43882491  1
  Zn  Zn156  1  0.43700299  0.18246445  0.94001667  1
  Zn  Zn157  1  0.43123102  0.69334632  0.43610807  1
  Zn  Zn158  1  0.43470719  0.68987096  0.94025718  1
  Zn  Zn159  1  0.93884556  0.18833510  0.43670193  1
  Zn  Zn160  1  0.93981682  0.16819830  0.93885995  1
  Zn  Zn161  1  0.93172630  0.68538566  0.43299697  1
  Zn  Zn162  1  0.93702221  0.69177123  0.93748731  1
  Zn  Zn163  1  0.06717793  0.30905376  0.06905020  1
  Zn  Zn164  1  0.06282984  0.31421227  0.55859186  1
  Zn  Zn165  1  0.06317457  0.81197107  0.06094436  1
  Zn  Zn166  1  0.06405001  0.81453361  0.56281876  1
  Zn  Zn167  1  0.56561451  0.30924923  0.05985407  1
  Zn  Zn168  1  0.57775527  0.30832031  0.56922701  1
  Zn  Zn169  1  0.56621476  0.81018888  0.06855081  1
  Zn  Zn170  1  0.55796882  0.81245716  0.56044262  1
  O  O171  1  0.11948186  0.11797750  0.11874495  1
  O  O172  1  0.11327124  0.11771957  0.62556302  1
  O  O173  1  0.11278764  0.62220319  0.11444679  1
  O  O174  1  0.12043519  0.61801871  0.61444694  1
  O  O175  1  0.62088110  0.11809622  0.12232464  1
  O  O176  1  0.62770194  0.10735747  0.63102240  1
  O  O177  1  0.61964138  0.62004360  0.12007191  1
  O  O178  1  0.61118355  0.61368057  0.63742510  1
  O  O179  1  0.38978018  0.37239007  0.37608627  1
  O  O180  1  0.37740801  0.38158731  0.88047941  1
  O  O181  1  0.37106079  0.87333741  0.38854015  1
  O  O182  1  0.37856355  0.88898687  0.87560171  1
  O  O183  1  0.88697685  0.37587932  0.37236600  1
  O  O184  1  0.86971345  0.38413593  0.87184945  1
  O  O185  1  0.88005392  0.88004273  0.37806731  1
  O  O186  1  0.88496857  0.87183984  0.88346854  1
  O  O187  1  0.24173372  -0.00306268  0.35860869  1
  O  O188  1  0.25740497  0.00384107  0.87163953  1
  O  O189  1  0.24961494  0.50529673  0.36723407  1
  O  O190  1  0.25621559  0.50433266  0.86933559  1
  O  O191  1  0.76501610  0.00577045  0.37592756  1
  O  O192  1  0.75717463  -0.00916083  0.87212596  1
  O  O193  1  0.75239615  0.50150230  0.35990282  1
  O  O194  1  0.75953119  0.50603885  0.86515050  1
  O  O195  1  0.24832084  0.49244816  0.13295846  1
  O  O196  1  0.23876140  0.49475180  0.62951829  1
  O  O197  1  0.24217473  0.99119048  0.12961792  1
  O  O198  1  0.24158897  0.99732489  0.63304229  1
  O  O199  1  0.74838307  0.49305329  0.12777776  1
  O  O200  1  0.74242898  0.50578481  0.63438103  1
  O  O201  1  0.74330526  0.99062056  0.12212751  1
  O  O202  1  0.73963963  0.98968285  0.62547967  1
  O  O203  1  0.00584219  0.36797174  0.25406687  1
  O  O204  1  0.01192180  0.37360931  0.74648148  1
  O  O205  1  -0.00063717  0.85946068  0.25701428  1
  O  O206  1  -0.00120288  0.86344836  0.76148929  1
  O  O207  1  0.51164284  0.36991729  0.25495921  1
  O  O208  1  0.50461432  0.37860074  0.76095789  1
  O  O209  1  0.51542942  0.87592866  0.25219656  1
  O  O210  1  0.50190403  0.87086598  0.75595528  1
  O  O211  1  0.49967458  0.13188181  0.24274043  1
  O  O212  1  0.48389395  0.12663826  0.75885411  1
  O  O213  1  0.50174646  0.62283750  0.23818909  1
  O  O214  1  0.49070215  0.63097459  0.74524823  1
  O  O215  1  0.99290886  0.13009329  0.23911966  1
  O  O216  1  0.99519037  0.13020088  0.74173460  1
  O  O217  1  1.00415949  0.63571417  0.24230283  1
  O  O218  1  0.99355635  0.63608879  0.74471843  1
  O  O219  1  0.38047808  0.25647530  0.01150072  1
  O  O220  1  0.36525549  0.25498089  0.51105950  1
  O  O221  1  0.36441320  0.74201178  0.01480552  1
  O  O222  1  0.35965925  0.75803047  0.50516419  1
  O  O223  1  0.87156459  0.25315734  -0.00144170  1
  O  O224  1  0.88083963  0.27231571  0.49088767  1
  O  O225  1  0.87124842  0.75837945  0.00947693  1
  O  O226  1  0.87606462  0.75534359  0.51284680  1
  O  O227  1  0.13825374  0.24622310  0.50532043  1
  O  O228  1  0.12349805  0.23271090  1.00609254  1
  O  O229  1  0.13512642  0.74149918  0.50550699  1
  O  O230  1  0.13520359  0.74104584  1.00651507  1
  O  O231  1  0.61040218  0.24230105  0.47758963  1
  O  O232  1  0.63473650  0.23838394  0.99911717  1
  O  O233  1  0.63295298  0.73740593  0.52836202  1
  O  O234  1  0.63528157  0.74301636  1.00099566  1
  O  O235  1  0.50032084  0.23937117  0.12839933  1
  O  O236  1  0.48845628  0.25737078  0.62869839  1
  O  O237  1  0.49389725  0.74050692  0.12632240  1
  O  O238  1  0.49178563  0.74370081  0.63541155  1
  O  O239  1  0.99391470  0.24174118  0.13288727  1
  O  O240  1  1.00396772  0.23816025  0.62473054  1
  O  O241  1  0.99676782  0.74539621  0.13436898  1
  O  O242  1  0.99477565  0.74981485  0.63459052  1
  O  O243  1  -0.00215814  0.25953737  0.36085550  1
  O  O244  1  -0.01345186  0.26157111  0.88457637  1
  O  O245  1  -0.00466075  0.75361050  0.36169146  1
  O  O246  1  -0.00188890  0.75656337  0.86236130  1
  O  O247  1  0.51085574  0.25715529  0.36191133  1
  O  O248  1  0.49076550  0.26461382  0.87651896  1
  O  O249  1  0.50067556  0.75487196  0.37590545  1
  O  O250  1  0.49796284  0.75792952  0.86978700  1
  O  O251  1  0.25029811  0.13726967  0.50506187  1
  O  O252  1  0.23818105  0.12352143  0.99598653  1
  O  O253  1  0.24355191  0.63268968  0.49426750  1
  O  O254  1  0.23948417  0.63146894  1.00032037  1
  O  O255  1  0.76044153  0.11884621  0.48616024  1
  O  O256  1  0.73830665  0.13761509  1.00210598  1
  O  O257  1  0.75176189  0.62498094  0.48634177  1
  O  O258  1  0.74778376  0.62964234  0.99389925  1
  O  O259  1  0.25047037  0.38033740  0.01434498  1
  O  O260  1  0.24667236  0.37158955  0.51428131  1
  O  O261  1  0.24525265  0.86596227  0.01420922  1
  O  O262  1  0.25231576  0.87114300  0.50526671  1
  O  O263  1  0.74286224  0.36260482  0.00643842  1
  O  O264  1  0.75887148  0.37914777  0.50193222  1
  O  O265  1  0.75578721  0.86695996  0.01060343  1
  O  O266  1  0.75614841  0.87448647  0.50747319  1
  O  O267  1  0.13473361  0.49173207  0.24677325  1
  O  O268  1  0.12798321  0.49473822  0.74199451  1
  O  O269  1  0.13578735  1.00410389  0.23413184  1
  O  O270  1  0.13692434  1.00672285  0.74504058  1
  O  O271  1  0.63654036  0.49219918  0.24012301  1
  O  O272  1  0.63350897  0.49541021  0.74861773  1
  O  O273  1  0.62544202  0.98947949  0.23690674  1
  O  O274  1  0.62058188  0.99045743  0.74025296  1
  O  O275  1  0.35975646  -0.00259141  0.24744711  1
  O  O276  1  0.36332458  0.00736139  0.75474131  1
  O  O277  1  0.36296097  0.50074982  0.25174454  1
  O  O278  1  0.36659347  0.50711134  0.75466224  1
  O  O279  1  0.88148847  0.00643214  0.25647387  1
  O  O280  1  0.87131269  0.01309328  0.74686920  1
  O  O281  1  0.86264717  0.49715009  0.24185870  1
  O  O282  1  0.86853347  0.50497291  0.75232714  1
  O  O283  1  0.11591312  0.37110606  0.36324284  1
  O  O284  1  0.12888721  0.38110844  0.85851825  1
  O  O285  1  0.11102093  0.87617388  0.38145089  1
  O  O286  1  0.11278700  0.87951082  0.88181055  1
  O  O287  1  0.62563887  0.36735654  0.36724078  1
  O  O288  1  0.61213078  0.38775169  0.86846947  1
  O  O289  1  0.63420841  0.88170943  0.35937598  1
  O  O290  1  0.61328891  0.87635143  0.86803509  1
  O  O291  1  0.38446378  0.13223770  0.12448209  1
  O  O292  1  0.36840135  0.13543125  0.63779296  1
  O  O293  1  0.38441500  0.62886141  0.12760627  1
  O  O294  1  0.37852883  0.62474629  0.63672195  1
  O  O295  1  0.88174396  0.12515999  0.12617610  1
  O  O296  1  0.88846517  0.12120992  0.63505257  1
  O  O297  1  0.88891289  0.63385400  0.11775314  1
  O  O298  1  0.88009614  0.63318317  0.62709778  1
  O  O299  1  0.26152733  0.25836539  0.13212760  1
  O  O300  1  0.25521638  0.25670823  0.61976776  1
  O  O301  1  0.25676364  0.75578920  0.12152589  1
  O  O302  1  0.24869356  0.76056638  0.61849388  1
  O  O303  1  0.75659366  0.25604908  0.11504086  1
  O  O304  1  0.69274890  0.25512601  0.61215995  1
  O  O305  1  0.75925239  0.75377459  0.12092657  1
  O  O306  1  0.76051193  0.76373313  0.62849152  1
  O  O307  1  0.24196888  0.26602050  0.39791743  1
  O  O308  1  0.25487383  0.23749502  0.87432664  1
  O  O309  1  0.24995290  0.74186077  0.38152301  1
  O  O310  1  0.25582029  0.75030761  0.89076047  1
  O  O311  1  0.74408208  0.24026701  0.36805941  1
  O  O312  1  0.75157214  0.25558610  0.88662903  1
  O  O313  1  0.75611736  0.73755922  0.37532416  1
  O  O314  1  0.74883018  0.74541723  0.88117207  1
  O  O315  1  0.01065238  0.12087713  0.01320710  1
  O  O316  1  -0.00554501  0.11819632  0.51363432  1
  O  O317  1  0.00409986  0.62059026  0.00428857  1
  O  O318  1  0.00694707  0.62565332  0.50268959  1
  O  O319  1  0.51682114  0.13044090  0.00702161  1
  O  O320  1  0.49741545  0.11132882  0.49830772  1
  O  O321  1  0.50450833  0.62007948  0.00956324  1
  O  O322  1  0.49519924  0.62681739  0.51398183  1
  O  O323  1  0.50772650  0.37266848  0.48759136  1
  O  O324  1  0.49608457  0.38091950  0.99529747  1
  O  O325  1  0.48935881  0.88361963  0.50121780  1
  O  O326  1  0.50494218  0.86859468  0.99035795  1
  O  O327  1  1.00029758  0.37635849  0.48290507  1
  O  O328  1  1.00040870  0.38178497  1.00519717  1
  O  O329  1  0.99419816  0.87892809  0.49400540  1
  O  O330  1  0.99350197  0.86587327  0.98590821  1
  O  O331  1  0.50071949  0.49024148  0.37383130  1
  O  O332  1  0.49028352  0.49532696  0.88165791  1
  O  O333  1  0.50668291  0.99575891  0.38834934  1
  O  O334  1  0.48203011  0.99229986  0.87590353  1
  O  O335  1  1.00375444  0.48549906  0.36950158  1
  O  O336  1  0.98697737  0.50287052  0.87925872  1
  O  O337  1  0.99128079  0.98998044  0.37716012  1
  O  O338  1  0.99553130  0.98397687  0.86858105  1
  O  O339  1  0.01268276  0.00420721  0.13226282  1
  O  O340  1  0.00903017  0.00313165  0.62436756  1
  O  O341  1  -0.00089399  0.50789554  0.11720482  1
  O  O342  1  0.00975660  0.50721847  0.62504531  1
  O  O343  1  0.50647834  0.01191860  0.12818081  1
  O  O344  1  0.50868772  -0.00428113  0.61845469  1
  O  O345  1  0.50578040  0.50443393  0.12029034  1
  O  O346  1  0.50419364  0.51012673  0.62592800  1
  O  O347  1  0.24364564  0.37971835  0.24298927  1
  O  O348  1  0.23969808  0.37895696  0.73990014  1
  O  O349  1  0.24983766  0.88283184  0.23827556  1
  O  O350  1  0.25277201  0.88497503  0.74228190  1
  O  O351  1  0.74785156  0.38190298  0.24080909  1
  O  O352  1  0.74129719  0.38359409  0.74419147  1
  O  O353  1  0.74279734  0.87028859  0.23739005  1
  O  O354  1  0.73790394  0.87584531  0.74275388  1
  O  O355  1  0.25507002  0.10790381  0.24150986  1
  O  O356  1  0.25546897  0.11971781  0.76042563  1
  O  O357  1  0.24653675  0.61677104  0.25636485  1
  O  O358  1  0.25492434  0.62162978  0.75119452  1
  O  O359  1  0.76502638  0.12777934  0.25272683  1
  O  O360  1  0.76307378  0.12441000  0.74533511  1
  O  O361  1  0.75090656  0.61228476  0.25352931  1
  O  O362  1  0.75401674  0.62137744  0.75187299  1
  O  O363  1  0.36777931  0.17237532  0.35767534  1
  O  O364  1  0.36658230  0.11493343  0.87363185  1
  O  O365  1  0.36042018  0.62147417  0.37363530  1
  O  O366  1  0.37419853  0.62049263  0.86455061  1
  O  O367  1  0.87350605  0.11787514  0.36482532  1
  O  O368  1  0.88136554  0.11800622  0.85802117  1
  O  O369  1  0.86062925  0.61872267  0.37336991  1
  O  O370  1  0.86983836  0.62014302  0.86743496  1
  O  O371  1  0.13184430  0.37596179  0.13619673  1
  O  O372  1  0.12818691  0.38247237  0.63090400  1
  O  O373  1  0.12938383  0.88585772  0.12253827  1
  O  O374  1  0.13579668  0.88580577  0.62171785  1
  O  O375  1  0.63627852  0.37764402  0.12807674  1
  O  O376  1  0.61895478  0.39416135  0.63718712  1
  O  O377  1  0.63346018  0.88319150  0.12908642  1
  O  O378  1  0.62906730  0.88315898  0.63233800  1
  O  O379  1  0.11756227  0.25535196  0.24820609  1
  O  O380  1  0.12168907  0.26353400  0.74939341  1
  O  O381  1  0.11459501  0.74810526  0.24755748  1
  O  O382  1  0.11108421  0.74529150  0.74690000  1
  O  O383  1  0.61933849  0.25527699  0.25176362  1
  O  O384  1  0.61857196  0.26807986  0.76016008  1
  O  O385  1  0.62336971  0.76701345  0.24048286  1
  O  O386  1  0.61646264  0.76220376  0.75042515  1
  O  O387  1  0.39478712  0.26396805  0.22958561  1
  O  O388  1  0.37494065  0.24297492  0.74388056  1
  O  O389  1  0.37769712  0.74571174  0.23838975  1
  O  O390  1  0.37619474  0.74281213  0.75017021  1
  O  O391  1  0.88242587  0.24139355  0.24091400  1
  O  O392  1  0.87786718  0.23603747  0.74870020  1
  O  O393  1  0.88320127  0.75220763  0.23689803  1
  O  O394  1  0.88165773  0.74863014  0.73978900  1
  O  O395  1  0.37912988  0.49302577  0.49765719  1
  O  O396  1  0.37879555  0.49452727  0.99541083  1
  O  O397  1  0.38792401  0.99564542  0.50439416  1
  O  O398  1  0.36895778  1.00384203  0.99001806  1
  O  O399  1  0.88247531  0.47990166  0.50399088  1
  O  O400  1  0.88622997  0.50122625  0.99025702  1
  O  O401  1  0.88282331  0.99232650  0.49281693  1
  O  O402  1  0.87480035  0.98504845  1.00224618  1
  O  O403  1  0.12904480  0.00964306  0.01835872  1
  O  O404  1  0.11872242  0.00318088  0.51213340  1
  O  O405  1  0.11133633  0.50583885  0.00058167  1
  O  O406  1  0.12166203  0.50696557  0.50670460  1
  O  O407  1  0.63006688  0.01349278  0.01077484  1
  O  O408  1  0.61213115  -0.00457431  0.51248611  1
  O  O409  1  0.62177851  0.50612368  0.00540473  1
  O  O410  1  0.62090455  0.50848022  0.50998817  1
  O  O411  1  0.36853385  0.37120913  0.11756721  1
  O  O412  1  0.36457298  0.36781875  0.62801001  1
  O  O413  1  0.36875319  0.86575564  0.12655131  1
  O  O414  1  0.36026158  0.87830008  0.61587982  1
  O  O415  1  0.86426779  0.36793054  0.12371084  1
  O  O416  1  0.86695307  0.36891898  0.61671322  1
  O  O417  1  0.87023567  0.86899102  0.12026703  1
  O  O418  1  0.86777013  0.87171184  0.62311901  1
  O  O419  1  0.10885451  0.13054844  0.38141450  1
  O  O420  1  0.13057036  0.11742483  0.89113238  1
  O  O421  1  0.13328850  0.61908645  0.38638195  1
  O  O422  1  0.12325346  0.62121373  0.88713383  1
  O  O423  1  0.64224006  0.13014991  0.36290188  1
  O  O424  1  0.62035762  0.11639048  0.88656609  1
  O  O425  1  0.64598897  0.61787313  0.37166288  1
  O  O426  1  0.63010042  0.62714485  0.88117144  1
