# generated using pymatgen
data_V85Zn86O256
_symmetry_space_group_name_H-M   'P 1'
_cell_length_a   16.92567589
_cell_length_b   16.93839592
_cell_length_c   16.93191586
_cell_angle_alpha   89.93103250
_cell_angle_beta   90.03306271
_cell_angle_gamma   89.94654470
_symmetry_Int_Tables_number   1
_chemical_formula_structural   V85Zn86O256
_chemical_formula_sum   'V85 Zn86 O256'
_cell_volume   4854.26884957
_cell_formula_units_Z   1
loop_
 _symmetry_equiv_pos_site_id
 _symmetry_equiv_pos_as_xyz
  1  'x, y, z'
loop_
 _atom_site_type_symbol
 _atom_site_label
 _atom_site_symmetry_multiplicity
 _atom_site_fract_x
 _atom_site_fract_y
 _atom_site_fract_z
 _atom_site_occupancy
  V  V0  1  0.62505656  0.87670102  0.74823044  1
  V  V1  1  0.12330283  0.75491454  0.36261904  1
  V  V2  1  0.24406936  0.50041202  0.25138690  1
  V  V3  1  0.87364797  0.00729876  0.37637444  1
  V  V4  1  0.25307701  0.74853088  0.00202279  1
  V  V5  1  -0.00227461  0.50075074  0.00351442  1
  V  V6  1  0.62046784  0.12418772  0.00201355  1
  V  V7  1  0.75522665  0.24660870  0.49543500  1
  V  V8  1  0.12583776  0.37780844  0.75079503  1
  V  V9  1  -0.00094475  0.87424885  0.87385196  1
  V  V10  1  0.75572368  0.87317251  0.62559262  1
  V  V11  1  0.87257206  0.00176013  0.87339879  1
  V  V12  1  0.26129595  0.00076872  0.24811149  1
  V  V13  1  0.26210831  0.62114020  0.87013297  1
  V  V14  1  0.63300064  0.24138278  0.37196439  1
  V  V15  1  0.24608752  0.37283475  0.12879193  1
  V  V16  1  0.74930462  0.00939380  0.25263876  1
  V  V17  1  0.86825822  0.87489831  0.00400165  1
  V  V18  1  0.25653902  0.37493281  0.61801811  1
  V  V19  1  0.37386679  0.87303778  0.00604766  1
  V  V20  1  -0.00042129  -0.00032809  0.00026360  1
  V  V21  1  0.87351443  0.12750513  0.74775029  1
  V  V22  1  0.25208493  0.89026939  0.62521992  1
  V  V23  1  0.87776781  0.63397914  0.25170564  1
  V  V24  1  0.74802213  0.12710150  0.87311415  1
  V  V25  1  0.12495707  -0.00436612  0.13616843  1
  V  V26  1  0.00421785  0.87467103  0.36088541  1
  V  V27  1  0.26334111  0.50184667  0.75310848  1
  V  V28  1  0.12312654  0.62409113  -0.00226773  1
  V  V29  1  0.62124679  0.12143599  0.50654176  1
  V  V30  1  0.62641495  0.37775058  0.25018629  1
  V  V31  1  0.37662751  0.50553832  0.38169023  1
  V  V32  1  -0.00850385  0.12341691  0.12641679  1
  V  V33  1  0.12385458  0.88161720  0.74397275  1
  V  V34  1  0.75105776  0.25120784  0.00393418  1
  V  V35  1  0.87529832  0.37354577  0.00861535  1
  V  V36  1  0.87962802  0.86781998  0.50230620  1
  V  V37  1  0.12892627  0.12106890  -0.00220497  1
  V  V38  1  0.49659734  0.87601715  0.87641738  1
  V  V39  1  0.12259705  0.50212673  0.62346058  1
  V  V40  1  0.74790934  0.62503610  0.87803187  1
  V  V41  1  0.50095435  0.87857500  0.38353130  1
  V  V42  1  0.49512095  0.38653486  0.87725447  1
  V  V43  1  0.74807650  0.38200218  0.61956254  1
  V  V44  1  0.62405416  0.38175516  0.74550662  1
  V  V45  1  0.11782285  0.49606685  0.12872411  1
  V  V46  1  0.30809655  0.19084527  0.55656015  1
  V  V47  1  0.12732277  0.24572158  0.87383907  1
  V  V48  1  0.87298677  0.63256733  0.74736978  1
  V  V49  1  0.87294772  0.49967416  0.87422343  1
  V  V50  1  0.48903207  0.75352141  0.24284507  1
  V  V51  1  0.63448546  0.87134555  0.24855547  1
  V  V52  1  0.12755191  0.25876251  0.36903827  1
  V  V53  1  0.62370445  0.74950847  0.37997621  1
  V  V54  1  0.36461274  0.00823162  0.87408145  1
  V  V55  1  0.25122956  0.24720219  -0.00285739  1
  V  V56  1  0.25403351  0.12956502  0.36609220  1
  V  V57  1  0.74578323  0.38165495  0.12185068  1
  V  V58  1  -0.00023299  0.25803667  0.24169240  1
  V  V59  1  0.37526044  0.38441296  -0.00357704  1
  V  V60  1  0.61022010  0.61913654  0.00657537  1
  V  V61  1  0.48250638  0.62088677  0.62915838  1
  V  V62  1  0.37770793  0.00147783  0.38326189  1
  V  V63  1  0.24860574  0.86872639  0.13267423  1
  V  V64  1  0.00570346  -0.00271839  0.50229233  1
  V  V65  1  -0.00404761  0.63226730  0.62247906  1
  V  V66  1  0.00313860  0.12369709  0.62288030  1
  V  V67  1  0.49629590  0.24180175  0.24745876  1
  V  V68  1  0.62682231  0.62023351  0.51534552  1
  V  V69  1  -0.00163832  0.25240077  0.74999922  1
  V  V70  1  0.50208117  0.37667318  0.37814939  1
  V  V71  1  0.48546041  0.74846602  0.74464158  1
  V  V72  1  0.62326833  0.74899555  0.87653987  1
  V  V73  1  0.61804699  0.25126035  0.87354181  1
  V  V74  1  0.87769764  0.25950360  0.61745053  1
  V  V75  1  0.74982251  0.62418599  0.37611275  1
  V  V76  1  0.49340081  0.24575202  0.73674600  1
  V  V77  1  0.12659162  0.12718664  0.49890950  1
  V  V78  1  0.62872160  -0.00622692  0.12404233  1
  V  V79  1  0.12385152  0.74784627  0.87105136  1
  V  V80  1  0.00044292  0.63579144  0.13036125  1
  V  V81  1  0.25264932  0.74807937  0.51092986  1
  V  V82  1  0.25152718  0.62956789  0.37148317  1
  V  V83  1  0.42961230  0.57844603  0.19445680  1
  V  V84  1  0.74750304  0.75050339  0.01011150  1
  Zn  Zn85  1  0.12043325  0.62592964  0.49727965  1
  Zn  Zn86  1  0.87213256  0.12967758  0.25038254  1
  Zn  Zn87  1  0.75450137  0.74838825  0.50681516  1
  Zn  Zn88  1  -0.00151345  0.37549646  0.87658284  1
  Zn  Zn89  1  -0.01364372  0.49146227  0.50217137  1
  Zn  Zn90  1  0.74531928  0.50846232  0.24590808  1
  Zn  Zn91  1  0.87747783  0.49839840  0.37726967  1
  Zn  Zn92  1  0.74568457  0.50343847  0.74524917  1
  Zn  Zn93  1  0.37541223  0.36919298  0.50329628  1
  Zn  Zn94  1  0.87528513  0.75827003  0.13188235  1
  Zn  Zn95  1  0.24151475  0.01333034  0.75021233  1
  Zn  Zn96  1  0.49751481  -0.00062331  0.00264568  1
  Zn  Zn97  1  -0.00606386  0.37603112  0.38318458  1
  Zn  Zn98  1  0.50327202  0.49480930  0.51060587  1
  Zn  Zn99  1  0.60539228  0.50237341  0.12394212  1
  Zn  Zn100  1  0.37067068  0.12996929  0.74256641  1
  Zn  Zn101  1  0.36682755  0.23900439  0.12987622  1
  Zn  Zn102  1  0.61676096  -0.00170355  0.62081886  1
  Zn  Zn103  1  0.74639355  0.00423808  0.74566320  1
  Zn  Zn104  1  0.38227711  0.87273362  0.50966429  1
  Zn  Zn105  1  -0.00554878  0.75414022  0.74397406  1
  Zn  Zn106  1  0.49277761  0.11581465  0.13206677  1
  Zn  Zn107  1  0.18293012  0.18295426  0.18645817  1
  Zn  Zn108  1  0.18480327  0.18385858  0.69173244  1
  Zn  Zn109  1  0.19016193  0.68390345  0.18767579  1
  Zn  Zn110  1  0.18589895  0.68585183  0.69027642  1
  Zn  Zn111  1  0.68492796  0.18805174  0.18346065  1
  Zn  Zn112  1  0.68674244  0.19335229  0.68449677  1
  Zn  Zn113  1  0.68231748  0.68807963  0.18771030  1
  Zn  Zn114  1  0.68857890  0.69369665  0.69034044  1
  Zn  Zn115  1  0.31359166  0.31540197  0.31527147  1
  Zn  Zn116  1  0.31155109  0.31272685  0.81161965  1
  Zn  Zn117  1  0.31251162  0.81623755  0.31765514  1
  Zn  Zn118  1  0.30836434  0.81657159  0.81343647  1
  Zn  Zn119  1  0.81518350  0.31052738  0.30865320  1
  Zn  Zn120  1  0.80987864  0.31453581  0.81322703  1
  Zn  Zn121  1  0.81314844  0.81405430  0.31776529  1
  Zn  Zn122  1  0.80863250  0.81273963  0.81673267  1
  Zn  Zn123  1  0.18341330  0.43820412  0.43957274  1
  Zn  Zn124  1  0.18816597  0.43703541  0.93712953  1
  Zn  Zn125  1  0.18865249  0.93795527  0.43839608  1
  Zn  Zn126  1  0.18653846  0.93445497  0.93913479  1
  Zn  Zn127  1  0.69168893  0.43958724  0.44017925  1
  Zn  Zn128  1  0.68254774  0.44099543  0.93626867  1
  Zn  Zn129  1  0.69254220  0.93785096  0.43719043  1
  Zn  Zn130  1  0.68726126  0.93792075  0.93501364  1
  Zn  Zn131  1  0.31384888  0.06144381  0.06261697  1
  Zn  Zn132  1  0.44669910  0.05819653  0.55840007  1
  Zn  Zn133  1  0.30661828  0.56127408  0.05912020  1
  Zn  Zn134  1  0.30937315  0.55909839  0.56009496  1
  Zn  Zn135  1  0.80704043  0.05940808  0.06269750  1
  Zn  Zn136  1  0.81081693  0.06145873  0.56141455  1
  Zn  Zn137  1  0.81258699  0.56573627  0.06532055  1
  Zn  Zn138  1  0.81639452  0.56214792  0.56076970  1
  Zn  Zn139  1  0.42916262  0.41403680  0.19139701  1
  Zn  Zn140  1  0.43843523  0.43461900  0.68852016  1
  Zn  Zn141  1  0.44083340  0.93359103  0.18946542  1
  Zn  Zn142  1  0.43365422  0.93542677  0.69132687  1
  Zn  Zn143  1  0.92057070  0.42880179  0.21399403  1
  Zn  Zn144  1  0.93652125  0.44127468  0.68678466  1
  Zn  Zn145  1  0.93360266  0.94007792  0.18700786  1
  Zn  Zn146  1  0.93765168  0.94027618  0.68577894  1
  Zn  Zn147  1  0.06427763  0.06398671  0.31298144  1
  Zn  Zn148  1  0.06081058  0.06345057  0.81291649  1
  Zn  Zn149  1  0.06079922  0.56378399  0.31436906  1
  Zn  Zn150  1  0.06038498  0.56260176  0.81021411  1
  Zn  Zn151  1  0.56671636  0.06038318  0.31710835  1
  Zn  Zn152  1  0.55581483  0.06178405  0.80986163  1
  Zn  Zn153  1  0.56782874  0.56174233  0.31986827  1
  Zn  Zn154  1  0.55982004  0.56478084  0.81107342  1
  Zn  Zn155  1  0.44249703  0.18591212  0.42478225  1
  Zn  Zn156  1  0.43764717  0.18976565  0.93867726  1
  Zn  Zn157  1  0.43822791  0.68903817  0.44113683  1
  Zn  Zn158  1  0.43553979  0.69039012  0.93635187  1
  Zn  Zn159  1  0.94232268  0.19181215  0.43396482  1
  Zn  Zn160  1  0.93835341  0.18934659  0.93903183  1
  Zn  Zn161  1  0.94146243  0.68592365  0.43612219  1
  Zn  Zn162  1  0.93584943  0.68825893  0.93814583  1
  Zn  Zn163  1  0.06198892  0.31179616  0.06498293  1
  Zn  Zn164  1  0.06790453  0.31133598  0.56027017  1
  Zn  Zn165  1  0.06539715  0.81503010  0.05959011  1
  Zn  Zn166  1  0.06901834  0.81030483  0.55872012  1
  Zn  Zn167  1  0.56034590  0.31360215  0.06213275  1
  Zn  Zn168  1  0.56773069  0.30941438  0.56036987  1
  Zn  Zn169  1  0.56291982  0.81088169  0.06482099  1
  Zn  Zn170  1  0.56462181  0.80934708  0.56707056  1
  O  O171  1  0.11686836  0.11302071  0.11645937  1
  O  O172  1  0.11110825  0.13313929  0.61609202  1
  O  O173  1  0.12024063  0.61635589  0.11951355  1
  O  O174  1  0.11635942  0.61662903  0.62697930  1
  O  O175  1  0.62070946  0.11685193  0.11670181  1
  O  O176  1  0.62742174  0.12509755  0.61040069  1
  O  O177  1  0.62417331  0.62218312  0.11161684  1
  O  O178  1  0.62346222  0.62945343  0.61728576  1
  O  O179  1  0.38356130  0.38576122  0.37657555  1
  O  O180  1  0.37931610  0.37058200  0.88798221  1
  O  O181  1  0.38429246  0.88284271  0.37879665  1
  O  O182  1  0.37898069  0.88006784  0.88469375  1
  O  O183  1  0.88932174  0.39116725  0.32852227  1
  O  O184  1  0.87341776  0.38325401  0.88569521  1
  O  O185  1  0.88500355  0.88406519  0.38189647  1
  O  O186  1  0.87938750  0.88102433  0.88218498  1
  O  O187  1  0.25700819  0.00414393  0.36733374  1
  O  O188  1  0.26178164  -0.00644416  0.87470878  1
  O  O189  1  0.25537718  0.50489831  0.36913277  1
  O  O190  1  0.24093245  0.50944729  0.86538123  1
  O  O191  1  0.76095128  -0.00272514  0.36558552  1
  O  O192  1  0.75561905  0.00935668  0.87233734  1
  O  O193  1  0.74551273  0.51551588  0.37112974  1
  O  O194  1  0.75907217  0.50561624  0.87545298  1
  O  O195  1  0.24210795  0.49444269  0.13211817  1
  O  O196  1  0.24349206  0.49337895  0.63307690  1
  O  O197  1  0.24465058  0.99268301  0.13117292  1
  O  O198  1  0.24599717  0.98769065  0.62615731  1
  O  O199  1  0.74457412  0.48976394  0.12273503  1
  O  O200  1  0.75362176  0.48546531  0.62656983  1
  O  O201  1  0.73730951  1.00016520  0.13311724  1
  O  O202  1  0.74420148  0.98952235  0.62669318  1
  O  O203  1  0.01081134  0.35713587  0.22789940  1
  O  O204  1  0.00772558  0.37029890  0.75056907  1
  O  O205  1  -0.00224900  0.88048880  0.26146243  1
  O  O206  1  0.00499935  0.87355288  0.75407345  1
  O  O207  1  0.50955707  0.36711349  0.25958292  1
  O  O208  1  0.50536424  0.36571512  0.75710690  1
  O  O209  1  0.50944619  0.86571814  0.26039742  1
  O  O210  1  0.50404132  0.86420568  0.75667797  1
  O  O211  1  0.50749245  0.13912392  0.25290417  1
  O  O212  1  0.49445175  0.14029942  0.75219841  1
  O  O213  1  0.49689464  0.63399577  0.25342106  1
  O  O214  1  0.50333454  0.63689503  0.74007276  1
  O  O215  1  0.99873253  0.12683045  0.23984254  1
  O  O216  1  0.99618997  0.13091066  0.74090626  1
  O  O217  1  0.99238526  0.62631673  0.24161302  1
  O  O218  1  0.99031802  0.62746285  0.74340466  1
  O  O219  1  0.35922470  0.25341182  -0.00315923  1
  O  O220  1  0.37027731  0.24701917  0.49653014  1
  O  O221  1  0.36117141  0.75715684  -0.00440010  1
  O  O222  1  0.35685454  0.75462829  0.49110150  1
  O  O223  1  0.86340677  0.26014137  -0.00550725  1
  O  O224  1  0.86982765  0.24630288  0.50642710  1
  O  O225  1  0.86536953  0.75823662  -0.00034867  1
  O  O226  1  0.87611935  0.76447515  0.49317631  1
  O  O227  1  0.11922387  0.23495189  0.48527067  1
  O  O228  1  0.13116674  0.24436986  0.99367932  1
  O  O229  1  0.13928257  0.74745612  0.49000430  1
  O  O230  1  0.13369416  0.74715046  0.98873944  1
  O  O231  1  0.63214436  0.24055749  0.49098916  1
  O  O232  1  0.62811747  0.24405874  0.99333560  1
  O  O233  1  0.62618855  0.73944623  0.49499194  1
  O  O234  1  0.62951624  0.74311456  0.99626075  1
  O  O235  1  0.50326357  0.25072857  0.14126275  1
  O  O236  1  0.50172434  0.25414329  0.63832843  1
  O  O237  1  0.50197271  0.75291163  0.14362018  1
  O  O238  1  0.49978932  0.74239170  0.63823656  1
  O  O239  1  1.00867911  0.23581403  0.13210997  1
  O  O240  1  0.99362958  0.24474345  0.62877795  1
  O  O241  1  1.00295043  0.73875575  0.11781581  1
  O  O242  1  1.00646603  0.73704294  0.62568277  1
  O  O243  1  0.00802166  0.25439265  0.36054235  1
  O  O244  1  0.00992966  0.25355348  0.87105780  1
  O  O245  1  0.01554322  0.75823898  0.37928538  1
  O  O246  1  0.00782837  0.75570050  0.87457303  1
  O  O247  1  0.51029268  0.25760843  0.36482190  1
  O  O248  1  0.50905008  0.25709565  0.87289186  1
  O  O249  1  0.50964540  0.75313473  0.36943659  1
  O  O250  1  0.50289817  0.75808427  0.86702298  1
  O  O251  1  0.24579361  0.13257978  0.49524636  1
  O  O252  1  0.23656081  0.13162387  1.00443168  1
  O  O253  1  0.24851877  0.63350923  0.49100185  1
  O  O254  1  0.24208459  0.63118306  0.99337940  1
  O  O255  1  0.74227923  0.13912135  0.50341906  1
  O  O256  1  0.74018675  0.13320247  0.99690139  1
  O  O257  1  0.74070734  0.62881137  0.49750225  1
  O  O258  1  0.74321057  0.63252722  0.99538279  1
  O  O259  1  0.25519703  0.36814343  0.00634632  1
  O  O260  1  0.24973547  0.37721563  0.51384563  1
  O  O261  1  0.25504840  0.86720596  0.00790582  1
  O  O262  1  0.24733989  0.86713500  0.51284017  1
  O  O263  1  0.75219183  0.37048923  0.00390384  1
  O  O264  1  0.74078042  0.36091766  0.50848536  1
  O  O265  1  0.75761113  0.86533731  -0.00788210  1
  O  O266  1  0.76091880  0.87463281  0.50686829  1
  O  O267  1  0.13641625  0.50420904  0.24294248  1
  O  O268  1  0.12797979  0.49241209  0.74181678  1
  O  O269  1  0.13463623  1.00211608  0.24000289  1
  O  O270  1  0.12444637  0.98634275  0.75755107  1
  O  O271  1  0.62409222  0.49218300  0.24610356  1
  O  O272  1  0.62633148  0.48578391  0.75605969  1
  O  O273  1  0.63139284  0.99291344  0.24597950  1
  O  O274  1  0.62378032  0.98640339  0.75364637  1
  O  O275  1  0.36567822  -0.00707209  0.25741084  1
  O  O276  1  0.37285610  0.00042716  0.76630462  1
  O  O277  1  0.37103813  0.50658604  0.25227076  1
  O  O278  1  0.36239474  0.49415595  0.75183201  1
  O  O279  1  0.86529088  0.00136151  0.25648522  1
  O  O280  1  0.87401819  0.00961392  0.75629369  1
  O  O281  1  0.86432721  0.52406487  0.24531927  1
  O  O282  1  0.87172065  0.50841866  0.76002603  1
  O  O283  1  0.13180029  0.36078277  0.37292802  1
  O  O284  1  0.12269373  0.37040898  0.86427642  1
  O  O285  1  0.12020397  0.86430015  0.37752782  1
  O  O286  1  0.11976332  0.86686291  0.86974603  1
  O  O287  1  0.62071720  0.36985488  0.36801022  1
  O  O288  1  0.61788626  0.36777754  0.87077509  1
  O  O289  1  0.62088591  0.86877539  0.37175428  1
  O  O290  1  0.61485868  0.87049496  0.87114924  1
  O  O291  1  0.38115407  0.12822754  0.11941737  1
  O  O292  1  0.36782205  0.12999565  0.61250729  1
  O  O293  1  0.36898618  0.62665368  0.13247930  1
  O  O294  1  0.38422168  0.62513341  0.62196537  1
  O  O295  1  0.88813484  0.11650346  0.12196248  1
  O  O296  1  0.88425521  0.13379896  0.62726189  1
  O  O297  1  0.88438120  0.63251738  0.12952975  1
  O  O298  1  0.88104940  0.62259021  0.63607751  1
  O  O299  1  0.24356745  0.25722223  0.11802768  1
  O  O300  1  0.25134774  0.25264282  0.61852368  1
  O  O301  1  0.24168940  0.75692888  0.11514024  1
  O  O302  1  0.24583300  0.74838237  0.61290513  1
  O  O303  1  0.74010526  0.26255906  0.11116458  1
  O  O304  1  0.75969359  0.25704937  0.61719124  1
  O  O305  1  0.74960500  0.74853980  0.11307705  1
  O  O306  1  0.74841304  0.76647888  0.62454027  1
  O  O307  1  0.24317872  0.23997322  0.36252206  1
  O  O308  1  0.23553382  0.25650578  0.88217021  1
  O  O309  1  0.24278856  0.74591218  0.37957577  1
  O  O310  1  0.24216418  0.74406504  0.87975356  1
  O  O311  1  0.74467748  0.25651905  0.38071811  1
  O  O312  1  0.73757365  0.24841228  0.88363071  1
  O  O313  1  0.73844094  0.74337251  0.37977667  1
  O  O314  1  0.74134516  0.74375639  0.88401214  1
  O  O315  1  0.00802900  0.12007007  0.00586707  1
  O  O316  1  0.00683927  0.11885422  0.50349602  1
  O  O317  1  0.00419135  0.61946400  0.00627012  1
  O  O318  1  0.00093049  0.62094205  0.50953202  1
  O  O319  1  0.51247166  0.12339832  -0.00116414  1
  O  O320  1  0.51520391  0.12987921  0.49538298  1
  O  O321  1  0.51184995  0.63231732  -0.00164424  1
  O  O322  1  0.50727679  0.62811067  0.51665179  1
  O  O323  1  0.50190826  0.37377649  0.48914076  1
  O  O324  1  0.48403337  0.36869913  0.99440685  1
  O  O325  1  0.50128735  0.86556286  0.48812965  1
  O  O326  1  0.49139002  0.87175576  0.99351778  1
  O  O327  1  1.00750947  0.37756623  0.49677713  1
  O  O328  1  0.99033052  0.37968922  1.00155306  1
  O  O329  1  0.99776816  0.88246340  0.49693903  1
  O  O330  1  0.99340383  0.88121171  0.99242041  1
  O  O331  1  0.49263115  0.49312096  0.37611776  1
  O  O332  1  0.50120286  0.48587198  0.87036310  1
  O  O333  1  0.49210304  0.99006916  0.36734959  1
  O  O334  1  0.49176145  0.98739294  0.87718692  1
  O  O335  1  1.00151403  0.49634253  0.37932695  1
  O  O336  1  0.98841153  0.49918241  0.88146962  1
  O  O337  1  0.99806684  0.99285176  0.38309382  1
  O  O338  1  0.99205814  0.99642529  0.88168232  1
  O  O339  1  0.00776455  0.00262503  0.11960602  1
  O  O340  1  -0.00341372  0.00922264  0.61165322  1
  O  O341  1  0.00714857  0.50922753  0.12329369  1
  O  O342  1  0.00714206  0.50983975  0.62627746  1
  O  O343  1  0.51272910  -0.00219109  0.12434112  1
  O  O344  1  0.50309002  -0.00764947  0.62626053  1
  O  O345  1  0.48336189  0.50887258  0.14060827  1
  O  O346  1  0.49798204  0.51582831  0.62946424  1
  O  O347  1  0.25872011  0.38423965  0.23688293  1
  O  O348  1  0.24283348  0.37988289  0.74348421  1
  O  O349  1  0.25404473  0.87973575  0.23806701  1
  O  O350  1  0.24197381  0.87614441  0.73918746  1
  O  O351  1  0.73765687  0.37334267  0.23917057  1
  O  O352  1  0.74016001  0.37341151  0.74192194  1
  O  O353  1  0.73863550  0.88229064  0.25637045  1
  O  O354  1  0.74235544  0.87689937  0.74579629  1
  O  O355  1  0.24778973  0.11382518  0.25549702  1
  O  O356  1  0.25691392  0.12494302  0.74957705  1
  O  O357  1  0.24996137  0.61747269  0.26281205  1
  O  O358  1  0.24523536  0.61504532  0.75834824  1
  O  O359  1  0.75109039  0.11476798  0.24421890  1
  O  O360  1  0.75411514  0.12778504  0.75443821  1
  O  O361  1  0.75106872  0.62972466  0.26007124  1
  O  O362  1  0.75402249  0.62390952  0.75737691  1
  O  O363  1  0.36383046  0.11781040  0.37586238  1
  O  O364  1  0.37914099  0.10898458  0.88022897  1
  O  O365  1  0.36936711  0.61395776  0.38037657  1
  O  O366  1  0.36129118  0.62588986  0.87958762  1
  O  O367  1  0.88427281  0.11071910  0.37354442  1
  O  O368  1  0.86870463  0.12332514  0.87001137  1
  O  O369  1  0.86576345  0.62945834  0.36878929  1
  O  O370  1  0.86883072  0.61712813  0.87192661  1
  O  O371  1  0.13329716  0.38772276  0.11691091  1
  O  O372  1  0.13282126  0.37803394  0.63604027  1
  O  O373  1  0.13535602  0.88528016  0.11746258  1
  O  O374  1  0.13491951  0.86833126  0.63461825  1
  O  O375  1  0.62584250  0.38169137  0.13016985  1
  O  O376  1  0.63401907  0.36901832  0.63388343  1
  O  O377  1  0.62275249  0.88062405  0.13563673  1
  O  O378  1  0.63217562  0.87565986  0.63352975  1
  O  O379  1  0.11207409  0.23829375  0.25811947  1
  O  O380  1  0.11923140  0.25713629  0.75662106  1
  O  O381  1  0.13167921  0.74976172  0.26359246  1
  O  O382  1  0.12354267  0.75845279  0.76042395  1
  O  O383  1  0.62046060  0.25671940  0.25547704  1
  O  O384  1  0.61579000  0.25664369  0.75669684  1
  O  O385  1  0.61871064  0.75591385  0.25898424  1
  O  O386  1  0.61777330  0.76089911  0.75748648  1
  O  O387  1  0.39281968  0.25787779  0.25046589  1
  O  O388  1  0.38962258  0.25138673  0.75429064  1
  O  O389  1  0.39003550  0.75660117  0.25585243  1
  O  O390  1  0.38737583  0.75357979  0.75616700  1
  O  O391  1  0.89310605  0.24443045  0.24842743  1
  O  O392  1  0.88011888  0.24612959  0.74438962  1
  O  O393  1  0.86884173  0.74204685  0.24806724  1
  O  O394  1  0.87519990  0.73665138  0.76014462  1
  O  O395  1  0.38030705  0.49444778  0.49375853  1
  O  O396  1  0.36716066  0.48299590  1.00249659  1
  O  O397  1  0.37642874  0.99573128  0.48671631  1
  O  O398  1  0.37535718  0.99040003  0.99018770  1
  O  O399  1  0.87035164  0.49631916  0.49149097  1
  O  O400  1  0.87841982  0.49473554  0.99495938  1
  O  O401  1  0.88288994  0.99368813  0.49321059  1
  O  O402  1  0.87601498  0.99384432  0.99326453  1
  O  O403  1  0.12087948  0.00624244  0.00466472  1
  O  O404  1  0.11785625  0.01347324  0.49325292  1
  O  O405  1  0.11847313  0.50444016  0.00661172  1
  O  O406  1  0.12908550  0.50446287  0.51608959  1
  O  O407  1  0.62533658  0.00606399  0.00686881  1
  O  O408  1  0.63283808  0.01885707  0.49476959  1
  O  O409  1  0.62097840  0.51411335  0.00174780  1
  O  O410  1  0.62029245  0.51653465  0.49516613  1
  O  O411  1  0.36483183  0.36307287  0.11249848  1
  O  O412  1  0.36491799  0.37577826  0.62297463  1
  O  O413  1  0.36717078  0.88038125  0.11310299  1
  O  O414  1  0.35752245  0.87469372  0.62597267  1
  O  O415  1  0.86418363  0.38078315  0.11536873  1
  O  O416  1  0.86785824  0.36363023  0.63243918  1
  O  O417  1  0.87981780  0.87544737  0.10903681  1
  O  O418  1  0.86954384  0.88063855  0.61533178  1
  O  O419  1  0.13739903  0.12826289  0.38015133  1
  O  O420  1  0.11845679  0.13387829  0.88450592  1
  O  O421  1  0.13251226  0.63699278  0.37608600  1
  O  O422  1  0.12678234  0.63256980  0.87893728  1
  O  O423  1  0.62638776  0.13696255  0.38159450  1
  O  O424  1  0.62792162  0.13118012  0.87992664  1
  O  O425  1  0.62953649  0.63334177  0.38525297  1
  O  O426  1  0.62790888  0.62883180  0.88377146  1
