# generated using pymatgen
data_V85Zn86O256
_symmetry_space_group_name_H-M   'P 1'
_cell_length_a   16.94523116
_cell_length_b   16.95993716
_cell_length_c   16.95565833
_cell_angle_alpha   89.98159964
_cell_angle_beta   90.02610531
_cell_angle_gamma   89.94875904
_symmetry_Int_Tables_number   1
_chemical_formula_structural   V85Zn86O256
_chemical_formula_sum   'V85 Zn86 O256'
_cell_volume   4872.88488402
_cell_formula_units_Z   1
loop_
 _symmetry_equiv_pos_site_id
 _symmetry_equiv_pos_as_xyz
  1  'x, y, z'
loop_
 _atom_site_type_symbol
 _atom_site_label
 _atom_site_symmetry_multiplicity
 _atom_site_fract_x
 _atom_site_fract_y
 _atom_site_fract_z
 _atom_site_occupancy
  V  V0  1  0.50029990  0.12652718  0.62224942  1
  V  V1  1  0.12008206  0.74410751  0.38130875  1
  V  V2  1  0.12178028  0.24933394  0.36898697  1
  V  V3  1  0.12513771  0.24767221  0.87419540  1
  V  V4  1  0.61543712  0.87110528  0.74686152  1
  V  V5  1  0.37439423  0.25467727  0.62384702  1
  V  V6  1  0.75137944  0.50093571  0.25115576  1
  V  V7  1  0.56072062  0.31602460  0.91797305  1
  V  V8  1  0.49349526  -0.00844536  0.50179787  1
  V  V9  1  0.62948227  0.87478029  0.24572260  1
  V  V10  1  0.35616247  0.49724174  0.87131021  1
  V  V11  1  0.37567891  0.12530388  0.74971683  1
  V  V12  1  0.24957754  0.12236971  0.87395084  1
  V  V13  1  0.75599176  0.11606493  0.37808851  1
  V  V14  1  0.63161443  0.61896160  -0.01075226  1
  V  V15  1  0.62829154  0.37513614  0.75162682  1
  V  V16  1  0.62259228  0.50387570  0.62168718  1
  V  V17  1  -0.00037925  0.75063731  0.24696693  1
  V  V18  1  0.75065782  0.62604755  0.37556187  1
  V  V19  1  0.11592813  0.37389954  0.24825129  1
  V  V20  1  0.75398642  0.37245813  0.12615042  1
  V  V21  1  0.37488501  0.38278590  0.50014341  1
  V  V22  1  0.87742776  0.12385516  0.75039570  1
  V  V23  1  0.87739738  0.24956131  0.62442554  1
  V  V24  1  0.87263818  -0.00384038  0.87783912  1
  V  V25  1  0.76626646  0.50831294  0.75759493  1
  V  V26  1  0.24664371  0.38115961  0.62424390  1
  V  V27  1  0.37520923  0.37332126  -0.00461878  1
  V  V28  1  0.25566516  0.11173411  0.36939355  1
  V  V29  1  0.75537889  -0.00250988  0.24525073  1
  V  V30  1  0.25384484  0.76334480  -0.00798296  1
  V  V31  1  -0.00266578  0.62667254  0.11691733  1
  V  V32  1  0.74785672  -0.00084314  0.75236898  1
  V  V33  1  0.13240248  0.63274168  -0.01145593  1
  V  V34  1  0.00287205  0.24888396  0.74895931  1
  V  V35  1  0.87510613  0.87906954  0.49891785  1
  V  V36  1  0.62015962  0.75518641  0.37627458  1
  V  V37  1  0.12437817  0.87016603  0.75149460  1
  V  V38  1  0.50225274  0.25621102  0.74989262  1
  V  V39  1  0.00105421  0.51355074  0.49738115  1
  V  V40  1  0.24684264  0.74739496  0.50335051  1
  V  V41  1  0.75222025  0.87446780  0.62701871  1
  V  V42  1  0.24960452  0.37556029  0.12621523  1
  V  V43  1  0.44428745  0.93167654  0.32003871  1
  V  V44  1  0.74871563  0.74874179  0.50203548  1
  V  V45  1  0.49878874  0.37910001  0.38081434  1
  V  V46  1  0.88115747  0.12437046  0.25603073  1
  V  V47  1  0.37070443  0.24802365  0.12942696  1
  V  V48  1  0.14251404  -0.00349504  0.12819172  1
  V  V49  1  0.87783049  0.73930811  0.63345192  1
  V  V50  1  0.62652787  0.25110875  0.37802718  1
  V  V51  1  0.49207203  0.73718015  0.25275684  1
  V  V52  1  -0.00324233  0.87723791  0.37363046  1
  V  V53  1  0.24524988  0.62393316  0.37468621  1
  V  V54  1  0.75281448  0.24930199  0.49996600  1
  V  V55  1  0.12175961  0.51554988  0.62120461  1
  V  V56  1  0.39138691  -0.01212694  0.88570350  1
  V  V57  1  -0.00162461  0.73930181  0.75233719  1
  V  V58  1  0.13669849  0.87669575  0.24698287  1
  V  V59  1  0.50981394  0.12792271  0.11130815  1
  V  V60  1  0.00100201  0.87543644  0.87432269  1
  V  V61  1  0.25270999  0.50414945  0.24886587  1
  V  V62  1  0.12336758  0.12167839  0.00109140  1
  V  V63  1  0.50081720  0.49777775  -0.01422736  1
  V  V64  1  -0.00020372  0.00006972  0.49851683  1
  V  V65  1  0.12094174  0.50389408  0.11848180  1
  V  V66  1  0.25116104  -0.00353095  0.74966830  1
  V  V67  1  0.36281206  0.62015832  0.75494459  1
  V  V68  1  0.62400678  0.12348218  0.50091943  1
  V  V69  1  0.73861463  0.13651384  0.87463105  1
  V  V70  1  0.37815459  0.50943024  0.37490253  1
  V  V71  1  0.12821885  0.12499789  0.49953287  1
  V  V72  1  -0.00639982  -0.00540128  0.00537109  1
  V  V73  1  0.48962212  0.61929487  0.12749669  1
  V  V74  1  0.49624632  0.24602582  0.25746277  1
  V  V75  1  0.37739871  0.75039435  0.62782177  1
  V  V76  1  0.60266139  0.78147600  0.90400655  1
  V  V77  1  0.00132610  0.12611138  0.13142670  1
  V  V78  1  0.86987288  0.76683211  0.12426114  1
  V  V79  1  0.62322677  0.50045616  0.12681052  1
  V  V80  1  -0.00210594  0.37791830  0.88111876  1
  V  V81  1  0.12945431  0.37837876  0.74722059  1
  V  V82  1  0.74974994  0.76854626  0.00415651  1
  V  V83  1  0.87688832  0.24277722  0.12443151  1
  V  V84  1  0.75587036  0.37823752  0.62534782  1
  Zn  Zn85  1  0.25041449  0.25062890  0.49595365  1
  Zn  Zn86  1  0.62416026  -0.00053521  0.62299860  1
  Zn  Zn87  1  0.37364134  0.10977489  0.25085253  1
  Zn  Zn88  1  0.37266784  0.87638094  0.49808261  1
  Zn  Zn89  1  0.24876401  0.25035550  -0.00019755  1
  Zn  Zn90  1  -0.08160993  0.53427790  -0.07729381  1
  Zn  Zn91  1  0.61664765  0.62143850  0.49768429  1
  Zn  Zn92  1  0.00325061  0.12383958  0.62397278  1
  Zn  Zn93  1  0.76694854  0.63265188  0.87653040  1
  Zn  Zn94  1  0.49135694  0.61563204  0.62145302  1
  Zn  Zn95  1  0.24899190  0.87455285  0.62360231  1
  Zn  Zn96  1  -0.00175719  0.37387974  0.37542324  1
  Zn  Zn97  1  0.50084564  0.74115081  0.75431704  1
  Zn  Zn98  1  0.88114033  0.37590977  0.49593038  1
  Zn  Zn99  1  0.74000192  0.25088684  -0.00255422  1
  Zn  Zn100  1  0.62564191  0.37506590  0.25576771  1
  Zn  Zn101  1  0.87391262  0.62744879  0.24761817  1
  Zn  Zn102  1  0.87715705  0.49766757  0.37400988  1
  Zn  Zn103  1  0.87890973  0.37606648  0.00307359  1
  Zn  Zn104  1  0.12585035  -0.00086590  0.62502169  1
  Zn  Zn105  1  0.35993189  0.76222677  0.12451001  1
  Zn  Zn106  1  0.62263273  -0.00175030  0.12176452  1
  Zn  Zn107  1  0.18794941  0.18413300  0.19223209  1
  Zn  Zn108  1  0.18953436  0.18937060  0.68419747  1
  Zn  Zn109  1  0.18805182  0.68939396  0.18471483  1
  Zn  Zn110  1  0.18837914  0.69116795  0.69412776  1
  Zn  Zn111  1  0.69110140  0.18934137  0.19390546  1
  Zn  Zn112  1  0.68718130  0.18980126  0.68824126  1
  Zn  Zn113  1  0.68246145  0.68833937  0.18417937  1
  Zn  Zn114  1  0.68790201  0.68761771  0.69431054  1
  Zn  Zn115  1  0.30648664  0.31254191  0.31456475  1
  Zn  Zn116  1  0.31160794  0.31386069  0.81218182  1
  Zn  Zn117  1  0.31041035  0.80311673  0.31138842  1
  Zn  Zn118  1  0.31274620  0.80944354  0.81833103  1
  Zn  Zn119  1  0.81711595  0.30993618  0.31115432  1
  Zn  Zn120  1  0.81624541  0.31501671  0.81084259  1
  Zn  Zn121  1  0.81264843  0.81275082  0.31297631  1
  Zn  Zn122  1  0.80764629  0.81170936  0.81828951  1
  Zn  Zn123  1  0.18367914  0.43805280  0.43924658  1
  Zn  Zn124  1  0.18166580  0.43590795  0.94164791  1
  Zn  Zn125  1  0.18477522  0.93285652  0.43681909  1
  Zn  Zn126  1  0.18701715  0.93693641  0.93627785  1
  Zn  Zn127  1  0.69094284  0.43645453  0.43952530  1
  Zn  Zn128  1  0.69968142  0.44325047  0.94101272  1
  Zn  Zn129  1  0.68382372  0.93706466  0.43657565  1
  Zn  Zn130  1  0.63154763  0.94126380  0.94730231  1
  Zn  Zn131  1  0.31551650  0.06702664  0.05736550  1
  Zn  Zn132  1  0.31317833  0.06229291  0.56148173  1
  Zn  Zn133  1  0.31076819  0.56357359  0.05791736  1
  Zn  Zn134  1  0.30872068  0.56481111  0.56218542  1
  Zn  Zn135  1  0.77338627  0.03270009  0.03361416  1
  Zn  Zn136  1  0.81446681  0.06054249  0.56438364  1
  Zn  Zn137  1  0.81479143  0.56445897  0.06632466  1
  Zn  Zn138  1  0.81240124  0.56120050  0.56110598  1
  Zn  Zn139  1  0.43614348  0.43518908  0.19137252  1
  Zn  Zn140  1  0.43791473  0.43898854  0.69325419  1
  Zn  Zn141  1  0.41911808  0.95223547  0.14402140  1
  Zn  Zn142  1  0.43335776  0.93784742  0.68655685  1
  Zn  Zn143  1  0.93519079  0.44185247  0.18172323  1
  Zn  Zn144  1  0.94530357  0.43878306  0.68492117  1
  Zn  Zn145  1  0.93930925  0.94390729  0.19234899  1
  Zn  Zn146  1  0.93847223  0.93613737  0.68604050  1
  Zn  Zn147  1  0.06659965  0.05877341  0.31350347  1
  Zn  Zn148  1  0.06288747  0.05793301  0.81218240  1
  Zn  Zn149  1  0.06229153  0.56331161  0.30839930  1
  Zn  Zn150  1  0.06826561  0.55972916  0.80709001  1
  Zn  Zn151  1  0.56985321  0.06690385  0.30933645  1
  Zn  Zn152  1  0.56251204  0.06328882  0.80797768  1
  Zn  Zn153  1  0.56545994  0.56332476  0.31570958  1
  Zn  Zn154  1  0.55994235  0.56162116  0.80452826  1
  Zn  Zn155  1  0.43330343  0.18649277  0.43941324  1
  Zn  Zn156  1  0.42940214  0.18198604  0.93895704  1
  Zn  Zn157  1  0.43874638  0.68533762  0.44521012  1
  Zn  Zn158  1  0.43268482  0.68167916  0.93947513  1
  Zn  Zn159  1  0.94094879  0.18916614  0.43675644  1
  Zn  Zn160  1  0.93477300  0.18575318  0.94014619  1
  Zn  Zn161  1  0.93289359  0.68924539  0.43914470  1
  Zn  Zn162  1  0.93721469  0.70319600  0.94326193  1
  Zn  Zn163  1  0.06451053  0.30753875  0.06413488  1
  Zn  Zn164  1  0.06108483  0.31407633  0.55737861  1
  Zn  Zn165  1  0.06880780  0.81329833  0.06178024  1
  Zn  Zn166  1  0.06236844  0.81055827  0.56729188  1
  Zn  Zn167  1  0.56146955  0.31350418  0.08095538  1
  Zn  Zn168  1  0.56420536  0.31692414  0.56273775  1
  Zn  Zn169  1  0.52778590  0.82485506  0.07588784  1
  Zn  Zn170  1  0.56113429  0.80895359  0.56401032  1
  O  O171  1  0.11963187  0.11794989  0.12290121  1
  O  O172  1  0.12613806  0.12409427  0.61131692  1
  O  O173  1  0.11747807  0.61919109  0.12008547  1
  O  O174  1  0.13156343  0.61303370  0.62831276  1
  O  O175  1  0.61025548  0.13640765  0.13209738  1
  O  O176  1  0.61895425  0.12518727  0.61867297  1
  O  O177  1  0.62186151  0.60936468  0.11776631  1
  O  O178  1  0.62935896  0.60977554  0.62863915  1
  O  O179  1  0.37845954  0.38266921  0.38238367  1
  O  O180  1  0.37063944  0.38202251  0.88231183  1
  O  O181  1  0.37913029  0.87474602  0.37455892  1
  O  O182  1  0.37807154  0.88998761  0.86933444  1
  O  O183  1  0.87904822  0.37821950  0.37562232  1
  O  O184  1  0.89329847  0.36889815  0.87693417  1
  O  O185  1  0.88794544  0.86731075  0.38459541  1
  O  O186  1  0.87997521  0.89038518  0.86697191  1
  O  O187  1  0.24424480  0.01322041  0.37858344  1
  O  O188  1  0.25382454  0.00828944  0.86593966  1
  O  O189  1  0.25218493  0.50642235  0.36996547  1
  O  O190  1  0.25701801  0.49551431  0.87906957  1
  O  O191  1  0.74665336  0.01226218  0.37169865  1
  O  O192  1  0.75832907  0.01298979  0.86117822  1
  O  O193  1  0.74936790  0.50718016  0.36809290  1
  O  O194  1  0.75829007  0.49837201  0.86126232  1
  O  O195  1  0.24497693  0.49729594  0.13238344  1
  O  O196  1  0.23615668  0.48920174  0.61627090  1
  O  O197  1  0.24212156  1.00609189  0.12232275  1
  O  O198  1  0.25182497  0.99950879  0.63888782  1
  O  O199  1  0.74309773  0.49329985  0.13312570  1
  O  O200  1  0.74647568  0.49376165  0.63425373  1
  O  O201  1  0.75525385  1.00397341  0.14429012  1
  O  O202  1  0.75026276  0.99304594  0.63510965  1
  O  O203  1  0.01339554  0.38391152  0.25000430  1
  O  O204  1  0.01064293  0.36805614  0.75578442  1
  O  O205  1  0.00378428  0.86973432  0.25946310  1
  O  O206  1  0.00647587  0.87391623  0.75603636  1
  O  O207  1  0.49928132  0.36405900  0.26251766  1
  O  O208  1  0.50865613  0.36452370  0.74982522  1
  O  O209  1  0.50582790  0.86894576  0.26617072  1
  O  O210  1  0.51334604  0.87430061  0.74226705  1
  O  O211  1  0.49400263  0.13755676  0.25445582  1
  O  O212  1  0.49801657  0.13761139  0.74237401  1
  O  O213  1  0.50315732  0.62664213  0.24250068  1
  O  O214  1  0.48820138  0.62297057  0.74080796  1
  O  O215  1  0.99433243  0.11802822  0.24392338  1
  O  O216  1  0.99414757  0.12845245  0.74764493  1
  O  O217  1  0.99984807  0.63591085  0.24082484  1
  O  O218  1  1.00639247  0.64030147  0.75478388  1
  O  O219  1  0.37230084  0.25474811  0.01107228  1
  O  O220  1  0.37397120  0.26388898  0.50606370  1
  O  O221  1  0.35782213  0.73965003  0.00068956  1
  O  O222  1  0.36627062  0.75292240  0.50842367  1
  O  O223  1  0.87453818  0.25246301  0.01392299  1
  O  O224  1  0.87128705  0.24938150  0.50925870  1
  O  O225  1  0.85898742  0.75748282  0.00953726  1
  O  O226  1  0.87059029  0.76073686  0.51126256  1
  O  O227  1  0.12715817  0.24011141  0.49280738  1
  O  O228  1  0.12713517  0.23982762  0.99258979  1
  O  O229  1  0.12986285  0.75349872  0.49158780  1
  O  O230  1  0.13282752  0.73919305  1.00098740  1
  O  O231  1  0.63193104  0.24485230  0.49745755  1
  O  O232  1  0.61864087  0.26630804  0.99068024  1
  O  O233  1  0.63176297  0.74966067  0.49373412  1
  O  O234  1  0.63738414  0.73295675  1.00189527  1
  O  O235  1  0.49024385  0.24468854  0.13757910  1
  O  O236  1  0.49474219  0.24952304  0.63091425  1
  O  O237  1  0.51310840  0.72834602  0.13910885  1
  O  O238  1  0.48575539  0.74921335  0.62744391  1
  O  O239  1  0.99558583  0.23446821  0.12201315  1
  O  O240  1  0.99462059  0.24781082  0.63043162  1
  O  O241  1  0.99489372  0.74805562  0.13106331  1
  O  O242  1  0.98516295  0.75638250  0.63488717  1
  O  O243  1  0.01657320  0.25113271  0.37699945  1
  O  O244  1  0.00636322  0.25423809  0.86814687  1
  O  O245  1  0.00419492  0.75349295  0.36958360  1
  O  O246  1  -0.00622918  0.76956028  0.86808549  1
  O  O247  1  0.50289553  0.25627772  0.37312593  1
  O  O248  1  0.49655796  0.24789551  0.86724220  1
  O  O249  1  0.50950002  0.73822480  0.36677754  1
  O  O250  1  0.51262216  0.73747347  0.87534185  1
  O  O251  1  0.24388151  0.12659188  0.49160917  1
  O  O252  1  0.24339813  0.12676727  0.98888370  1
  O  O253  1  0.25175393  0.63562753  0.48721532  1
  O  O254  1  0.23447982  0.62451916  0.99945625  1
  O  O255  1  0.74726882  0.12776025  0.49562892  1
  O  O256  1  0.75930131  0.13528344  0.97715521  1
  O  O257  1  0.74670284  0.63098806  0.49245733  1
  O  O258  1  0.74208256  0.62117331  0.99742757  1
  O  O259  1  0.25322977  0.37193278  0.00974739  1
  O  O260  1  0.25640842  0.37298400  0.50607029  1
  O  O261  1  0.24520471  0.86381984  -0.00039307  1
  O  O262  1  0.25017074  0.86140456  0.49941341  1
  O  O263  1  0.75261151  0.37183160  0.01472815  1
  O  O264  1  0.75544409  0.36901615  0.50962146  1
  O  O265  1  0.73841089  0.86456133  0.00296601  1
  O  O266  1  0.75659988  0.87157859  0.50583152  1
  O  O267  1  0.13542955  0.49510464  0.24191080  1
  O  O268  1  0.12042386  0.49045826  0.73260839  1
  O  O269  1  0.12137924  0.98919152  0.24040106  1
  O  O270  1  0.13437908  0.99468033  0.74675248  1
  O  O271  1  0.63454212  0.49812159  0.24461064  1
  O  O272  1  0.63473936  0.48971521  0.74254279  1
  O  O273  1  0.63509065  0.99260046  0.25052713  1
  O  O274  1  0.63346331  0.99334702  0.74454592  1
  O  O275  1  0.39003039  -0.01221881  0.25118785  1
  O  O276  1  0.36927818  0.00758377  0.75665826  1
  O  O277  1  0.36042316  0.49278911  0.25934220  1
  O  O278  1  0.37377977  0.50781549  0.75782091  1
  O  O279  1  0.87032403  0.01318931  0.25489262  1
  O  O280  1  0.86962763  0.00718898  0.75255420  1
  O  O281  1  0.86198066  0.50478449  0.24898233  1
  O  O282  1  0.86427870  0.49626756  0.74348536  1
  O  O283  1  0.12726922  0.36744594  0.36499341  1
  O  O284  1  0.11962333  0.36903710  0.86702600  1
  O  O285  1  0.11430567  0.86478131  0.36934599  1
  O  O286  1  0.11282628  0.88682216  0.86239430  1
  O  O287  1  0.61641857  0.37110830  0.37797426  1
  O  O288  1  0.62829735  0.38114651  0.86770607  1
  O  O289  1  0.62873947  0.86088878  0.36891976  1
  O  O290  1  0.64183729  0.87560236  0.85545126  1
  O  O291  1  0.38371658  0.13265929  0.12974511  1
  O  O292  1  0.37992605  0.13346903  0.63029162  1
  O  O293  1  0.38826718  0.62013675  0.12160344  1
  O  O294  1  0.37049115  0.62856699  0.63583832  1
  O  O295  1  0.88535193  0.13019390  0.13459750  1
  O  O296  1  0.87648415  0.12932426  0.63594850  1
  O  O297  1  0.88371572  0.63854553  0.12727578  1
  O  O298  1  0.86975140  0.64164373  0.62233168  1
  O  O299  1  0.25859445  0.25281259  0.12684205  1
  O  O300  1  0.25708463  0.26280642  0.62255549  1
  O  O301  1  0.24885726  0.74429865  0.10903268  1
  O  O302  1  0.25712435  0.74842383  0.61788170  1
  O  O303  1  0.75568453  0.25604423  0.12369806  1
  O  O304  1  0.75686274  0.25795292  0.62135947  1
  O  O305  1  0.75599585  0.74627676  0.11503826  1
  O  O306  1  0.75799920  0.75646666  0.62441648  1
  O  O307  1  0.23888030  0.24106446  0.37633660  1
  O  O308  1  0.24451488  0.23777842  0.87287989  1
  O  O309  1  0.24124364  0.74175600  0.38039379  1
  O  O310  1  0.24670367  0.75154679  0.89031145  1
  O  O311  1  0.74598235  0.24247551  0.38182620  1
  O  O312  1  0.75259680  0.24067598  0.87054797  1
  O  O313  1  0.74442128  0.74331910  0.38042723  1
  O  O314  1  0.73959835  0.75099000  0.89157409  1
  O  O315  1  0.00412412  0.11364418  0.00588611  1
  O  O316  1  0.00823464  0.11586911  0.49856302  1
  O  O317  1  0.00970402  0.63637363  0.01187720  1
  O  O318  1  -0.00238389  0.61337173  0.49712559  1
  O  O319  1  0.50276444  0.13556420  0.01286686  1
  O  O320  1  0.50326022  0.11809074  0.50373647  1
  O  O321  1  0.50769552  0.61240563  0.00765604  1
  O  O322  1  0.50391794  0.62192785  0.50893318  1
  O  O323  1  0.49223579  0.37323308  0.48899411  1
  O  O324  1  0.50001824  0.37602637  0.99340143  1
  O  O325  1  0.50063548  0.88806976  0.50411014  1
  O  O326  1  0.55706678  0.85555659  0.97114968  1
  O  O327  1  0.99998121  0.38757372  0.49612450  1
  O  O328  1  1.00639495  0.36763923  0.98348416  1
  O  O329  1  0.99441087  0.87922146  0.49523792  1
  O  O330  1  1.00575876  0.88760988  0.99243907  1
  O  O331  1  0.48998772  0.49118697  0.36712517  1
  O  O332  1  0.49578137  0.49958096  0.88422281  1
  O  O333  1  0.49979993  0.99758304  0.37805755  1
  O  O334  1  0.49125195  1.00505124  0.87336043  1
  O  O335  1  1.00189671  0.50132039  0.38554571  1
  O  O336  1  1.00619854  0.48192118  0.86907568  1
  O  O337  1  1.00560749  0.98950173  0.38751721  1
  O  O338  1  0.99142840  0.99560851  0.88239636  1
  O  O339  1  0.00249849  0.00903975  0.11822449  1
  O  O340  1  0.00139295  0.00114937  0.61162801  1
  O  O341  1  0.01012225  0.51420092  0.13355819  1
  O  O342  1  0.01302054  0.50000405  0.61425804  1
  O  O343  1  0.50564683  0.02396859  0.12790966  1
  O  O344  1  0.50061714  0.00795724  0.61790948  1
  O  O345  1  0.50649946  0.49908310  0.12003476  1
  O  O346  1  0.52018735  0.49193542  0.63044363  1
  O  O347  1  0.24174349  0.38347510  0.24374455  1
  O  O348  1  0.23725490  0.37086532  0.74167704  1
  O  O349  1  0.23586817  0.86777797  0.25480814  1
  O  O350  1  0.24241005  0.88146977  0.75273138  1
  O  O351  1  0.74893230  0.38132374  0.24193891  1
  O  O352  1  0.74616618  0.38118767  0.74389281  1
  O  O353  1  0.74253691  0.88445959  0.25832387  1
  O  O354  1  0.74840133  0.88290632  0.74169309  1
  O  O355  1  0.25412347  0.12211177  0.26354002  1
  O  O356  1  0.25346558  0.11883307  0.75554331  1
  O  O357  1  0.24518212  0.61827489  0.26259666  1
  O  O358  1  0.26318864  0.62602539  0.75186447  1
  O  O359  1  0.75683985  0.11881264  0.26078205  1
  O  O360  1  0.75785401  0.12066752  0.75320018  1
  O  O361  1  0.74779950  0.61794075  0.25615102  1
  O  O362  1  0.74929973  0.61161603  0.75611041  1
  O  O363  1  0.36006474  0.12716715  0.37356107  1
  O  O364  1  0.36562642  0.11933487  0.86768828  1
  O  O365  1  0.36726689  0.61309067  0.37809154  1
  O  O366  1  0.37840992  0.61284722  0.86241769  1
  O  O367  1  0.86734101  0.13166467  0.36946603  1
  O  O368  1  0.87393031  0.11841879  0.86239927  1
  O  O369  1  0.86177652  0.62516646  0.37158185  1
  O  O370  1  0.88090453  0.62859690  0.88201148  1
  O  O371  1  0.12883789  0.38195082  0.12916014  1
  O  O372  1  0.13171069  0.37562718  0.63041655  1
  O  O373  1  0.11909557  0.88561558  0.13538104  1
  O  O374  1  0.12825896  0.87815479  0.63623696  1
  O  O375  1  0.63291706  0.38529797  0.13221962  1
  O  O376  1  0.63792752  0.38158018  0.63078628  1
  O  O377  1  0.61269955  0.87714241  0.14399443  1
  O  O378  1  0.63816775  0.87320027  0.62955701  1
  O  O379  1  0.12959896  0.26119769  0.25531605  1
  O  O380  1  0.12090078  0.25506857  0.75402032  1
  O  O381  1  0.11386759  0.75593630  0.25534633  1
  O  O382  1  0.11458988  0.76089599  0.74646125  1
  O  O383  1  0.61594375  0.25282898  0.26070957  1
  O  O384  1  0.61956040  0.26512655  0.74604918  1
  O  O385  1  0.61862888  0.75589776  0.25718868  1
  O  O386  1  0.62230646  0.75885617  0.75668253  1
  O  O387  1  0.37987333  0.25276741  0.24333204  1
  O  O388  1  0.38272787  0.24710287  0.74440856  1
  O  O389  1  0.38861308  0.75203294  0.24504793  1
  O  O390  1  0.37593813  0.73893680  0.74664668  1
  O  O391  1  0.86973222  0.23476035  0.23939886  1
  O  O392  1  0.88177464  0.24259916  0.74395210  1
  O  O393  1  0.88542056  0.75023375  0.24581516  1
  O  O394  1  0.87919227  0.75666682  0.73964728  1
  O  O395  1  0.36854341  0.49013121  0.49123105  1
  O  O396  1  0.38284507  0.49333452  0.99275947  1
  O  O397  1  0.38493445  0.99630040  0.50194771  1
  O  O398  1  0.37566166  1.00290211  0.98524494  1
  O  O399  1  0.88867840  0.49944583  0.50028595  1
  O  O400  1  0.88227368  0.48963133  1.01652339  1
  O  O401  1  0.88129365  0.98690401  0.50313979  1
  O  O402  1  0.87906966  1.00384308  0.98904435  1
  O  O403  1  0.11728900  0.00416955  0.00856669  1
  O  O404  1  0.11863754  0.00634845  0.50180731  1
  O  O405  1  0.12611999  0.50792186  0.01370890  1
  O  O406  1  0.11553059  0.50010047  0.51069113  1
  O  O407  1  0.66043298  0.01651479  0.01681167  1
  O  O408  1  0.61658104  0.00654917  0.50133957  1
  O  O409  1  0.61896094  0.49924005  0.00747534  1
  O  O410  1  0.63504378  0.49905802  0.51857500  1
  O  O411  1  0.37094494  0.36726252  0.11929825  1
  O  O412  1  0.36801781  0.37763859  0.61933539  1
  O  O413  1  0.42062760  0.85481426  0.10197343  1
  O  O414  1  0.36852277  0.86444250  0.62560063  1
  O  O415  1  0.86922437  0.36272356  0.13069395  1
  O  O416  1  0.86736735  0.36962270  0.62659845  1
  O  O417  1  0.88029921  0.86553339  0.13260520  1
  O  O418  1  0.86524369  0.87045155  0.61938929  1
  O  O419  1  0.13275130  0.12944561  0.38120972  1
  O  O420  1  0.13189036  0.12594026  0.87848790  1
  O  O421  1  0.12941608  0.63659585  0.37090171  1
  O  O422  1  0.11746509  0.61808285  0.89181957  1
  O  O423  1  0.63420595  0.13198640  0.38206894  1
  O  O424  1  0.64026725  0.12648603  0.86456496  1
  O  O425  1  0.63594584  0.63360060  0.37629107  1
  O  O426  1  0.62683487  0.61217105  0.88701857  1
