# generated using pymatgen
data_V85Zn86O256
_symmetry_space_group_name_H-M   'P 1'
_cell_length_a   16.95014669
_cell_length_b   16.95776840
_cell_length_c   16.95427573
_cell_angle_alpha   89.92070742
_cell_angle_beta   90.03553972
_cell_angle_gamma   89.99145370
_symmetry_Int_Tables_number   1
_chemical_formula_structural   V85Zn86O256
_chemical_formula_sum   'V85 Zn86 O256'
_cell_volume   4873.27476276
_cell_formula_units_Z   1
loop_
 _symmetry_equiv_pos_site_id
 _symmetry_equiv_pos_as_xyz
  1  'x, y, z'
loop_
 _atom_site_type_symbol
 _atom_site_label
 _atom_site_symmetry_multiplicity
 _atom_site_fract_x
 _atom_site_fract_y
 _atom_site_fract_z
 _atom_site_occupancy
  V  V0  1  0.87239814  0.62443120  0.74593758  1
  V  V1  1  0.37687976  0.50532472  0.86717261  1
  V  V2  1  0.12740028  0.24850693  0.37081139  1
  V  V3  1  -0.00361554  0.87385321  0.37543285  1
  V  V4  1  0.63923368  0.88485293  0.74300317  1
  V  V5  1  0.50044532  0.62624440  0.63523704  1
  V  V6  1  0.12278009  0.75081924  0.37447857  1
  V  V7  1  0.87756670  0.62746771  0.23609768  1
  V  V8  1  0.50323280  -0.00541933  0.51258471  1
  V  V9  1  0.12144356  0.87663931  0.74966562  1
  V  V10  1  0.12652346  0.51538663  0.12539006  1
  V  V11  1  0.87247891  0.37097387  0.02438634  1
  V  V12  1  0.49693250  0.37615295  0.38996576  1
  V  V13  1  0.13193372  0.50118995  0.62436707  1
  V  V14  1  0.75465973  -0.00085109  0.24606362  1
  V  V15  1  0.62279186  0.49611271  0.12613611  1
  V  V16  1  0.87292641  0.75426853  0.61687679  1
  V  V17  1  0.12007590  0.11225649  0.01026202  1
  V  V18  1  0.12040024  0.00179763  0.62487857  1
  V  V19  1  0.12289602  0.88338807  0.24436855  1
  V  V20  1  0.25529180  0.49941087  0.25242035  1
  V  V21  1  0.20649257  0.55909079  0.80785052  1
  V  V22  1  0.62140156  0.49772752  0.62077205  1
  V  V23  1  0.87476635  -0.00553905  0.37180456  1
  V  V24  1  0.50516014  0.00005599  -0.00522315  1
  V  V25  1  0.12263624  0.24853924  0.88240811  1
  V  V26  1  0.49215848  0.88586664  0.36876622  1
  V  V27  1  0.87591867  0.50013745  0.37508262  1
  V  V28  1  0.73617773  0.12854930  0.88335337  1
  V  V29  1  0.26319708  0.25220993  0.50290014  1
  V  V30  1  0.87317050  0.00549073  0.87793532  1
  V  V31  1  0.75101962  0.49655097  0.24655247  1
  V  V32  1  0.00063755  0.88204461  0.87498303  1
  V  V33  1  0.62471388  0.24587956  0.37844412  1
  V  V34  1  0.26147660  0.37267327  0.62452324  1
  V  V35  1  0.50327724  0.12201688  0.12301385  1
  V  V36  1  0.24967774  0.37500974  0.12830787  1
  V  V37  1  0.38066938  0.75390808  0.62828559  1
  V  V38  1  0.86800387  0.12802787  0.75322045  1
  V  V39  1  0.24632765  0.88045810  0.11626614  1
  V  V40  1  0.75582816  0.12479325  0.37062994  1
  V  V41  1  0.62592657  0.37260817  0.25356448  1
  V  V42  1  -0.00564277  -0.00206869  0.49982722  1
  V  V43  1  0.49879838  0.50055039  0.00087928  1
  V  V44  1  0.12528084  0.12715227  0.49911319  1
  V  V45  1  0.37512531  0.00394187  0.87465316  1
  V  V46  1  0.50086959  0.87222845  0.86346575  1
  V  V47  1  -0.00217435  0.25327377  0.74922921  1
  V  V48  1  0.13221302  0.37475186  0.75395126  1
  V  V49  1  0.62728492  -0.00031121  0.11741336  1
  V  V50  1  0.49999486  0.63382590  0.13033064  1
  V  V51  1  0.24773227  0.24741545  0.00401177  1
  V  V52  1  0.24668974  0.73348925  -0.00545620  1
  V  V53  1  0.75425849  0.86704575  0.12243858  1
  V  V54  1  0.61204061  0.74704792  0.37017354  1
  V  V55  1  -0.00236475  0.75601491  0.74857649  1
  V  V56  1  -0.01262386  0.11465667  0.12541661  1
  V  V57  1  0.25844798  -0.00228683  0.24902360  1
  V  V58  1  0.25129033  0.87807446  0.61984600  1
  V  V59  1  -0.00505493  0.13381996  0.62493663  1
  V  V60  1  -0.00237611  0.74624575  0.23689430  1
  V  V61  1  0.75979698  0.37257975  0.62623746  1
  V  V62  1  0.00130181  0.37252522  0.37456970  1
  V  V63  1  0.61664452  0.62230808  0.49931585  1
  V  V64  1  0.75142568  0.75541990  0.49561946  1
  V  V65  1  -0.01374028  0.24723390  0.24182672  1
  V  V66  1  0.50262683  0.13779586  0.62515431  1
  V  V67  1  0.61901645  0.86766072  0.24497456  1
  V  V68  1  0.75466576  0.74825507  -0.00139586  1
  V  V69  1  0.37690994  0.37558952  0.00085059  1
  V  V70  1  0.87327725  0.49418437  0.87899020  1
  V  V71  1  0.50618561  0.36586158  0.87847291  1
  V  V72  1  0.24989314  0.00315408  0.74874219  1
  V  V73  1  0.00112700  0.50000037  0.50017925  1
  V  V74  1  0.75928959  0.24851379  0.50413835  1
  V  V75  1  0.62425630  0.36633118  0.74940497  1
  V  V76  1  0.74896423  0.62475581  0.37381028  1
  V  V77  1  0.88301215  0.87478380  0.00181108  1
  V  V78  1  0.00293060  0.51541544  0.00733775  1
  V  V79  1  0.74985579  0.62152350  0.87407556  1
  V  V80  1  0.25167700  0.62685950  0.37686795  1
  V  V81  1  0.37750698  0.49610663  0.39201809  1
  V  V82  1  0.25832467  0.11876337  0.37516964  1
  V  V83  1  0.62159364  0.74783115  0.86481789  1
  V  V84  1  0.37852839  0.24761766  0.12719905  1
  Zn  Zn85  1  0.74552446  0.89485270  0.60947981  1
  Zn  Zn86  1  0.38401376  0.63062866  0.25753217  1
  Zn  Zn87  1  0.24862371  0.12506974  0.87655671  1
  Zn  Zn88  1  -0.00066482  0.37488294  0.88270783  1
  Zn  Zn89  1  0.38056906  0.11856470  0.25324985  1
  Zn  Zn90  1  0.49105587  0.25154581  0.75163214  1
  Zn  Zn91  1  0.25007831  0.75275164  0.49862932  1
  Zn  Zn92  1  0.37325789  0.87812373  0.49223527  1
  Zn  Zn93  1  0.12866127  0.73932965  0.87384034  1
  Zn  Zn94  1  0.12496758  0.37454670  0.24763279  1
  Zn  Zn95  1  0.62567879  0.62346095  -0.00241107  1
  Zn  Zn96  1  0.37434296  0.87219530  -0.00324064  1
  Zn  Zn97  1  0.50066631  0.24671106  0.25399465  1
  Zn  Zn98  1  0.87953775  0.37082585  0.50428192  1
  Zn  Zn99  1  0.63188582  0.11325485  0.50599618  1
  Zn  Zn100  1  0.12478361  0.62651169  0.49990598  1
  Zn  Zn101  1  0.37367873  0.75313949  0.12548512  1
  Zn  Zn102  1  0.37658233  0.63571610  0.75760831  1
  Zn  Zn103  1  0.74964677  0.49682826  0.74872511  1
  Zn  Zn104  1  0.36966625  0.13183199  0.73898148  1
  Zn  Zn105  1  0.00056494  0.62515444  0.62201973  1
  Zn  Zn106  1  0.74021969  0.24810438  0.00414942  1
  Zn  Zn107  1  0.18636674  0.18328261  0.18832806  1
  Zn  Zn108  1  0.18573270  0.19038792  0.68737585  1
  Zn  Zn109  1  0.19594824  0.69471359  0.19125473  1
  Zn  Zn110  1  0.18415271  0.69456756  0.68109818  1
  Zn  Zn111  1  0.69508140  0.18303967  0.18885694  1
  Zn  Zn112  1  0.68431701  0.18572072  0.68648260  1
  Zn  Zn113  1  0.68684625  0.68407701  0.18602023  1
  Zn  Zn114  1  0.68777186  0.69088553  0.68457345  1
  Zn  Zn115  1  0.31606373  0.31117129  0.31429647  1
  Zn  Zn116  1  0.31428077  0.31155029  0.81493783  1
  Zn  Zn117  1  0.31337156  0.80940966  0.30543764  1
  Zn  Zn118  1  0.31143205  0.81439154  0.81221084  1
  Zn  Zn119  1  0.81245491  0.31466608  0.31316211  1
  Zn  Zn120  1  0.81026481  0.30935728  0.81436877  1
  Zn  Zn121  1  0.81169897  0.80965041  0.31011092  1
  Zn  Zn122  1  0.81430306  0.81185875  0.81329848  1
  Zn  Zn123  1  0.18943957  0.43453987  0.43952611  1
  Zn  Zn124  1  0.18438123  0.43426266  0.94659306  1
  Zn  Zn125  1  0.18285420  0.94007266  0.43463942  1
  Zn  Zn126  1  0.18489084  0.93717774  0.93445802  1
  Zn  Zn127  1  0.68832363  0.43579910  0.43916644  1
  Zn  Zn128  1  0.67211615  0.40561574  0.95593123  1
  Zn  Zn129  1  0.68157645  0.93515548  0.43098003  1
  Zn  Zn130  1  0.69152495  0.93891325  0.93054226  1
  Zn  Zn131  1  0.31256557  0.06009041  0.06277482  1
  Zn  Zn132  1  0.32068047  0.06057565  0.55682861  1
  Zn  Zn133  1  0.31670404  0.56197937  0.06385493  1
  Zn  Zn134  1  0.31219666  0.56584396  0.56667715  1
  Zn  Zn135  1  0.81288348  0.06014164  0.05623443  1
  Zn  Zn136  1  0.81601704  0.06844182  0.56117573  1
  Zn  Zn137  1  0.80848425  0.55514008  0.06077824  1
  Zn  Zn138  1  0.80938233  0.56281073  0.56068734  1
  Zn  Zn139  1  0.44036943  0.43634601  0.19349686  1
  Zn  Zn140  1  0.44159157  0.44069139  0.68818898  1
  Zn  Zn141  1  0.43545363  0.93349985  0.18302889  1
  Zn  Zn142  1  0.43662492  0.93822590  0.68918811  1
  Zn  Zn143  1  0.94339011  0.44059266  0.18943848  1
  Zn  Zn144  1  0.94150335  0.43762768  0.68935647  1
  Zn  Zn145  1  0.93677297  0.93472391  0.18583304  1
  Zn  Zn146  1  0.90247128  0.95562539  0.67291134  1
  Zn  Zn147  1  0.06287976  0.06503145  0.30751657  1
  Zn  Zn148  1  0.05969812  0.06476386  0.81516257  1
  Zn  Zn149  1  0.06487165  0.56374340  0.30957193  1
  Zn  Zn150  1  0.04338233  0.56123990  0.81235866  1
  Zn  Zn151  1  0.56869011  0.05941432  0.30884382  1
  Zn  Zn152  1  0.56396468  0.05980139  0.80254435  1
  Zn  Zn153  1  0.55929422  0.55777816  0.31441287  1
  Zn  Zn154  1  0.56521717  0.55512133  0.81079803  1
  Zn  Zn155  1  0.44134205  0.18134961  0.44133845  1
  Zn  Zn156  1  0.43925937  0.18447686  0.93990777  1
  Zn  Zn157  1  0.43412048  0.68952995  0.44394484  1
  Zn  Zn158  1  0.43579455  0.68818116  0.94102354  1
  Zn  Zn159  1  0.93650327  0.18430690  0.43151288  1
  Zn  Zn160  1  0.93463742  0.19280279  0.94534357  1
  Zn  Zn161  1  0.93738114  0.68412484  0.43172142  1
  Zn  Zn162  1  0.93675235  0.68987417  0.93469583  1
  Zn  Zn163  1  0.05975570  0.31783750  0.06605473  1
  Zn  Zn164  1  0.07022289  0.31476346  0.56255559  1
  Zn  Zn165  1  0.06937455  0.80741658  0.05935294  1
  Zn  Zn166  1  0.05992725  0.81480012  0.56091134  1
  Zn  Zn167  1  0.59566169  0.28977123  0.07871353  1
  Zn  Zn168  1  0.57116282  0.31018709  0.56112195  1
  Zn  Zn169  1  0.56672386  0.81369799  0.05071466  1
  Zn  Zn170  1  0.56399870  0.81174078  0.56135729  1
  O  O171  1  0.11728348  0.12801130  0.11415133  1
  O  O172  1  0.11483093  0.11945530  0.62079663  1
  O  O173  1  0.13443237  0.61400908  0.13319814  1
  O  O174  1  0.12267866  0.61646832  0.62197111  1
  O  O175  1  0.61829576  0.10503386  0.13093806  1
  O  O176  1  0.61137966  0.12381236  0.62254165  1
  O  O177  1  0.61634765  0.61413412  0.12304138  1
  O  O178  1  0.62024456  0.62043841  0.61826923  1
  O  O179  1  0.38497195  0.38280797  0.37207632  1
  O  O180  1  0.38303418  0.38323165  0.88298860  1
  O  O181  1  0.38892256  0.86668857  0.37277865  1
  O  O182  1  0.38387285  0.88612805  0.87169699  1
  O  O183  1  0.88372011  0.38243480  0.37697779  1
  O  O184  1  0.87562707  0.38930161  0.87010343  1
  O  O185  1  0.87811186  0.88639075  0.36992867  1
  O  O186  1  0.88034327  0.88218693  0.88013190  1
  O  O187  1  0.24537330  0.00864676  0.36639361  1
  O  O188  1  0.25698987  0.00006155  0.86583284  1
  O  O189  1  0.25491594  0.50453010  0.36999157  1
  O  O190  1  0.25617900  0.49761946  0.87756015  1
  O  O191  1  0.75503687  0.00244032  0.36692874  1
  O  O192  1  0.76140066  0.01426929  0.87603230  1
  O  O193  1  0.75358792  0.50426956  0.36616642  1
  O  O194  1  0.75703827  0.51313397  0.87216323  1
  O  O195  1  0.24790185  0.49594584  0.13258997  1
  O  O196  1  0.23817045  0.49248851  0.61949011  1
  O  O197  1  0.24994927  0.99232213  0.13379931  1
  O  O198  1  0.24472614  0.99687397  0.62901243  1
  O  O199  1  0.73912136  0.50406705  0.13909004  1
  O  O200  1  0.74396017  0.49060427  0.62566222  1
  O  O201  1  0.74508268  0.99053501  0.12711842  1
  O  O202  1  0.79612291  0.99013586  0.63527480  1
  O  O203  1  0.00332527  0.36319888  0.25513960  1
  O  O204  1  0.01287804  0.37015335  0.75317072  1
  O  O205  1  0.00579869  0.86898845  0.25481446  1
  O  O206  1  -0.00063911  0.86847591  0.75597960  1
  O  O207  1  0.51192999  0.37231187  0.26178859  1
  O  O208  1  0.50616074  0.37418042  0.75800002  1
  O  O209  1  0.51053395  0.87981602  0.25331880  1
  O  O210  1  0.51046984  0.87942176  0.75961395  1
  O  O211  1  0.49988069  0.12171834  0.23795338  1
  O  O212  1  0.50097532  0.12725822  0.73515774  1
  O  O213  1  0.50334019  0.62072162  0.23428903  1
  O  O214  1  0.50166704  0.62395653  0.73837270  1
  O  O215  1  1.00355101  0.13681407  0.23805638  1
  O  O216  1  0.99776933  0.13530399  0.74409471  1
  O  O217  1  0.99007105  0.63344321  0.25526477  1
  O  O218  1  0.98665930  0.63469550  0.74700545  1
  O  O219  1  0.37100942  0.25228737  0.01122270  1
  O  O220  1  0.36183142  0.24500297  0.49599785  1
  O  O221  1  0.36231552  0.75321351  0.00371614  1
  O  O222  1  0.36983636  0.75716482  0.51170969  1
  O  O223  1  0.86663699  0.26838998  0.00092249  1
  O  O224  1  0.86391384  0.25084062  0.49287689  1
  O  O225  1  0.86218206  0.75736989  -0.00848749  1
  O  O226  1  0.86442714  0.73892823  0.50386304  1
  O  O227  1  0.12884453  0.24386012  0.48767364  1
  O  O228  1  0.12738292  0.24815021  0.99662436  1
  O  O229  1  0.12470710  0.75072821  0.48667092  1
  O  O230  1  0.13972719  0.74854002  0.99169742  1
  O  O231  1  0.63847428  0.24691910  0.48873036  1
  O  O232  1  0.63629522  0.29856951  0.97533045  1
  O  O233  1  0.63141616  0.74204819  0.49018716  1
  O  O234  1  0.63901802  0.74978353  0.98479514  1
  O  O235  1  0.49946146  0.23791184  0.12501072  1
  O  O236  1  0.50056841  0.23967359  0.61965882  1
  O  O237  1  0.50616271  0.73517219  0.11308634  1
  O  O238  1  0.49230024  0.74172300  0.61966509  1
  O  O239  1  1.00322581  0.24567084  0.13892654  1
  O  O240  1  1.01084858  0.24470548  0.63535451  1
  O  O241  1  1.00550260  0.75251866  0.13794856  1
  O  O242  1  0.99575203  0.74729771  0.63260719  1
  O  O243  1  0.00722987  0.25045560  0.36530571  1
  O  O244  1  0.00953442  0.25296153  0.87217132  1
  O  O245  1  0.00612037  0.75523266  0.36903359  1
  O  O246  1  0.00047124  0.75680403  0.86249994  1
  O  O247  1  0.50897532  0.25229047  0.37660831  1
  O  O248  1  0.49791359  0.26345678  0.87981142  1
  O  O249  1  0.50992699  0.75470917  0.37958801  1
  O  O250  1  0.50980111  0.75968965  0.88219433  1
  O  O251  1  0.24491338  0.12771867  0.49362755  1
  O  O252  1  0.23706454  0.12979367  1.00250839  1
  O  O253  1  0.24673628  0.62659717  0.48826546  1
  O  O254  1  0.25211068  0.63503320  1.00236941  1
  O  O255  1  0.74998220  0.13067470  0.49249448  1
  O  O256  1  0.74598907  0.12528000  0.98824701  1
  O  O257  1  0.73920329  0.63114913  0.49184687  1
  O  O258  1  0.74882654  0.63012843  0.99210807  1
  O  O259  1  0.25732064  0.36760473  0.00869721  1
  O  O260  1  0.24500534  0.36371829  0.51089967  1
  O  O261  1  0.24876063  0.87785923  0.00835566  1
  O  O262  1  0.24919483  0.88067472  0.50990081  1
  O  O263  1  0.77688244  0.39942642  0.00175439  1
  O  O264  1  0.75338367  0.36676594  0.50811060  1
  O  O265  1  0.75836488  0.86819001  0.00334700  1
  O  O266  1  0.74336398  0.86019706  0.49529435  1
  O  O267  1  0.13694400  0.49733456  0.24507180  1
  O  O268  1  0.13086737  0.49699195  0.75000079  1
  O  O269  1  0.13151820  0.98709310  0.25544676  1
  O  O270  1  0.12889701  0.99682142  0.74459102  1
  O  O271  1  0.63226845  0.49402520  0.24824089  1
  O  O272  1  0.62908808  0.49530175  0.73393530  1
  O  O273  1  0.63689132  0.98647316  0.24222725  1
  O  O274  1  0.63030416  0.98337217  0.74928932  1
  O  O275  1  0.36262699  -0.00172858  0.24830587  1
  O  O276  1  0.36587023  0.00454404  0.75563453  1
  O  O277  1  0.36430633  0.50429402  0.25560025  1
  O  O278  1  0.37720934  0.50260495  0.76434398  1
  O  O279  1  0.86153659  -0.00675329  0.25384911  1
  O  O280  1  0.89059168  0.01761389  0.76889828  1
  O  O281  1  0.86842162  0.50387360  0.25488849  1
  O  O282  1  0.87655360  0.50842030  0.75806041  1
  O  O283  1  0.11903035  0.36570949  0.37346595  1
  O  O284  1  0.12356376  0.36781777  0.87144020  1
  O  O285  1  0.11867262  0.86824329  0.36670595  1
  O  O286  1  0.11603587  0.87429853  0.86647902  1
  O  O287  1  0.61992654  0.36752820  0.37255077  1
  O  O288  1  0.61302947  0.39783073  0.85630520  1
  O  O289  1  0.61753108  0.86498239  0.36211737  1
  O  O290  1  0.62183120  0.86832833  0.86495859  1
  O  O291  1  0.38394625  0.13106018  0.12600288  1
  O  O292  1  0.39630465  0.11555617  0.62326007  1
  O  O293  1  0.39278605  0.62421985  0.12433114  1
  O  O294  1  0.38427954  0.63338414  0.62656726  1
  O  O295  1  0.88754161  0.12321624  0.11759843  1
  O  O296  1  0.88930963  0.13018978  0.63565933  1
  O  O297  1  0.86791440  0.61945058  0.13743772  1
  O  O298  1  0.87622428  0.63004838  0.63168160  1
  O  O299  1  0.25928893  0.25290069  0.12358052  1
  O  O300  1  0.24179087  0.25892360  0.61463195  1
  O  O301  1  0.24672770  0.75983224  0.11025703  1
  O  O302  1  0.25360638  0.76359521  0.62055133  1
  O  O303  1  0.70513958  0.25752418  0.11274181  1
  O  O304  1  0.74440974  0.25842951  0.61519058  1
  O  O305  1  0.74239602  0.75923385  0.11443786  1
  O  O306  1  0.75790407  0.74679546  0.61130042  1
  O  O307  1  0.24330152  0.24405314  0.37985473  1
  O  O308  1  0.23791804  0.24780438  0.88464111  1
  O  O309  1  0.24178101  0.74360896  0.37539178  1
  O  O310  1  0.24971971  0.75526226  0.88900996  1
  O  O311  1  0.74648407  0.24096631  0.37831055  1
  O  O312  1  0.75581303  0.23164038  0.87703755  1
  O  O313  1  0.74092869  0.74320867  0.37805304  1
  O  O314  1  0.74713839  0.73821560  0.87820836  1
  O  O315  1  0.00944425  0.13230762  0.01444315  1
  O  O316  1  0.00400318  0.12279762  0.50648652  1
  O  O317  1  -0.00236965  0.61425224  -0.00264027  1
  O  O318  1  0.00227655  0.61118240  0.49839712  1
  O  O319  1  0.49960721  0.11225523  0.01055838  1
  O  O320  1  0.50571678  0.11306694  0.50862230  1
  O  O321  1  0.50417800  0.61432254  0.00726823  1
  O  O322  1  0.51312397  0.62849786  0.50633583  1
  O  O323  1  0.50698732  0.37191248  0.48910862  1
  O  O324  1  0.49361798  0.38897618  0.99442556  1
  O  O325  1  0.50248468  0.88283121  0.49017972  1
  O  O326  1  0.49961485  0.88521544  0.98667140  1
  O  O327  1  1.00043384  0.38353014  0.49572083  1
  O  O328  1  0.98588470  0.38339925  1.00261277  1
  O  O329  1  1.00462961  0.88692578  0.48945763  1
  O  O330  1  0.99021587  0.86268645  0.99109114  1
  O  O331  1  0.48911922  0.49045048  0.37416653  1
  O  O332  1  0.49349716  0.49659313  0.88335557  1
  O  O333  1  0.50598884  0.98905825  0.37670151  1
  O  O334  1  0.49544917  0.99672567  0.87757050  1
  O  O335  1  0.99866239  0.49357472  0.38091759  1
  O  O336  1  0.99205777  0.49685712  0.88945413  1
  O  O337  1  0.99247702  0.99756635  0.37632541  1
  O  O338  1  0.99698297  0.98698980  0.87610001  1
  O  O339  1  -0.00064042  0.01574637  0.13422121  1
  O  O340  1  -0.00088645  0.00779295  0.61564098  1
  O  O341  1  0.00989561  0.50164631  0.11635819  1
  O  O342  1  0.01101682  0.49979986  0.61806731  1
  O  O343  1  0.50683181  0.00054888  0.11508792  1
  O  O344  1  0.50430722  -0.00373712  0.61427788  1
  O  O345  1  0.50329922  0.50713899  0.11947343  1
  O  O346  1  0.50950284  0.50996880  0.62433864  1
  O  O347  1  0.25077554  0.38251245  0.24596032  1
  O  O348  1  0.23711782  0.36859371  0.74521815  1
  O  O349  1  0.24155093  0.88097992  0.24237058  1
  O  O350  1  0.24461446  0.88706042  0.74012714  1
  O  O351  1  0.73671010  0.38330530  0.25863042  1
  O  O352  1  0.74324941  0.37381075  0.74341335  1
  O  O353  1  0.74362213  0.87635474  0.23903889  1
  O  O354  1  0.74072165  0.87207317  0.75066454  1
  O  O355  1  0.25023824  0.11463754  0.25702690  1
  O  O356  1  0.24614655  0.11362731  0.75094354  1
  O  O357  1  0.24984776  0.61711432  0.26409341  1
  O  O358  1  0.25444553  0.62296288  0.74284816  1
  O  O359  1  0.74628886  0.11145137  0.25727441  1
  O  O360  1  0.76488670  0.13444470  0.75440748  1
  O  O361  1  0.75457051  0.61780054  0.25598648  1
  O  O362  1  0.75970413  0.62546400  0.75455115  1
  O  O363  1  0.36222810  0.13031347  0.37178769  1
  O  O364  1  0.37221337  0.11257346  0.87674327  1
  O  O365  1  0.36946283  0.61779315  0.37698625  1
  O  O366  1  0.37902795  0.61559949  0.87326504  1
  O  O367  1  0.86348050  0.11278386  0.37363641  1
  O  O368  1  0.87539860  0.12053977  0.87342527  1
  O  O369  1  0.86706397  0.61620493  0.36746607  1
  O  O370  1  0.86991665  0.61697624  0.86760424  1
  O  O371  1  0.13533140  0.38375283  0.12681424  1
  O  O372  1  0.13077918  0.38402792  0.63582636  1
  O  O373  1  0.13239017  0.87254484  0.13315558  1
  O  O374  1  0.13026019  0.88242208  0.62935790  1
  O  O375  1  0.61141995  0.39081690  0.14079638  1
  O  O376  1  0.63212306  0.38192572  0.62973041  1
  O  O377  1  0.63029470  0.87977260  0.12739855  1
  O  O378  1  0.63259676  0.86617921  0.63789942  1
  O  O379  1  0.12211097  0.24996944  0.26114193  1
  O  O380  1  0.11813139  0.25569514  0.76101161  1
  O  O381  1  0.12003020  0.75826228  0.25918344  1
  O  O382  1  0.11582788  0.75778290  0.75108254  1
  O  O383  1  0.62522627  0.25646220  0.26465094  1
  O  O384  1  0.61810527  0.26343969  0.74579396  1
  O  O385  1  0.62953971  0.75734478  0.25624220  1
  O  O386  1  0.63035685  0.75594628  0.76114866  1
  O  O387  1  0.37935345  0.24731638  0.23770481  1
  O  O388  1  0.37724905  0.24272199  0.75672343  1
  O  O389  1  0.36713150  0.74063596  0.23798228  1
  O  O390  1  0.36974708  0.75289535  0.73477784  1
  O  O391  1  0.88784582  0.24993143  0.25444669  1
  O  O392  1  0.89190002  0.24581466  0.75833505  1
  O  O393  1  0.88454524  0.74011344  0.25366442  1
  O  O394  1  0.87962833  0.74350925  0.74247452  1
  O  O395  1  0.36883930  0.50022691  0.49057553  1
  O  O396  1  0.38169677  0.49635017  0.99330293  1
  O  O397  1  0.39549778  0.99543155  0.49614947  1
  O  O398  1  0.38358351  0.99716055  0.99089605  1
  O  O399  1  0.88337030  0.49839306  0.49418703  1
  O  O400  1  0.88755004  0.49836759  0.99714900  1
  O  O401  1  0.88825574  1.00674330  0.48722494  1
  O  O402  1  0.87547234  0.98823012  0.98915927  1
  O  O403  1  0.12449406  0.01461269  -0.00266620  1
  O  O404  1  0.11334494  0.00797735  0.50370577  1
  O  O405  1  0.11146482  0.49831135  0.00850307  1
  O  O406  1  0.11817841  0.49954910  0.50771038  1
  O  O407  1  0.61816577  -0.00875429  0.00572761  1
  O  O408  1  0.61102385  -0.00186498  0.49383120  1
  O  O409  1  0.61720161  0.49773723  0.01066398  1
  O  O410  1  0.63237002  0.50844289  0.51057336  1
  O  O411  1  0.37247395  0.36794820  0.12172502  1
  O  O412  1  0.35993824  0.38337902  0.63299109  1
  O  O413  1  0.36281652  0.87418441  0.11880303  1
  O  O414  1  0.36694973  0.87255773  0.62309526  1
  O  O415  1  0.87564641  0.37595669  0.12376209  1
  O  O416  1  0.86366365  0.37922834  0.62652470  1
  O  O417  1  0.86603931  0.87740367  0.11464328  1
  O  O418  1  0.87804913  0.85496198  0.62155953  1
  O  O419  1  0.13335331  0.13090623  0.37842870  1
  O  O420  1  0.12264184  0.13273215  0.88868624  1
  O  O421  1  0.13208474  0.63387947  0.37519335  1
  O  O422  1  0.13508743  0.61729171  0.85709190  1
  O  O423  1  0.63670379  0.12993485  0.37607509  1
  O  O424  1  0.63876836  0.12000527  0.86604511  1
  O  O425  1  0.62655904  0.62914840  0.37949315  1
  O  O426  1  0.63257312  0.62921776  0.87342853  1
