# generated using pymatgen
data_V85Zn86O256
_symmetry_space_group_name_H-M   'P 1'
_cell_length_a   16.95228131
_cell_length_b   16.96673607
_cell_length_c   16.96730218
_cell_angle_alpha   90.06802900
_cell_angle_beta   90.09287268
_cell_angle_gamma   90.07759285
_symmetry_Int_Tables_number   1
_chemical_formula_structural   V85Zn86O256
_chemical_formula_sum   'V85 Zn86 O256'
_cell_volume   4880.20396286
_cell_formula_units_Z   1
loop_
 _symmetry_equiv_pos_site_id
 _symmetry_equiv_pos_as_xyz
  1  'x, y, z'
loop_
 _atom_site_type_symbol
 _atom_site_label
 _atom_site_symmetry_multiplicity
 _atom_site_fract_x
 _atom_site_fract_y
 _atom_site_fract_z
 _atom_site_occupancy
  V  V0  1  0.37674346  0.88293813  0.49587685  1
  V  V1  1  0.26047669  0.00150955  0.75250096  1
  V  V2  1  0.74818386  0.87550868  0.12456374  1
  V  V3  1  0.49515316  0.62365059  0.63161426  1
  V  V4  1  0.86411602  0.49727364  0.37309756  1
  V  V5  1  0.56842851  0.70580258  0.31648543  1
  V  V6  1  0.75051420  0.63817224  0.37798643  1
  V  V7  1  0.87668015  0.25108591  0.64096967  1
  V  V8  1  0.25166080  0.87633023  0.62437370  1
  V  V9  1  0.39192656  0.87949611  -0.00069477  1
  V  V10  1  0.74703814  0.12715235  0.87468494  1
  V  V11  1  -0.00068007  0.49996444  0.50108807  1
  V  V12  1  0.36733321  0.37841187  0.00561547  1
  V  V13  1  0.00227567  0.36371985  0.87118250  1
  V  V14  1  0.25954106  0.62718430  0.86887473  1
  V  V15  1  -0.00024261  0.75073093  0.25037864  1
  V  V16  1  0.87227374  0.00257442  0.37335563  1
  V  V17  1  0.75200316  0.37711379  0.13110465  1
  V  V18  1  0.12126811  0.36296192  0.75299430  1
  V  V19  1  0.74139820  0.25042332  0.00066111  1
  V  V20  1  0.36811890  0.25117485  0.12691628  1
  V  V21  1  0.87752764  0.37746164  -0.00034966  1
  V  V22  1  0.86817293  0.87006477  0.49798407  1
  V  V23  1  0.12623056  0.24869286  0.37455626  1
  V  V24  1  0.25763174  0.12429392  0.37953847  1
  V  V25  1  0.36924951  0.36866788  0.49854914  1
  V  V26  1  0.86990189  0.61972781  0.25019819  1
  V  V27  1  0.86409960  0.74846868  0.62139704  1
  V  V28  1  0.74468108  0.00070664  0.25198274  1
  V  V29  1  0.87735721  0.24730015  0.12875329  1
  V  V30  1  0.37376132  0.74816264  0.63208664  1
  V  V31  1  0.81818824  0.06734130  0.70800667  1
  V  V32  1  0.12410283  0.88014537  0.25047448  1
  V  V33  1  0.25206725  0.87966614  0.11881930  1
  V  V34  1  0.25425368  0.50132508  0.74773311  1
  V  V35  1  0.49979924  0.11719728  0.63172535  1
  V  V36  1  0.12924190  0.74405352  0.37550307  1
  V  V37  1  -0.00013838  0.00265840  0.00063966  1
  V  V38  1  0.24209919  0.25208112  0.00105854  1
  V  V39  1  0.62529665  0.49951928  0.62347482  1
  V  V40  1  0.49768560  0.50354045  0.00347898  1
  V  V41  1  0.87624191  0.37259778  0.50163117  1
  V  V42  1  0.74999298  0.37687204  0.62670400  1
  V  V43  1  0.12363167  0.49851373  0.62642856  1
  V  V44  1  0.00162515  0.12646898  0.63903586  1
  V  V45  1  0.87435208  0.00660035  0.87096416  1
  V  V46  1  0.62836885  0.62314446  -0.00738277  1
  V  V47  1  0.24668918  0.36438419  0.62183723  1
  V  V48  1  0.00163226  0.87457387  0.87136202  1
  V  V49  1  0.75328209  0.74531212  -0.01087446  1
  V  V50  1  0.49850473  0.24692334  0.25115425  1
  V  V51  1  0.12215298  0.74814770  0.86927139  1
  V  V52  1  0.87792878  0.74915199  0.12390570  1
  V  V53  1  0.62788508  0.37454656  0.25303834  1
  V  V54  1  0.49822674  0.37607109  0.87737831  1
  V  V55  1  0.36070716  0.50921595  0.36587959  1
  V  V56  1  0.51126171  -0.00079823  0.49862536  1
  V  V57  1  0.17552112  0.54416242  0.17905296  1
  V  V58  1  0.25263407  0.74309775  0.49716859  1
  V  V59  1  0.49671213  0.49779330  0.49967723  1
  V  V60  1  -0.00036589  0.61715478  0.12411871  1
  V  V61  1  0.12492415  0.87271929  0.74817296  1
  V  V62  1  0.48743271  0.24944033  0.74930641  1
  V  V63  1  0.12739842  0.62056613  -0.00562271  1
  V  V64  1  0.00033415  0.63374841  0.62986351  1
  V  V65  1  0.87723649  0.87306098  -0.00317962  1
  V  V66  1  0.75058922  0.24773473  0.49706041  1
  V  V67  1  0.24988601  0.13308590  0.87077596  1
  V  V68  1  0.50624186  0.12558998  0.10899604  1
  V  V69  1  0.87156712  0.12852782  0.25377383  1
  V  V70  1  0.62796388  0.24151989  0.37609596  1
  V  V71  1  0.86957160  0.62835066  0.75513890  1
  V  V72  1  0.38190931  0.74597673  0.13572995  1
  V  V73  1  0.62825483  0.50097554  0.12772980  1
  V  V74  1  0.25838078  0.00133708  0.25488359  1
  V  V75  1  0.00288840  0.00154256  0.49925990  1
  V  V76  1  0.12820708  0.12981292  0.50088773  1
  V  V77  1  0.62568834  0.63831100  0.50178114  1
  V  V78  1  0.62311960  0.37450908  0.75283272  1
  V  V79  1  0.50193691  0.87954517  0.36669519  1
  V  V80  1  0.50257074  0.74989852  0.75545399  1
  V  V81  1  -0.00213949  0.12620605  0.13000337  1
  V  V82  1  0.13549739  0.36732049  0.24077076  1
  V  V83  1  0.00035982  0.37062208  0.36642078  1
  V  V84  1  0.63240402  0.88836244  0.74475697  1
  Zn  Zn85  1  0.49916239  0.62643070  0.14143278  1
  Zn  Zn86  1  0.38245259  0.00933534  0.88058792  1
  Zn  Zn87  1  0.50898354  0.88617928  0.87530201  1
  Zn  Zn88  1  0.62844108  0.12030593  0.50256623  1
  Zn  Zn89  1  0.12575822  0.00363197  0.12395584  1
  Zn  Zn90  1  0.61907329  0.24538660  0.88026117  1
  Zn  Zn91  1  0.60732488  -0.00688444  0.09487924  1
  Zn  Zn92  1  0.12886963  0.62153069  0.49717590  1
  Zn  Zn93  1  0.74548163  0.50627411  0.76269748  1
  Zn  Zn94  1  0.62330551  0.87277327  0.24996009  1
  Zn  Zn95  1  0.00555735  0.49700173  -0.00196910  1
  Zn  Zn96  1  0.37051813  0.24334067  0.62187818  1
  Zn  Zn97  1  0.25331551  0.75213588  -0.00279911  1
  Zn  Zn98  1  0.37708294  0.12294446  0.25170675  1
  Zn  Zn99  1  0.12804974  0.00175102  0.62641551  1
  Zn  Zn100  1  0.00073256  0.87488877  0.37602024  1
  Zn  Zn101  1  0.74812837  0.88827547  0.62465265  1
  Zn  Zn102  1  0.37640226  0.50416879  0.87155377  1
  Zn  Zn103  1  0.12188603  0.13055155  -0.00166374  1
  Zn  Zn104  1  0.63043482  0.74802095  0.86982209  1
  Zn  Zn105  1  0.87406801  0.50267009  0.87568598  1
  Zn  Zn106  1  0.49563252  0.37197062  0.37676329  1
  Zn  Zn107  1  0.18524392  0.18709086  0.18962786  1
  Zn  Zn108  1  0.18659720  0.18485697  0.69037799  1
  Zn  Zn109  1  0.19113824  0.70630960  0.18576302  1
  Zn  Zn110  1  0.18702317  0.68659000  0.68666659  1
  Zn  Zn111  1  0.68816367  0.18539980  0.18682377  1
  Zn  Zn112  1  0.67747255  0.19401669  0.68397604  1
  Zn  Zn113  1  0.69515616  0.68221331  0.17864828  1
  Zn  Zn114  1  0.68702958  0.68987654  0.68543959  1
  Zn  Zn115  1  0.30996761  0.31254932  0.31675041  1
  Zn  Zn116  1  0.30961057  0.31728341  0.81665264  1
  Zn  Zn117  1  0.31301584  0.81547773  0.31462162  1
  Zn  Zn118  1  0.31310396  0.81468680  0.81433476  1
  Zn  Zn119  1  0.81274790  0.31040908  0.31282834  1
  Zn  Zn120  1  0.80875924  0.31811926  0.81665678  1
  Zn  Zn121  1  0.81388222  0.81420823  0.31104995  1
  Zn  Zn122  1  0.81547356  0.81257575  0.80590574  1
  Zn  Zn123  1  0.18713955  0.43610524  0.43648741  1
  Zn  Zn124  1  0.18719456  0.43852491  0.93463443  1
  Zn  Zn125  1  0.18857105  0.93708886  0.43677400  1
  Zn  Zn126  1  0.18859299  0.94291070  0.93547077  1
  Zn  Zn127  1  0.68600150  0.43609666  0.43927175  1
  Zn  Zn128  1  0.68957598  0.43815978  0.93794409  1
  Zn  Zn129  1  0.68609987  0.93169418  0.43264799  1
  Zn  Zn130  1  0.68890988  0.93572850  0.92854451  1
  Zn  Zn131  1  0.31404986  0.06601866  0.06276624  1
  Zn  Zn132  1  0.31618818  0.06183401  0.56351483  1
  Zn  Zn133  1  0.31341035  0.56810733  0.06126579  1
  Zn  Zn134  1  0.31329590  0.55902602  0.56185112  1
  Zn  Zn135  1  0.78127690  0.04719426  0.04468298  1
  Zn  Zn136  1  0.81552451  0.06650474  0.54531855  1
  Zn  Zn137  1  0.81113097  0.55966044  0.06120731  1
  Zn  Zn138  1  0.81013693  0.56322600  0.56222544  1
  Zn  Zn139  1  0.43683467  0.43599803  0.18947881  1
  Zn  Zn140  1  0.43384525  0.43432032  0.68553720  1
  Zn  Zn141  1  0.43739020  0.94110130  0.18398655  1
  Zn  Zn142  1  0.44205847  0.93480369  0.68847211  1
  Zn  Zn143  1  0.94067422  0.43825473  0.18919478  1
  Zn  Zn144  1  0.93669964  0.44100068  0.69157152  1
  Zn  Zn145  1  0.93484692  0.93928260  0.18625362  1
  Zn  Zn146  1  0.94535802  0.92996330  0.68095333  1
  Zn  Zn147  1  0.06122099  0.06324123  0.31237301  1
  Zn  Zn148  1  0.07179188  0.05992806  0.81541469  1
  Zn  Zn149  1  0.05691656  0.56147343  0.31759545  1
  Zn  Zn150  1  0.05875602  0.55485697  0.81169932  1
  Zn  Zn151  1  0.56035381  0.06174571  0.31336139  1
  Zn  Zn152  1  0.56066696  0.06336530  0.81610233  1
  Zn  Zn153  1  0.56370679  0.54338660  0.31780800  1
  Zn  Zn154  1  0.56119171  0.56102886  0.81357715  1
  Zn  Zn155  1  0.44082472  0.18603093  0.44046925  1
  Zn  Zn156  1  0.43027091  0.19184354  0.93618415  1
  Zn  Zn157  1  0.43204078  0.68506309  0.44429668  1
  Zn  Zn158  1  0.43788355  0.69209154  0.94383476  1
  Zn  Zn159  1  0.93976748  0.18764801  0.43937185  1
  Zn  Zn160  1  0.93021421  0.18712802  0.93867469  1
  Zn  Zn161  1  0.93999706  0.68726344  0.43751161  1
  Zn  Zn162  1  0.94310604  0.68850832  0.93568713  1
  Zn  Zn163  1  0.05859543  0.31166804  0.06358892  1
  Zn  Zn164  1  0.06008895  0.30942750  0.56265190  1
  Zn  Zn165  1  0.06570215  0.81014105  0.06001985  1
  Zn  Zn166  1  0.06209889  0.81343986  0.56080029  1
  Zn  Zn167  1  0.55886995  0.31396778  0.06567222  1
  Zn  Zn168  1  0.55968497  0.30973280  0.56447468  1
  Zn  Zn169  1  0.56599833  0.80534090  0.06700424  1
  Zn  Zn170  1  0.56116794  0.81652517  0.56745023  1
  O  O171  1  0.11246628  0.12420919  0.12320910  1
  O  O172  1  0.11925190  0.12443573  0.61704903  1
  O  O173  1  0.12139882  0.62154256  0.11968352  1
  O  O174  1  0.11574315  0.61917828  0.62246347  1
  O  O175  1  0.60851268  0.12807807  0.12705152  1
  O  O176  1  0.60610149  0.13245135  0.61880236  1
  O  O177  1  0.62235430  0.61551967  0.11772191  1
  O  O178  1  0.61901270  0.61833601  0.61826114  1
  O  O179  1  0.37419203  0.38194043  0.38376058  1
  O  O180  1  0.38100647  0.37842415  0.88831431  1
  O  O181  1  0.38601059  0.86802923  0.38643667  1
  O  O182  1  0.37718061  0.87152280  0.89298055  1
  O  O183  1  0.88136353  0.37982609  0.37904205  1
  O  O184  1  0.88446353  0.37422317  0.88448638  1
  O  O185  1  0.87899560  0.88195370  0.38135574  1
  O  O186  1  0.88216946  0.88118175  0.87629971  1
  O  O187  1  0.24344665  0.00998714  0.36610495  1
  O  O188  1  0.25650814  0.00897392  0.86931001  1
  O  O189  1  0.26096535  0.49947779  0.37789363  1
  O  O190  1  0.25111688  0.50936474  0.86564771  1
  O  O191  1  0.76324458  -0.00515063  0.36754269  1
  O  O192  1  0.76629360  0.00991109  0.86949798  1
  O  O193  1  0.76112903  0.50454876  0.37908679  1
  O  O194  1  0.76010568  0.49517674  0.87561386  1
  O  O195  1  0.24113387  0.49812808  0.12049836  1
  O  O196  1  0.24261433  0.49292206  0.63015405  1
  O  O197  1  0.24688527  0.99544929  0.13231653  1
  O  O198  1  0.24995473  0.99393375  0.63222434  1
  O  O199  1  0.73771161  0.49129909  0.12205431  1
  O  O200  1  0.74139053  0.49229282  0.62451716  1
  O  O201  1  0.76707115  0.98214633  0.13866773  1
  O  O202  1  0.76776142  1.01020794  0.63482682  1
  O  O203  1  0.00455880  0.37687167  0.26374186  1
  O  O204  1  0.00501472  0.37768776  0.76233356  1
  O  O205  1  0.00812860  0.87092569  0.24830203  1
  O  O206  1  0.01665866  0.88004213  0.75527095  1
  O  O207  1  0.50979361  0.36191139  0.24884856  1
  O  O208  1  0.50368469  0.37115863  0.75546668  1
  O  O209  1  0.49980205  0.88344780  0.26159053  1
  O  O210  1  0.51240176  0.86550107  0.74961397  1
  O  O211  1  0.49804002  0.13707548  0.24911363  1
  O  O212  1  0.50433390  0.13386803  0.73943862  1
  O  O213  1  0.51712021  0.63251664  0.26062541  1
  O  O214  1  0.50459533  0.62978646  0.73817539  1
  O  O215  1  0.98867528  0.11710755  0.23768008  1
  O  O216  1  1.01109095  0.11928449  0.73788987  1
  O  O217  1  0.99190879  0.62927400  0.24420943  1
  O  O218  1  0.99021723  0.61785523  0.73638274  1
  O  O219  1  0.36579155  0.25976639  0.00845305  1
  O  O220  1  0.38032012  0.26511419  0.49982987  1
  O  O221  1  0.37363886  0.76368052  0.01022484  1
  O  O222  1  0.36934559  0.75777734  0.51061609  1
  O  O223  1  0.86815727  0.26263146  0.00919851  1
  O  O224  1  0.86788895  0.25529766  0.50486959  1
  O  O225  1  0.87162999  0.75085226  0.00466598  1
  O  O226  1  0.88227572  0.76063198  0.50534864  1
  O  O227  1  0.12124931  0.23649520  0.49416291  1
  O  O228  1  0.13876102  0.25258045  1.00728977  1
  O  O229  1  0.13375050  0.75158656  0.49186479  1
  O  O230  1  0.12829636  0.73894342  0.99140038  1
  O  O231  1  0.63215060  0.25443008  0.49147441  1
  O  O232  1  0.63729054  0.25833550  1.00095196  1
  O  O233  1  0.61821950  0.73720395  0.50554354  1
  O  O234  1  0.63481599  0.74065491  0.99888289  1
  O  O235  1  0.49178703  0.24306177  0.13149893  1
  O  O236  1  0.49471257  0.24323445  0.63353797  1
  O  O237  1  0.48774999  0.74740781  0.12756925  1
  O  O238  1  0.49292722  0.74302934  0.63383874  1
  O  O239  1  0.98551040  0.24165491  0.12052967  1
  O  O240  1  0.98694247  0.23765605  0.61694503  1
  O  O241  1  0.99866382  0.73836720  0.12986256  1
  O  O242  1  0.99432520  0.73676042  0.61622654  1
  O  O243  1  0.01115342  0.25931926  0.38244455  1
  O  O244  1  -0.00412270  0.26450714  0.88116470  1
  O  O245  1  0.00693088  0.75329722  0.36768169  1
  O  O246  1  0.01442258  0.75832929  0.87743857  1
  O  O247  1  0.50740238  0.25265169  0.36828959  1
  O  O248  1  0.50014801  0.25606613  0.86898480  1
  O  O249  1  0.49902072  0.75503194  0.37662034  1
  O  O250  1  0.49927454  0.74837588  0.86219031  1
  O  O251  1  0.23978580  0.11630753  0.49280475  1
  O  O252  1  0.24754252  0.13442541  0.99436899  1
  O  O253  1  0.24830890  0.63961437  0.50788559  1
  O  O254  1  0.24325981  0.62880495  0.98915740  1
  O  O255  1  0.74610579  0.14192279  0.50119091  1
  O  O256  1  0.76522450  0.14322990  0.98705272  1
  O  O257  1  0.73726009  0.61802876  0.48930985  1
  O  O258  1  0.74167763  0.63424883  1.00949404  1
  O  O259  1  0.25812579  0.36874572  -0.00694605  1
  O  O260  1  0.25546232  0.37823640  0.51069579  1
  O  O261  1  0.24862505  0.87594885  0.01112865  1
  O  O262  1  0.25815552  0.86937778  0.50473186  1
  O  O263  1  0.75718541  0.36927465  0.01254662  1
  O  O264  1  0.75572187  0.36856462  0.50712100  1
  O  O265  1  0.75934518  0.86372810  0.00611614  1
  O  O266  1  0.76464359  0.88557285  0.50469149  1
  O  O267  1  0.11930423  0.48797035  0.24934134  1
  O  O268  1  0.13231845  0.49129604  0.74309956  1
  O  O269  1  0.12938224  0.99008506  0.24903872  1
  O  O270  1  0.13916094  0.99002409  0.74931404  1
  O  O271  1  0.62406702  0.48389685  0.24274594  1
  O  O272  1  0.62379375  0.49057485  0.74399843  1
  O  O273  1  0.64029763  1.00192147  0.25241277  1
  O  O274  1  0.62414083  0.98635829  0.75125233  1
  O  O275  1  0.36190932  0.00197918  0.24785420  1
  O  O276  1  0.36307159  -0.01010118  0.75193386  1
  O  O277  1  0.38061694  0.49563224  0.26700170  1
  O  O278  1  0.35929984  0.49396105  0.75074387  1
  O  O279  1  0.86984248  0.00541725  0.25801745  1
  O  O280  1  0.88429572  -0.00132487  0.75547633  1
  O  O281  1  0.88131348  0.50812248  0.26088746  1
  O  O282  1  0.86985608  0.51595139  0.74655256  1
  O  O283  1  0.11872014  0.36737666  0.36983936  1
  O  O284  1  0.11126632  0.37814345  0.86809240  1
  O  O285  1  0.12330608  0.86716725  0.36668072  1
  O  O286  1  0.12378627  0.86858801  0.86830245  1
  O  O287  1  0.62289078  0.36946258  0.36634721  1
  O  O288  1  0.61644413  0.37444847  0.86831858  1
  O  O289  1  0.61261172  0.86943236  0.37106538  1
  O  O290  1  0.62676636  0.86861255  0.86235000  1
  O  O291  1  0.38545542  0.13431019  0.12784886  1
  O  O292  1  0.39183369  0.12852252  0.61886990  1
  O  O293  1  0.37750364  0.64092455  0.12273444  1
  O  O294  1  0.38429660  0.63402878  0.61933800  1
  O  O295  1  0.87899569  0.13319882  0.13197200  1
  O  O296  1  0.87884329  0.12888495  0.63427504  1
  O  O297  1  0.88070254  0.62723131  0.13185682  1
  O  O298  1  0.88083910  0.63128737  0.62741368  1
  O  O299  1  0.26181246  0.24304212  0.11989470  1
  O  O300  1  0.25101057  0.26062964  0.62970257  1
  O  O301  1  0.26070134  0.76298218  0.11952452  1
  O  O302  1  0.25675850  0.75613464  0.62031840  1
  O  O303  1  0.75787057  0.25534982  0.11964443  1
  O  O304  1  0.75609554  0.25776780  0.61871451  1
  O  O305  1  0.75810189  0.76007409  0.11852372  1
  O  O306  1  0.76224548  0.74963964  0.61943032  1
  O  O307  1  0.23525812  0.24059639  0.37299496  1
  O  O308  1  0.25242981  0.24109266  0.88309326  1
  O  O309  1  0.24251804  0.75544574  0.38459870  1
  O  O310  1  0.24084273  0.74377610  0.87435562  1
  O  O311  1  0.74118178  0.25848223  0.38530221  1
  O  O312  1  0.74805338  0.24691374  0.88398089  1
  O  O313  1  0.75770971  0.73744153  0.37580262  1
  O  O314  1  0.75431273  0.75129788  0.88648084  1
  O  O315  1  -0.00295470  0.11844677  0.00859425  1
  O  O316  1  0.00568321  0.11500765  0.50616453  1
  O  O317  1  0.00773815  0.62460794  0.00840587  1
  O  O318  1  -0.00096218  0.61157322  0.50591953  1
  O  O319  1  0.49973059  0.13533664  0.01066083  1
  O  O320  1  0.50272704  0.11449073  0.50601848  1
  O  O321  1  0.50589273  0.61453877  0.00298160  1
  O  O322  1  0.50568149  0.61723803  0.51049316  1
  O  O323  1  0.49141239  0.38352814  0.50355825  1
  O  O324  1  0.49463877  0.38661093  0.99826052  1
  O  O325  1  0.49526462  0.88157183  0.49546688  1
  O  O326  1  0.49492938  0.87266965  1.00122546  1
  O  O327  1  0.99571670  0.38364909  0.49387556  1
  O  O328  1  0.99467333  0.37617904  0.99260904  1
  O  O329  1  0.99291594  0.88809689  0.50118996  1
  O  O330  1  0.99564734  0.88116068  0.99430820  1
  O  O331  1  0.49400385  0.49292567  0.39025611  1
  O  O332  1  0.49599918  0.49576826  0.88448915  1
  O  O333  1  0.50097831  0.99242690  0.38471045  1
  O  O334  1  0.49435895  0.99869636  0.87536529  1
  O  O335  1  0.99067886  0.49277690  0.38417277  1
  O  O336  1  0.99246693  0.48863376  0.87874925  1
  O  O337  1  0.99195461  0.99839333  0.38138367  1
  O  O338  1  0.99369303  0.99722963  0.88141118  1
  O  O339  1  -0.00239228  0.00742110  0.11591622  1
  O  O340  1  0.00261569  0.00853510  0.61575181  1
  O  O341  1  -0.00035626  0.51301847  0.12319976  1
  O  O342  1  0.00428915  0.50422298  0.61728243  1
  O  O343  1  0.49978082  0.01831835  0.12524701  1
  O  O344  1  0.49786919  0.01072059  0.61943067  1
  O  O345  1  0.50941488  0.50267730  0.12154092  1
  O  O346  1  0.50169429  0.50612303  0.61911151  1
  O  O347  1  0.23459779  0.37177941  0.25082320  1
  O  O348  1  0.24083145  0.38117622  0.74519039  1
  O  O349  1  0.24386715  0.88252438  0.24248751  1
  O  O350  1  0.24377237  0.88026414  0.74541900  1
  O  O351  1  0.74440717  0.36910677  0.23826293  1
  O  O352  1  0.73897136  0.37649484  0.74381503  1
  O  O353  1  0.74951251  0.88061589  0.24248318  1
  O  O354  1  0.73789388  0.87107712  0.74498380  1
  O  O355  1  0.24906211  0.11696012  0.25889759  1
  O  O356  1  0.24705242  0.11812732  0.76152158  1
  O  O357  1  0.22707471  0.60851124  0.23456235  1
  O  O358  1  0.24423435  0.61533177  0.75719418  1
  O  O359  1  0.76239088  0.11556290  0.24362550  1
  O  O360  1  0.75078181  0.13426147  0.75316786  1
  O  O361  1  0.76367720  0.62638389  0.25577256  1
  O  O362  1  0.76466655  0.62521478  0.74330197  1
  O  O363  1  0.36075257  0.13292486  0.37492234  1
  O  O364  1  0.35698100  0.12448057  0.88117999  1
  O  O365  1  0.37692004  0.60802373  0.38266715  1
  O  O366  1  0.36243408  0.62738206  0.87993120  1
  O  O367  1  0.88116295  0.11717094  0.36594631  1
  O  O368  1  0.86828029  0.11832859  0.86856825  1
  O  O369  1  0.86942417  0.61750933  0.37058756  1
  O  O370  1  0.88362267  0.62900430  0.85746011  1
  O  O371  1  0.11708444  0.37057710  0.14249778  1
  O  O372  1  0.12842722  0.37832537  0.62962181  1
  O  O373  1  0.13367856  0.87464811  0.13279495  1
  O  O374  1  0.13178657  0.87537870  0.63165323  1
  O  O375  1  0.63244671  0.37927356  0.13189206  1
  O  O376  1  0.62771168  0.38005984  0.63231459  1
  O  O377  1  0.63362453  0.87954917  0.12709392  1
  O  O378  1  0.62983451  0.87364965  0.63783521  1
  O  O379  1  0.12303292  0.25913169  0.25833976  1
  O  O380  1  0.12548740  0.26383375  0.74656866  1
  O  O381  1  0.12155796  0.76196842  0.25672135  1
  O  O382  1  0.13077071  0.75925522  0.75755119  1
  O  O383  1  0.62154553  0.25611895  0.25587490  1
  O  O384  1  0.61326542  0.26454266  0.75151003  1
  O  O385  1  0.63019806  0.75134439  0.24730588  1
  O  O386  1  0.61670525  0.75155324  0.75093843  1
  O  O387  1  0.38195110  0.25187319  0.24394336  1
  O  O388  1  0.38508793  0.25923612  0.74890753  1
  O  O389  1  0.36782931  0.75553320  0.23386540  1
  O  O390  1  0.38181906  0.75786896  0.73832477  1
  O  O391  1  0.87050902  0.24016385  0.24310937  1
  O  O392  1  0.87230736  0.25879421  0.73939048  1
  O  O393  1  0.88139444  0.74282244  0.24392868  1
  O  O394  1  0.87574572  0.73903880  0.73746229  1
  O  O395  1  0.38087445  0.49044559  0.49632079  1
  O  O396  1  0.38205042  0.49551329  1.00178448  1
  O  O397  1  0.38436960  0.98652597  0.50456241  1
  O  O398  1  0.37014190  0.98117364  1.00441486  1
  O  O399  1  0.88020904  0.49311818  0.49433277  1
  O  O400  1  0.87841100  0.48613945  1.00566935  1
  O  O401  1  0.88400849  0.99592469  0.49006026  1
  O  O402  1  0.88227115  0.99455430  0.99010606  1
  O  O403  1  0.10953905  0.00000115  0.00156844  1
  O  O404  1  0.11734385  0.00738893  0.49999510  1
  O  O405  1  0.12407367  0.51550886  -0.00718466  1
  O  O406  1  0.11605545  0.50049113  0.50504946  1
  O  O407  1  0.67447166  0.00911508  0.00938186  1
  O  O408  1  0.61591687  -0.00132065  0.49806527  1
  O  O409  1  0.61815707  0.50371380  0.00829876  1
  O  O410  1  0.61437635  0.50435823  0.50451469  1
  O  O411  1  0.38130591  0.36684434  0.11413518  1
  O  O412  1  0.36290107  0.37393337  0.61683756  1
  O  O413  1  0.37148217  0.87022542  0.11680537  1
  O  O414  1  0.37220191  0.86682630  0.61740505  1
  O  O415  1  0.87037292  0.36949409  0.12400288  1
  O  O416  1  0.87216340  0.36902566  0.62114877  1
  O  O417  1  0.87302960  0.86627394  0.11721705  1
  O  O418  1  0.87433300  0.86538045  0.61784392  1
  O  O419  1  0.12779964  0.13156469  0.38067621  1
  O  O420  1  0.14265360  0.12063757  0.88204376  1
  O  O421  1  0.11849520  0.63938534  0.37703480  1
  O  O422  1  0.12805101  0.63173510  0.87702885  1
  O  O423  1  0.62240367  0.13872501  0.37756893  1
  O  O424  1  0.64237680  0.12828266  0.86783418  1
  O  O425  1  0.62893179  0.63102648  0.37729670  1
  O  O426  1  0.62259797  0.62523723  0.88887566  1
