# generated using pymatgen
data_V85Zn86O256
_symmetry_space_group_name_H-M   'P 1'
_cell_length_a   16.95470162
_cell_length_b   16.95242176
_cell_length_c   16.94405729
_cell_angle_alpha   90.06923690
_cell_angle_beta   90.01074677
_cell_angle_gamma   90.01290226
_symmetry_Int_Tables_number   1
_chemical_formula_structural   V85Zn86O256
_chemical_formula_sum   'V85 Zn86 O256'
_cell_volume   4870.11229330
_cell_formula_units_Z   1
loop_
 _symmetry_equiv_pos_site_id
 _symmetry_equiv_pos_as_xyz
  1  'x, y, z'
loop_
 _atom_site_type_symbol
 _atom_site_label
 _atom_site_symmetry_multiplicity
 _atom_site_fract_x
 _atom_site_fract_y
 _atom_site_fract_z
 _atom_site_occupancy
  V  V0  1  0.75898593  0.62976290  0.87277174  1
  V  V1  1  0.25012010  0.13041900  0.87137252  1
  V  V2  1  0.76205212  0.87969039  0.62183866  1
  V  V3  1  0.74939874  0.38177772  0.62327476  1
  V  V4  1  0.87404098  0.37297461  -0.00799111  1
  V  V5  1  0.62011495  0.37255194  0.24587922  1
  V  V6  1  0.25119636  0.74849679  0.50649299  1
  V  V7  1  0.13465193  0.48778525  0.62143300  1
  V  V8  1  0.00039036  0.49583346  0.00110506  1
  V  V9  1  0.73680203  0.62499672  0.37720039  1
  V  V10  1  -0.00007557  0.74830427  0.25082339  1
  V  V11  1  0.37745634  0.86959658  0.50765076  1
  V  V12  1  0.62045357  0.62357033  -0.00500260  1
  V  V13  1  -0.00066001  0.11979116  0.11585886  1
  V  V14  1  0.00401732  0.13442084  0.62686416  1
  V  V15  1  0.12557456  0.74785920  0.37762966  1
  V  V16  1  0.36717609  0.25253269  0.12777672  1
  V  V17  1  0.63064654  0.87453390  0.74638139  1
  V  V18  1  0.24759122  0.87172238  0.63467607  1
  V  V19  1  0.37286794  0.75351489  0.12096770  1
  V  V20  1  0.62403779  0.50830753  0.62131067  1
  V  V21  1  0.75252847  0.12320771  0.37949196  1
  V  V22  1  0.88054643  0.12406207  0.25580839  1
  V  V23  1  0.74704583  0.50642648  0.75076997  1
  V  V24  1  0.37470185  -0.00950687  0.37641645  1
  V  V25  1  0.50538291  0.50583565  0.49570499  1
  V  V26  1  0.75131964  -0.00343365  0.25223386  1
  V  V27  1  0.74780398  0.37572081  0.12123806  1
  V  V28  1  0.74911053  0.87942404  0.11681350  1
  V  V29  1  0.87721352  -0.00833436  0.38459550  1
  V  V30  1  0.87288677  0.73458339  0.63880786  1
  V  V31  1  0.37404151  0.12601087  0.24615282  1
  V  V32  1  0.74119867  0.23877520  -0.00916302  1
  V  V33  1  0.62032925  0.50159021  0.12074570  1
  V  V34  1  0.00183702  0.50475464  0.49927633  1
  V  V35  1  0.87304932  0.62503669  0.25088257  1
  V  V36  1  0.74994963  0.74670509  0.50064869  1
  V  V37  1  0.24949784  -0.00337964  0.24515827  1
  V  V38  1  0.24724356  0.26244949  -0.00151288  1
  V  V39  1  0.49788157  0.75562157  0.25672295  1
  V  V40  1  0.49889974  0.12771667  0.63149429  1
  V  V41  1  0.12674859  -0.00073442  0.63514176  1
  V  V42  1  0.88108106  0.25930810  0.63464653  1
  V  V43  1  0.00058088  0.62229311  0.12139069  1
  V  V44  1  0.48984811  0.75259675  0.74813056  1
  V  V45  1  0.75146576  0.25294301  0.49826019  1
  V  V46  1  0.62007528  0.24712144  0.37376376  1
  V  V47  1  0.25269719  0.62241812  0.37387005  1
  V  V48  1  0.12417929  -0.00049750  0.11734073  1
  V  V49  1  0.37659548  0.87742467  0.00448377  1
  V  V50  1  0.19360467  0.81718457  0.07097873  1
  V  V51  1  0.11174097  0.37941481  0.75519973  1
  V  V52  1  0.13533416  0.49645037  0.12483255  1
  V  V53  1  0.87642693  0.25132596  0.12324397  1
  V  V54  1  0.11138586  0.25768055  0.87285339  1
  V  V55  1  0.49864424  0.62373958  0.11954612  1
  V  V56  1  0.14264609  0.37493573  0.24660370  1
  V  V57  1  0.25196265  0.25697256  0.50286466  1
  V  V58  1  0.50556170  0.37569444  0.86662476  1
  V  V59  1  0.26047949  0.48927291  0.74673658  1
  V  V60  1  0.62367827  0.75544478  0.87432222  1
  V  V61  1  0.86938707  0.12362228  0.75060303  1
  V  V62  1  0.62326694  0.12447252  0.50116339  1
  V  V63  1  0.74754607  0.49983126  0.24756470  1
  V  V64  1  0.87405275  0.49990599  0.37415157  1
  V  V65  1  0.00083808  0.25262095  0.25114991  1
  V  V66  1  0.87725236  0.37703913  0.49984078  1
  V  V67  1  0.75657897  0.75247044  0.00071572  1
  V  V68  1  0.12650651  0.62068617  0.49541540  1
  V  V69  1  0.12883443  0.87426554  0.25340340  1
  V  V70  1  0.62260143  0.87491633  0.25477627  1
  V  V71  1  0.37181034  0.62125832  0.24805307  1
  V  V72  1  0.38390863  0.38247816  0.00409096  1
  V  V73  1  0.24410585  0.62066380  0.88437691  1
  V  V74  1  0.49863593  0.36916417  0.37135938  1
  V  V75  1  0.24874727  0.12352998  0.37885433  1
  V  V76  1  0.37615907  0.25622841  0.63264642  1
  V  V77  1  0.87642636  0.50064661  0.87157846  1
  V  V78  1  0.49252815  0.63128660  0.62207904  1
  V  V79  1  -0.00004600  -0.01024338  0.50829421  1
  V  V80  1  0.50044670  -0.00608164  0.50056710  1
  V  V81  1  0.50026019  0.01868120  0.00650058  1
  V  V82  1  0.54087544  0.18857426  0.19217140  1
  V  V83  1  0.02545320  0.64318040  0.65924667  1
  V  V84  1  0.37242208  0.49783305  0.37063763  1
  Zn  Zn85  1  0.61731170  0.00848628  0.12854733  1
  Zn  Zn86  1  0.91676930  0.90179179  0.01237901  1
  Zn  Zn87  1  0.12542802  0.12819902  -0.00278436  1
  Zn  Zn88  1  0.87368124  -0.00264962  0.88958862  1
  Zn  Zn89  1  0.37370961  0.62661863  0.75146877  1
  Zn  Zn90  1  0.61678899  0.22612252  0.86163310  1
  Zn  Zn91  1  0.25055442  -0.00522504  0.75664986  1
  Zn  Zn92  1  0.12625904  0.12582536  0.50305942  1
  Zn  Zn93  1  0.12515266  0.24984351  0.37648073  1
  Zn  Zn94  1  0.71421339  0.04911820  0.79137399  1
  Zn  Zn95  1  0.00840162  0.87981817  0.86802272  1
  Zn  Zn96  1  0.37509827  0.12392945  0.75149663  1
  Zn  Zn97  1  0.38341497  0.50438539  0.88066613  1
  Zn  Zn98  1  0.37138924  0.00087521  0.87731170  1
  Zn  Zn99  1  0.61733148  0.75256322  0.38334473  1
  Zn  Zn100  1  0.87445966  0.75642466  0.12897441  1
  Zn  Zn101  1  0.49730611  0.87493213  0.87929290  1
  Zn  Zn102  1  0.62851213  -0.00090231  0.62581964  1
  Zn  Zn103  1  0.62188206  0.37269175  0.74688128  1
  Zn  Zn104  1  -0.00257368  0.87079943  0.38210408  1
  Zn  Zn105  1  0.00138938  0.37396544  0.37261981  1
  Zn  Zn106  1  0.37446483  0.37566139  0.50101648  1
  Zn  Zn107  1  0.18802388  0.18670179  0.18654292  1
  Zn  Zn108  1  0.18792842  0.19604924  0.68940762  1
  Zn  Zn109  1  0.18441352  0.67838051  0.19036899  1
  Zn  Zn110  1  0.19943269  0.67463636  0.68544431  1
  Zn  Zn111  1  0.70582460  0.18648568  0.18751030  1
  Zn  Zn112  1  0.68379804  0.19787857  0.68041157  1
  Zn  Zn113  1  0.68500287  0.69120631  0.18717059  1
  Zn  Zn114  1  0.68319570  0.68860234  0.68718037  1
  Zn  Zn115  1  0.31546228  0.30708543  0.31448374  1
  Zn  Zn116  1  0.31341250  0.31556748  0.81677760  1
  Zn  Zn117  1  0.31183509  0.81072436  0.31346422  1
  Zn  Zn118  1  0.30501122  0.80659091  0.82241091  1
  Zn  Zn119  1  0.81184134  0.31332972  0.31228353  1
  Zn  Zn120  1  0.80440721  0.31562390  0.81097623  1
  Zn  Zn121  1  0.80918273  0.81201848  0.31406789  1
  Zn  Zn122  1  0.82367789  0.82570838  0.81147021  1
  Zn  Zn123  1  0.18895073  0.43358666  0.43021991  1
  Zn  Zn124  1  0.18792615  0.44618773  0.93235125  1
  Zn  Zn125  1  0.18395061  0.93584554  0.44443760  1
  Zn  Zn126  1  0.18075407  0.94005264  0.92952940  1
  Zn  Zn127  1  0.68483886  0.43784736  0.43548477  1
  Zn  Zn128  1  0.68660095  0.43907062  0.93797433  1
  Zn  Zn129  1  0.68913959  0.93289326  0.44184882  1
  Zn  Zn130  1  0.68746134  1.05403339  0.94716568  1
  Zn  Zn131  1  0.30995749  0.06770282  0.05942755  1
  Zn  Zn132  1  0.31256672  0.06239452  0.56535921  1
  Zn  Zn133  1  0.31154483  0.56341415  0.06337216  1
  Zn  Zn134  1  0.31680697  0.55844059  0.56163413  1
  Zn  Zn135  1  0.81733748  0.05896282  0.06721387  1
  Zn  Zn136  1  0.81683145  0.06524950  0.56848983  1
  Zn  Zn137  1  0.81169981  0.56521456  0.06016254  1
  Zn  Zn138  1  0.81429619  0.56876586  0.56067906  1
  Zn  Zn139  1  0.43610337  0.43724690  0.18626085  1
  Zn  Zn140  1  0.44157358  0.43569039  0.68446912  1
  Zn  Zn141  1  0.43721000  0.93698791  0.18382699  1
  Zn  Zn142  1  0.43554162  0.93920329  0.68947019  1
  Zn  Zn143  1  0.93648468  0.43569368  0.18501349  1
  Zn  Zn144  1  0.94084599  0.45755917  0.68751009  1
  Zn  Zn145  1  0.93909275  0.93625491  0.19205514  1
  Zn  Zn146  1  0.95671645  0.95979424  0.72591579  1
  Zn  Zn147  1  0.06225566  0.06148268  0.31387941  1
  Zn  Zn148  1  0.06014149  0.07239109  0.81317050  1
  Zn  Zn149  1  0.06263225  0.55736674  0.30975381  1
  Zn  Zn150  1  0.04140095  0.60507197  0.84171568  1
  Zn  Zn151  1  0.56366286  0.05192624  0.32106181  1
  Zn  Zn152  1  0.54811616  0.05311057  0.81416034  1
  Zn  Zn153  1  0.55738013  0.56198722  0.30614336  1
  Zn  Zn154  1  0.55969650  0.56170304  0.81178855  1
  Zn  Zn155  1  0.43479623  0.18405089  0.43972671  1
  Zn  Zn156  1  0.43364929  0.19596662  0.93486209  1
  Zn  Zn157  1  0.43700540  0.68706361  0.43878823  1
  Zn  Zn158  1  0.43262162  0.68837429  0.93531867  1
  Zn  Zn159  1  0.94087590  0.18604543  0.44260729  1
  Zn  Zn160  1  0.93398123  0.18544184  0.93550020  1
  Zn  Zn161  1  0.93339149  0.68903675  0.44140394  1
  Zn  Zn162  1  0.96439987  0.73411725  0.96151132  1
  Zn  Zn163  1  0.06142847  0.31523415  0.06250450  1
  Zn  Zn164  1  0.06484218  0.31474886  0.55892286  1
  Zn  Zn165  1  0.12696833  0.76128114  -0.10885549  1
  Zn  Zn166  1  0.06020659  0.81520003  0.68566327  1
  Zn  Zn167  1  0.56197777  0.31263193  0.05173718  1
  Zn  Zn168  1  0.56018103  0.31493890  0.56127138  1
  Zn  Zn169  1  0.56343916  0.81458778  0.06452338  1
  Zn  Zn170  1  0.56679375  0.81004015  0.56303900  1
  O  O171  1  0.11733285  0.11689043  0.12582554  1
  O  O172  1  0.11912612  0.12403390  0.62608868  1
  O  O173  1  0.11360986  0.60605740  0.13704649  1
  O  O174  1  0.12550525  0.60656181  0.61120754  1
  O  O175  1  0.61285544  0.13213280  0.14294094  1
  O  O176  1  0.61799380  0.12415151  0.61609030  1
  O  O177  1  0.61613031  0.62414458  0.11774927  1
  O  O178  1  0.61475249  0.61317893  0.62730056  1
  O  O179  1  0.38283054  0.38097270  0.37315031  1
  O  O180  1  0.38696189  0.37362477  0.88770457  1
  O  O181  1  0.36773655  0.88593420  0.38380112  1
  O  O182  1  0.36891837  0.87153101  0.89406488  1
  O  O183  1  0.87358465  0.38262535  0.38200947  1
  O  O184  1  0.86761961  0.38345924  0.88512032  1
  O  O185  1  0.87705656  0.88780072  0.37089892  1
  O  O186  1  0.88165032  0.87498499  0.88941835  1
  O  O187  1  0.25478716  0.00437612  0.36931440  1
  O  O188  1  0.25059074  0.01574946  0.87737672  1
  O  O189  1  0.26550801  0.50431582  0.37970015  1
  O  O190  1  0.26476271  0.49904157  0.86230868  1
  O  O191  1  0.75855118  0.00372343  0.37511341  1
  O  O192  1  0.75976518  -0.00018208  0.87970401  1
  O  O193  1  0.75269680  0.50651006  0.36762945  1
  O  O194  1  0.75262791  0.50670321  0.86791920  1
  O  O195  1  0.23386939  0.50355550  0.12434377  1
  O  O196  1  0.24713278  0.49858567  0.63198477  1
  O  O197  1  0.24233463  1.00903421  0.14003896  1
  O  O198  1  0.24305080  0.98995603  0.62439973  1
  O  O199  1  0.74233752  0.49600891  0.12864985  1
  O  O200  1  0.74360887  0.50269653  0.62935271  1
  O  O201  1  0.74460665  0.99542512  0.13352371  1
  O  O202  1  0.74980023  0.98396257  0.61531271  1
  O  O203  1  -0.00133962  0.36126870  0.24910800  1
  O  O204  1  0.01360040  0.38784417  0.74742706  1
  O  O205  1  0.01137624  0.86529564  0.25373771  1
  O  O206  1  -0.01544294  0.85806047  0.75286541  1
  O  O207  1  0.50573354  0.37999563  0.26200043  1
  O  O208  1  0.49966717  0.37439941  0.76273312  1
  O  O209  1  0.50731103  0.86716494  0.24544695  1
  O  O210  1  0.50878510  0.86785081  0.74952921  1
  O  O211  1  0.49114771  0.12234127  0.25819025  1
  O  O212  1  0.49806544  0.12090822  0.73456069  1
  O  O213  1  0.48893734  0.63314698  0.24236786  1
  O  O214  1  0.49847545  0.63359411  0.74178931  1
  O  O215  1  1.00004341  0.13645080  0.24523740  1
  O  O216  1  0.98726942  0.13156414  0.73354382  1
  O  O217  1  0.99069599  0.62753439  0.24866884  1
  O  O218  1  0.99364183  0.58982287  0.73736615  1
  O  O219  1  0.36815171  0.26035198  0.00925993  1
  O  O220  1  0.36771845  0.25109082  0.50576084  1
  O  O221  1  0.37665323  0.75513749  0.01511000  1
  O  O222  1  0.36508912  0.75943277  0.49226235  1
  O  O223  1  0.86679544  0.25601548  0.00243446  1
  O  O224  1  0.87084101  0.26160865  0.50332120  1
  O  O225  1  0.85897116  0.73812836  0.00847419  1
  O  O226  1  0.85834817  0.74211398  0.50881242  1
  O  O227  1  0.13559453  0.24747238  0.49710293  1
  O  O228  1  0.13230658  0.25645968  0.99342216  1
  O  O229  1  0.13690686  0.73736811  0.48993650  1
  O  O230  1  0.14153702  0.75586416  1.01592066  1
  O  O231  1  0.63165556  0.24527237  0.49472391  1
  O  O232  1  0.63948963  0.24944925  0.99692688  1
  O  O233  1  0.63985164  0.74989103  0.49739718  1
  O  O234  1  0.63181599  0.74278962  0.99414515  1
  O  O235  1  0.49126927  0.24978026  0.12357667  1
  O  O236  1  0.48725504  0.24112927  0.61485981  1
  O  O237  1  0.49197640  0.74180640  0.13386073  1
  O  O238  1  0.50591558  0.74101145  0.63328844  1
  O  O239  1  0.99456614  0.24373208  0.13172644  1
  O  O240  1  0.99111475  0.24790813  0.61647056  1
  O  O241  1  0.99651414  0.73735916  0.14387303  1
  O  O242  1  0.98133393  0.73989501  0.62145587  1
  O  O243  1  0.00306689  0.25003008  0.36650018  1
  O  O244  1  0.01248416  0.25145545  0.88175094  1
  O  O245  1  0.00485511  0.74810649  0.36777142  1
  O  O246  1  0.02688643  0.71085636  0.87336054  1
  O  O247  1  0.50558317  0.25737307  0.38014204  1
  O  O248  1  0.50758054  0.26731807  0.88657987  1
  O  O249  1  0.49891271  0.74547970  0.36125013  1
  O  O250  1  0.50717082  0.75111926  0.86736080  1
  O  O251  1  0.25112466  0.13131719  0.49246506  1
  O  O252  1  0.24784757  0.14070480  0.99107744  1
  O  O253  1  0.25025205  0.63018590  0.49477688  1
  O  O254  1  0.25639926  0.62115057  0.98441605  1
  O  O255  1  0.74443241  0.13110789  0.49738656  1
  O  O256  1  0.74941035  0.13603619  1.00971099  1
  O  O257  1  0.74980397  0.62811372  0.48629742  1
  O  O258  1  0.74042589  0.63229823  0.99334700  1
  O  O259  1  0.26162666  0.36744951  -0.00742847  1
  O  O260  1  0.25369166  0.36109365  0.49240620  1
  O  O261  1  0.25135379  0.87620816  0.00868041  1
  O  O262  1  0.25515993  0.86552360  0.50775626  1
  O  O263  1  0.75475966  0.36805028  0.00478016  1
  O  O264  1  0.75686135  0.37552950  0.50389419  1
  O  O265  1  0.74195076  0.86544331  0.01537363  1
  O  O266  1  0.74730885  0.86320511  0.51328598  1
  O  O267  1  0.12029957  0.48328454  0.24010425  1
  O  O268  1  0.14001150  0.48753619  0.73744631  1
  O  O269  1  0.13089294  0.99108634  0.24651182  1
  O  O270  1  0.13135135  1.01032864  0.73793055  1
  O  O271  1  0.62949310  0.49437856  0.24162534  1
  O  O272  1  0.63059344  0.49622695  0.74014512  1
  O  O273  1  0.63103457  0.99311755  0.24971551  1
  O  O274  1  0.62309688  0.98677279  0.74568198  1
  O  O275  1  0.36820654  0.00279708  0.25640221  1
  O  O276  1  0.36961533  0.00375073  0.75619957  1
  O  O277  1  0.38028892  0.50929021  0.25742157  1
  O  O278  1  0.36760882  0.49809414  0.74521771  1
  O  O279  1  0.87253823  0.00600870  0.26088545  1
  O  O280  1  0.86390830  0.02429169  0.73021968  1
  O  O281  1  0.86720653  0.50427362  0.25362696  1
  O  O282  1  0.86474897  0.49568159  0.76519648  1
  O  O283  1  0.12249328  0.37288025  0.35792469  1
  O  O284  1  0.12519695  0.37506384  0.86256471  1
  O  O285  1  0.12309360  0.86718797  0.36983904  1
  O  O286  1  0.12685937  0.87111312  0.86353378  1
  O  O287  1  0.62001358  0.36675039  0.36580830  1
  O  O288  1  0.61126231  0.38050092  0.87695762  1
  O  O289  1  0.63247000  0.87261652  0.36025295  1
  O  O290  1  0.62353273  0.85985869  0.86540636  1
  O  O291  1  0.37099527  0.13215640  0.13870686  1
  O  O292  1  0.38303867  0.13443381  0.62453480  1
  O  O293  1  0.37907156  0.63078796  0.12993932  1
  O  O294  1  0.38867813  0.62183770  0.62734285  1
  O  O295  1  0.88310384  0.13146776  0.13678987  1
  O  O296  1  0.88257886  0.14297502  0.62509773  1
  O  O297  1  0.87918377  0.62223310  0.13917925  1
  O  O298  1  0.88264998  0.63090972  0.62700292  1
  O  O299  1  0.25976424  0.24750345  0.11746810  1
  O  O300  1  0.26532205  0.24425258  0.61554860  1
  O  O301  1  0.25334337  0.75314184  0.13046723  1
  O  O302  1  0.24645413  0.75425452  0.61396110  1
  O  O303  1  0.75793245  0.25662824  0.11544574  1
  O  O304  1  0.75961759  0.26371613  0.61403912  1
  O  O305  1  0.75094091  0.75743146  0.11974763  1
  O  O306  1  0.75513872  0.74732997  0.61766936  1
  O  O307  1  0.25118738  0.23927304  0.38243964  1
  O  O308  1  0.24221970  0.24919470  0.88220319  1
  O  O309  1  0.24567079  0.74229500  0.38162913  1
  O  O310  1  0.23531379  0.72579911  0.86238443  1
  O  O311  1  0.74254024  0.24406435  0.37835761  1
  O  O312  1  0.75012359  0.25087960  0.88970701  1
  O  O313  1  0.74906021  0.74073778  0.38170226  1
  O  O314  1  0.74377985  0.74508823  0.88224058  1
  O  O315  1  0.00429221  0.13458656  0.01390784  1
  O  O316  1  0.00341140  0.11898242  0.51261978  1
  O  O317  1  -0.00769783  0.61984056  0.01930311  1
  O  O318  1  0.00746208  0.61308605  0.49077963  1
  O  O319  1  0.49004182  0.11683014  -0.00023318  1
  O  O320  1  0.50554681  0.11655509  0.50530043  1
  O  O321  1  0.50731325  0.63308084  0.00826179  1
  O  O322  1  0.49781110  0.61793281  0.50651687  1
  O  O323  1  0.50107886  0.38384137  0.48471948  1
  O  O324  1  0.48810613  0.37887859  0.99603507  1
  O  O325  1  0.49128268  0.88091848  0.50617599  1
  O  O326  1  0.48952294  0.87666950  1.00190332  1
  O  O327  1  0.99512126  0.38635504  0.49542892  1
  O  O328  1  0.98545005  0.38392917  1.00706049  1
  O  O329  1  1.00208581  0.89084016  0.50033316  1
  O  O330  1  1.00374269  0.84022881  0.98397704  1
  O  O331  1  0.49319741  0.49590380  0.37845117  1
  O  O332  1  0.49738793  0.48712669  0.87382811  1
  O  O333  1  0.48822993  1.00142441  0.38997303  1
  O  O334  1  0.49070740  0.99341818  0.89274534  1
  O  O335  1  0.99159100  0.49659137  0.37907078  1
  O  O336  1  0.98845615  0.51087863  0.89392743  1
  O  O337  1  0.99335124  1.00104298  0.38561661  1
  O  O338  1  0.98428020  0.99728999  0.84381406  1
  O  O339  1  0.01173441  0.00947920  0.13721138  1
  O  O340  1  0.00820929  0.00959611  0.62416669  1
  O  O341  1  0.00248407  0.50364676  0.11845325  1
  O  O342  1  0.01330318  0.50518402  0.61084400  1
  O  O343  1  0.49718768  0.00245398  0.11321582  1
  O  O344  1  0.49962841  0.00801444  0.61353657  1
  O  O345  1  0.50430528  0.51563739  0.12999482  1
  O  O346  1  0.50605073  0.50490600  0.61490812  1
  O  O347  1  0.24090404  0.37018285  0.25051874  1
  O  O348  1  0.24679781  0.38608883  0.75256529  1
  O  O349  1  0.23866672  0.88228402  0.25651519  1
  O  O350  1  0.25838286  0.87033689  0.73709805  1
  O  O351  1  0.74111172  0.37781448  0.24186203  1
  O  O352  1  0.74987943  0.39095146  0.74025614  1
  O  O353  1  0.74547552  0.87952951  0.24196076  1
  O  O354  1  0.74099349  0.86583990  0.73505771  1
  O  O355  1  0.25647315  0.11832306  0.25805825  1
  O  O356  1  0.24967756  0.13075062  0.76320701  1
  O  O357  1  0.26462214  0.62880742  0.25616621  1
  O  O358  1  0.25541728  0.60563106  0.75442056  1
  O  O359  1  0.75905595  0.11636461  0.26009187  1
  O  O360  1  0.76432444  0.13395045  0.73311708  1
  O  O361  1  0.75570998  0.62143483  0.25368152  1
  O  O362  1  0.74095206  0.61457345  0.75865002  1
  O  O363  1  0.36596986  0.11491578  0.36740936  1
  O  O364  1  0.36490402  0.12990554  0.87211491  1
  O  O365  1  0.37371232  0.61703256  0.36681201  1
  O  O366  1  0.36635391  0.62167157  0.87126156  1
  O  O367  1  0.87134227  0.11854952  0.37332607  1
  O  O368  1  0.87737293  0.13146373  0.85289241  1
  O  O369  1  0.86682493  0.61891471  0.36471413  1
  O  O370  1  0.85942878  0.61539157  0.88117839  1
  O  O371  1  0.12196857  0.38290390  0.13769851  1
  O  O372  1  0.12455062  0.38224801  0.63134061  1
  O  O373  1  0.13182502  0.88051304  0.13365081  1
  O  O374  1  0.13467551  0.88432257  0.62866259  1
  O  O375  1  0.62595555  0.37994301  0.12668246  1
  O  O376  1  0.63019535  0.38885674  0.62050553  1
  O  O377  1  0.63241826  0.87630768  0.13763399  1
  O  O378  1  0.63467754  0.87417663  0.63235547  1
  O  O379  1  0.11956090  0.26056404  0.24811483  1
  O  O380  1  0.12851909  0.27041578  0.75667133  1
  O  O381  1  0.11965968  0.75407851  0.25627757  1
  O  O382  1  0.09569237  0.70929211  0.71456270  1
  O  O383  1  0.61591515  0.24861600  0.24899217  1
  O  O384  1  0.63561977  0.26173246  0.75497037  1
  O  O385  1  0.61403112  0.75683780  0.25137090  1
  O  O386  1  0.61705157  0.75493728  0.75622492  1
  O  O387  1  0.37493418  0.24044887  0.24181220  1
  O  O388  1  0.37097994  0.25051373  0.73521684  1
  O  O389  1  0.37958799  0.74681169  0.24103322  1
  O  O390  1  0.38733199  0.75200088  0.75573843  1
  O  O391  1  0.88119754  0.24488313  0.24590373  1
  O  O392  1  0.87040806  0.25280247  0.73721522  1
  O  O393  1  0.88130593  0.74167437  0.25259711  1
  O  O394  1  0.85954651  0.74146653  0.73682225  1
  O  O395  1  0.38743554  0.49656264  0.49079989  1
  O  O396  1  0.37165867  0.48458845  1.00469755  1
  O  O397  1  0.37930502  0.99246103  0.49405306  1
  O  O398  1  0.38001898  0.99314699  1.00474288  1
  O  O399  1  0.88304127  0.49626380  0.49572585  1
  O  O400  1  0.87588764  0.49208765  0.99384597  1
  O  O401  1  0.88509839  1.00725812  0.49388062  1
  O  O402  1  0.89294749  1.01035632  1.00483464  1
  O  O403  1  0.13016549  0.00352888  0.01473133  1
  O  O404  1  0.11813857  0.00421363  0.51222914  1
  O  O405  1  0.11446128  0.48578271  0.01594589  1
  O  O406  1  0.12188318  0.49854577  0.50073555  1
  O  O407  1  0.60562921  0.00497762  0.01029636  1
  O  O408  1  0.61611650  0.00425015  0.49953371  1
  O  O409  1  0.62955610  0.51608692  0.00534246  1
  O  O410  1  0.61319916  0.49923037  0.50269636  1
  O  O411  1  0.37943514  0.36700394  0.11559081  1
  O  O412  1  0.38373497  0.36026899  0.61891870  1
  O  O413  1  0.37207728  0.86676569  0.11772403  1
  O  O414  1  0.36645780  0.87964047  0.61229153  1
  O  O415  1  0.86700097  0.36989895  0.11617884  1
  O  O416  1  0.87274720  0.37744953  0.61854415  1
  O  O417  1  0.86746410  0.87585466  0.12369732  1
  O  O418  1  0.85964863  0.85997948  0.62635077  1
  O  O419  1  0.13881977  0.12477058  0.37463204  1
  O  O420  1  0.12941288  0.13917943  0.87625075  1
  O  O421  1  0.13336274  0.62499498  0.37514345  1
  O  O422  1  0.14811499  0.58824301  0.88000766  1
  O  O423  1  0.63060582  0.12859297  0.38133703  1
  O  O424  1  0.63185910  0.11252309  0.86248856  1
  O  O425  1  0.63461757  0.62639094  0.36401470  1
  O  O426  1  0.62954093  0.63311727  0.88029164  1
