# generated using pymatgen
data_V85Zn86O256
_symmetry_space_group_name_H-M   'P 1'
_cell_length_a   16.90614551
_cell_length_b   16.90740898
_cell_length_c   16.90686332
_cell_angle_alpha   89.95851484
_cell_angle_beta   89.99535004
_cell_angle_gamma   89.99631372
_symmetry_Int_Tables_number   1
_chemical_formula_structural   V85Zn86O256
_chemical_formula_sum   'V85 Zn86 O256'
_cell_volume   4832.64157949
_cell_formula_units_Z   1
loop_
 _symmetry_equiv_pos_site_id
 _symmetry_equiv_pos_as_xyz
  1  'x, y, z'
loop_
 _atom_site_type_symbol
 _atom_site_label
 _atom_site_symmetry_multiplicity
 _atom_site_fract_x
 _atom_site_fract_y
 _atom_site_fract_z
 _atom_site_occupancy
  V  V0  1  0.49316540  0.37326912  0.88109509  1
  V  V1  1  0.37339743  0.74660753  0.62812649  1
  V  V2  1  0.49724303  0.24808688  0.74572158  1
  V  V3  1  -0.01503175  0.62569497  0.12700986  1
  V  V4  1  0.12486266  0.62501814  0.50256488  1
  V  V5  1  0.11819251  0.75437889  0.37455314  1
  V  V6  1  0.49740400  0.74502092  0.75281675  1
  V  V7  1  0.36953251  0.26303455  0.61979512  1
  V  V8  1  0.87500771  0.86855413  0.00306112  1
  V  V9  1  0.87390307  0.50791541  0.37397688  1
  V  V10  1  0.87309278  0.24203159  0.62575753  1
  V  V11  1  0.24996668  0.75253915  0.50009651  1
  V  V12  1  0.37603698  0.88906507  0.49841265  1
  V  V13  1  0.12589133  0.00311166  0.62541754  1
  V  V14  1  0.73258309  0.74490852  0.49827204  1
  V  V15  1  -0.00073798  -0.00172028  0.49695892  1
  V  V16  1  -0.00570283  0.25683512  0.75616118  1
  V  V17  1  0.12374872  0.12614440  0.49803230  1
  V  V18  1  0.00775049  0.49707741  0.00219345  1
  V  V19  1  -0.00731375  0.37381603  0.37691359  1
  V  V20  1  0.75072116  -0.00018504  0.24992284  1
  V  V21  1  0.75501372  0.37683138  0.62021560  1
  V  V22  1  0.11822463  0.87574315  0.25264168  1
  V  V23  1  0.61700243  0.00105360  0.12535965  1
  V  V24  1  0.12857463  0.48458223  0.63206302  1
  V  V25  1  0.62715711  0.36730137  0.25104610  1
  V  V26  1  0.25233210  0.38032863  0.11894901  1
  V  V27  1  0.25844941  0.25397417  -0.00268924  1
  V  V28  1  0.87504190  0.87290809  0.49519416  1
  V  V29  1  0.36482381  0.86986256  -0.00103123  1
  V  V30  1  0.88373204  0.49215410  0.87526731  1
  V  V31  1  0.25452149  -0.00008425  0.25106170  1
  V  V32  1  0.13470818  0.62695029  0.01010823  1
  V  V33  1  0.12657699  0.87467671  0.74850582  1
  V  V34  1  0.50177648  0.62819215  0.12451220  1
  V  V35  1  0.62044326  0.87485000  0.25692409  1
  V  V36  1  -0.00547584  0.49502410  0.50227473  1
  V  V37  1  0.74953845  0.88173695  0.63000684  1
  V  V38  1  0.24347737  0.49853318  0.24942739  1
  V  V39  1  -0.00329664  0.00083823  -0.00249691  1
  V  V40  1  0.62878040  0.74884174  0.87655782  1
  V  V41  1  0.24897805  0.62496558  0.37570119  1
  V  V42  1  0.87418248  0.74948314  0.62332111  1
  V  V43  1  0.12479977  0.00091132  0.12312391  1
  V  V44  1  0.26210000  0.49717090  0.74362808  1
  V  V45  1  0.13353172  0.74792674  0.88014341  1
  V  V46  1  0.50690372  0.62641046  0.62329654  1
  V  V47  1  0.37701075  0.50599088  0.88201705  1
  V  V48  1  0.50173764  0.87704499  0.87905916  1
  V  V49  1  0.74946136  0.49876370  0.75173297  1
  V  V50  1  0.75207425  0.86858275  0.12677602  1
  V  V51  1  0.49299470  0.89353803  0.37524084  1
  V  V52  1  0.50591802  0.50106818  0.50180286  1
  V  V53  1  0.37176706  0.49233320  0.38385605  1
  V  V54  1  0.36781303  0.74811104  0.12580474  1
  V  V55  1  0.74975796  0.25364280  0.49668519  1
  V  V56  1  -0.01284888  0.74914271  0.24753008  1
  V  V57  1  0.12531009  0.12924397  -0.00660380  1
  V  V58  1  0.12381464  0.25085147  0.37104639  1
  V  V59  1  0.62674239  0.62006411  -0.00016567  1
  V  V60  1  0.87116127  0.00148671  0.85977331  1
  V  V61  1  0.75409355  0.50544626  0.24832362  1
  V  V62  1  0.75654488  0.24705627  0.00771478  1
  V  V63  1  0.00304569  0.62263935  0.62585152  1
  V  V64  1  0.25098558  0.26399297  0.50015987  1
  V  V65  1  0.87762662  0.62211367  0.75173955  1
  V  V66  1  0.37337342  0.00331781  0.87293110  1
  V  V67  1  0.55893322  0.70103834  0.31131828  1
  V  V68  1  0.61951444  0.12245894  0.49762647  1
  V  V69  1  0.12476893  0.27293785  0.86870885  1
  V  V70  1  0.88105337  0.37065650  0.00646006  1
  V  V71  1  0.37504827  0.62862110  0.25390175  1
  V  V72  1  0.25775325  0.12376854  0.37252157  1
  V  V73  1  0.61817379  0.00149666  0.62943472  1
  V  V74  1  0.62179334  0.12458953  0.00258498  1
  V  V75  1  0.75314689  0.12254494  0.86154650  1
  V  V76  1  0.50097459  0.36368500  0.38348981  1
  V  V77  1  -0.00058467  0.87500489  0.87517212  1
  V  V78  1  -0.00754807  0.25237579  0.24366468  1
  V  V79  1  0.87905040  0.00035777  0.37276228  1
  V  V80  1  0.62786976  0.25156407  0.87282787  1
  V  V81  1  0.00227379  0.74761239  0.74997628  1
  V  V82  1  -0.01026340  0.13014780  0.12105769  1
  V  V83  1  0.74835279  0.12910795  0.37537205  1
  V  V84  1  0.49855960  0.24556643  0.24227565  1
  Zn  Zn85  1  0.24873487  0.00411697  0.74985471  1
  Zn  Zn86  1  0.25610867  0.62880785  0.87239678  1
  Zn  Zn87  1  0.63004613  0.88003686  0.75495767  1
  Zn  Zn88  1  0.62534453  0.49548023  0.12430056  1
  Zn  Zn89  1  0.38209864  0.11783622  0.24197770  1
  Zn  Zn90  1  0.24464349  0.86869572  0.12204290  1
  Zn  Zn91  1  0.49216921  0.12141784  0.61565960  1
  Zn  Zn92  1  0.87027963  0.12957968  0.24349978  1
  Zn  Zn93  1  0.75339216  0.62298673  0.87763512  1
  Zn  Zn94  1  0.37012909  0.12510745  0.74393027  1
  Zn  Zn95  1  -0.00498653  0.12436153  0.63148880  1
  Zn  Zn96  1  0.62921455  0.50326900  0.62160902  1
  Zn  Zn97  1  0.49688255  0.49215921  0.00879080  1
  Zn  Zn98  1  0.24877339  0.12864604  0.87060499  1
  Zn  Zn99  1  0.49420184  0.00531296  0.00556071  1
  Zn  Zn100  1  0.37660325  0.24606089  0.11980301  1
  Zn  Zn101  1  0.62406834  0.37706037  0.74746087  1
  Zn  Zn102  1  0.12158357  0.38035844  0.24455176  1
  Zn  Zn103  1  0.74420312  0.62850067  0.37644027  1
  Zn  Zn104  1  0.75428532  0.37128848  0.12850057  1
  Zn  Zn105  1  0.25267632  0.87669581  0.62425643  1
  Zn  Zn106  1  0.75674558  0.74438068  0.00421504  1
  Zn  Zn107  1  0.18677735  0.18864708  0.18362739  1
  Zn  Zn108  1  0.18746044  0.19107913  0.68848790  1
  Zn  Zn109  1  0.18580225  0.68729187  0.18964089  1
  Zn  Zn110  1  0.19128797  0.68226340  0.69021984  1
  Zn  Zn111  1  0.68403742  0.18686899  0.18789521  1
  Zn  Zn112  1  0.68481068  0.18776047  0.68418521  1
  Zn  Zn113  1  0.69537621  0.68283892  0.18322569  1
  Zn  Zn114  1  0.68795640  0.68879467  0.68883161  1
  Zn  Zn115  1  0.31404285  0.31357523  0.31056940  1
  Zn  Zn116  1  0.31139359  0.31934377  0.80759147  1
  Zn  Zn117  1  0.31151761  0.81402883  0.31121058  1
  Zn  Zn118  1  0.31290686  0.81582077  0.81073993  1
  Zn  Zn119  1  0.81466751  0.31539164  0.31545730  1
  Zn  Zn120  1  0.81419434  0.31447260  0.81470744  1
  Zn  Zn121  1  0.80753715  0.81283759  0.31784366  1
  Zn  Zn122  1  0.81318942  0.81177393  0.81318232  1
  Zn  Zn123  1  0.17857458  0.43833684  0.43569987  1
  Zn  Zn124  1  0.19283272  0.44457670  0.93888559  1
  Zn  Zn125  1  0.18835213  0.93734215  0.43544870  1
  Zn  Zn126  1  0.18770825  0.93943123  0.93619774  1
  Zn  Zn127  1  0.68586813  0.43566817  0.43617012  1
  Zn  Zn128  1  0.69064430  0.43451424  0.93744917  1
  Zn  Zn129  1  0.68700901  0.93900555  0.44084722  1
  Zn  Zn130  1  0.69047225  0.93933237  0.93903711  1
  Zn  Zn131  1  0.31331831  0.06545838  0.06214166  1
  Zn  Zn132  1  0.30865916  0.07100546  0.56376637  1
  Zn  Zn133  1  0.31388479  0.56179867  0.06316704  1
  Zn  Zn134  1  0.31579846  0.56317697  0.56467485  1
  Zn  Zn135  1  0.80741454  0.05578846  0.05565990  1
  Zn  Zn136  1  0.80821442  0.06277418  0.56373798  1
  Zn  Zn137  1  0.81287004  0.55665574  0.06134298  1
  Zn  Zn138  1  0.81306062  0.56462816  0.56078271  1
  Zn  Zn139  1  0.43241514  0.43539763  0.19158694  1
  Zn  Zn140  1  0.43927085  0.43611863  0.69049945  1
  Zn  Zn141  1  0.43684448  0.93086453  0.18892983  1
  Zn  Zn142  1  0.43986181  0.93369678  0.68990007  1
  Zn  Zn143  1  0.93793820  0.44101679  0.18582649  1
  Zn  Zn144  1  0.93721004  0.42993854  0.68666338  1
  Zn  Zn145  1  0.93835995  0.93738261  0.18641641  1
  Zn  Zn146  1  0.94051817  0.93575841  0.68312506  1
  Zn  Zn147  1  0.06154603  0.06597379  0.30961505  1
  Zn  Zn148  1  0.05726495  0.06719980  0.80949491  1
  Zn  Zn149  1  0.05940572  0.56633985  0.31201637  1
  Zn  Zn150  1  0.06833043  0.55965861  0.81520692  1
  Zn  Zn151  1  0.56573218  0.06419064  0.31336976  1
  Zn  Zn152  1  0.56183142  0.06481138  0.81066316  1
  Zn  Zn153  1  0.56231324  0.53879910  0.31221864  1
  Zn  Zn154  1  0.56131600  0.56303595  0.81152282  1
  Zn  Zn155  1  0.43388959  0.18799375  0.43725242  1
  Zn  Zn156  1  0.43957319  0.18594604  0.93552934  1
  Zn  Zn157  1  0.43202883  0.68516372  0.44666597  1
  Zn  Zn158  1  0.43921047  0.68659716  0.94117186  1
  Zn  Zn159  1  0.93340745  0.18698028  0.43955460  1
  Zn  Zn160  1  0.93797379  0.18792156  0.93017011  1
  Zn  Zn161  1  0.93762436  0.68720701  0.43747600  1
  Zn  Zn162  1  0.94304064  0.68374438  0.93721349  1
  Zn  Zn163  1  0.06982619  0.31507976  0.06321938  1
  Zn  Zn164  1  0.05824438  0.31049270  0.56244471  1
  Zn  Zn165  1  0.06044205  0.80912604  0.06446594  1
  Zn  Zn166  1  0.06066934  0.81515333  0.56167143  1
  Zn  Zn167  1  0.56751874  0.31179094  0.06248704  1
  Zn  Zn168  1  0.56773023  0.31143659  0.56352895  1
  Zn  Zn169  1  0.56019472  0.80916566  0.06410612  1
  Zn  Zn170  1  0.55741503  0.81996524  0.56209171  1
  O  O171  1  0.11701598  0.12023870  0.11244846  1
  O  O172  1  0.12374083  0.11886370  0.61634641  1
  O  O173  1  0.12005648  0.63027083  0.11253767  1
  O  O174  1  0.11923031  0.61911768  0.61923472  1
  O  O175  1  0.63111495  0.11342383  0.11627306  1
  O  O176  1  0.62221756  0.11511324  0.61845015  1
  O  O177  1  0.61887636  0.62310366  0.11829182  1
  O  O178  1  0.61182097  0.62465808  0.62916246  1
  O  O179  1  0.38762491  0.38161067  0.37150053  1
  O  O180  1  0.38380282  0.38761093  0.86999349  1
  O  O181  1  0.38555313  0.87291603  0.38060047  1
  O  O182  1  0.38144881  0.88040416  0.88132552  1
  O  O183  1  0.88715712  0.38500403  0.37513722  1
  O  O184  1  0.87538994  0.38594960  0.88489395  1
  O  O185  1  0.86926387  0.88394417  0.38821475  1
  O  O186  1  0.88017485  0.88109901  0.87911166  1
  O  O187  1  0.23942361  0.01102301  0.36321015  1
  O  O188  1  0.26002694  0.00135454  0.87280452  1
  O  O189  1  0.25523091  0.50253145  0.37219770  1
  O  O190  1  0.26467370  0.50242864  0.86903141  1
  O  O191  1  0.76021526  0.00454517  0.37113924  1
  O  O192  1  0.75844833  0.00817865  0.87593451  1
  O  O193  1  0.75689926  0.50271656  0.37193738  1
  O  O194  1  0.75971827  0.50018587  0.86722844  1
  O  O195  1  0.25704987  0.49018936  0.13391860  1
  O  O196  1  0.24215984  0.50441533  0.63294978  1
  O  O197  1  0.23553890  1.00003936  0.12922986  1
  O  O198  1  0.23571498  0.99874203  0.62378053  1
  O  O199  1  0.74955789  0.49568371  0.13487261  1
  O  O200  1  0.75266557  0.49423965  0.63056153  1
  O  O201  1  0.74016204  0.98882943  0.13001052  1
  O  O202  1  0.73977755  0.99116513  0.62219501  1
  O  O203  1  0.00173178  0.36943235  0.25380819  1
  O  O204  1  0.00599152  0.35726950  0.74235568  1
  O  O205  1  0.01086439  0.86693362  0.24333474  1
  O  O206  1  0.00985157  0.86899557  0.75303476  1
  O  O207  1  0.50621718  0.36759037  0.25876301  1
  O  O208  1  0.50315274  0.36472957  0.75921255  1
  O  O209  1  0.50476432  0.87332261  0.26449426  1
  O  O210  1  0.50382761  0.86494263  0.76351744  1
  O  O211  1  0.50236625  0.14189870  0.25830006  1
  O  O212  1  0.49662164  0.13918239  0.74887479  1
  O  O213  1  0.50154841  0.63032860  0.25167595  1
  O  O214  1  0.50146854  0.63830134  0.74473490  1
  O  O215  1  0.99683999  0.13267735  0.23831325  1
  O  O216  1  1.00760439  0.14645902  0.74555949  1
  O  O217  1  1.00290330  0.63151739  0.23547934  1
  O  O218  1  0.99800896  0.62786164  0.74537881  1
  O  O219  1  0.36182996  0.24870748  -0.00623536  1
  O  O220  1  0.36589297  0.24884500  0.50980334  1
  O  O221  1  0.37913611  0.75797120  0.00878462  1
  O  O222  1  0.36704429  0.75862322  0.50740483  1
  O  O223  1  0.86934162  0.25825571  -0.00899608  1
  O  O224  1  0.86198460  0.24620207  0.50969198  1
  O  O225  1  0.87625841  0.76393478  -0.00989563  1
  O  O226  1  0.87451273  0.75844898  0.50521438  1
  O  O227  1  0.12751457  0.24680572  0.48901786  1
  O  O228  1  0.12934056  0.24647591  0.98661695  1
  O  O229  1  0.12796741  0.74815324  0.49332821  1
  O  O230  1  0.12055765  0.73850160  0.99306336  1
  O  O231  1  0.64035823  0.23870179  0.50733180  1
  O  O232  1  0.63417508  0.24346996  0.99295770  1
  O  O233  1  0.63448240  0.75394621  0.50515484  1
  O  O234  1  0.62539028  0.73881663  0.99365270  1
  O  O235  1  0.49961731  0.25604859  0.13872455  1
  O  O236  1  0.49094664  0.25067190  0.62972202  1
  O  O237  1  0.49093915  0.73596614  0.12481474  1
  O  O238  1  0.49561127  0.74686752  0.63189789  1
  O  O239  1  1.00689277  0.24203082  0.13121751  1
  O  O240  1  0.98964760  0.24835769  0.62981053  1
  O  O241  1  1.00120660  0.73765501  0.13347726  1
  O  O242  1  0.99453428  0.74522214  0.63006193  1
  O  O243  1  0.00324370  0.25562593  0.37046514  1
  O  O244  1  0.01107063  0.25217068  0.86631672  1
  O  O245  1  0.01182326  0.74151879  0.36656779  1
  O  O246  1  0.01025893  0.75507857  0.86879008  1
  O  O247  1  0.49671462  0.26123633  0.36948627  1
  O  O248  1  0.50592597  0.25574015  0.86833679  1
  O  O249  1  0.49998047  0.75242828  0.37525043  1
  O  O250  1  0.50819494  0.75427626  0.87115076  1
  O  O251  1  0.24155693  0.13341685  0.48914666  1
  O  O252  1  0.24072282  0.13568208  0.99566450  1
  O  O253  1  0.24533736  0.63170283  0.49570085  1
  O  O254  1  0.23806448  0.62161013  0.99750089  1
  O  O255  1  0.74377898  0.13085483  0.49262480  1
  O  O256  1  0.74188241  0.12998074  0.99149652  1
  O  O257  1  0.74948696  0.63986554  0.50019087  1
  O  O258  1  0.74250908  0.62580158  0.99946523  1
  O  O259  1  0.24746002  0.37168013  0.01049218  1
  O  O260  1  0.24581396  0.36295281  0.48945940  1
  O  O261  1  0.26064080  0.87621533  0.00126903  1
  O  O262  1  0.25631109  0.86863111  0.50012018  1
  O  O263  1  0.76009079  0.36476472  0.00085309  1
  O  O264  1  0.74601481  0.36667801  0.50616426  1
  O  O265  1  0.75711523  0.87266839  0.00885353  1
  O  O266  1  0.75525416  0.86575547  0.50808992  1
  O  O267  1  0.13967304  0.50215905  0.25771620  1
  O  O268  1  0.12646886  0.49935130  0.73511314  1
  O  O269  1  0.12553499  0.99389727  0.24174345  1
  O  O270  1  0.12116988  0.99284596  0.74167599  1
  O  O271  1  0.63524547  0.48533081  0.24715898  1
  O  O272  1  0.63645978  0.49930816  0.74907104  1
  O  O273  1  0.62984954  0.99289941  0.24444554  1
  O  O274  1  0.62392620  0.99965528  0.73597447  1
  O  O275  1  0.35838988  -0.00324128  0.24362431  1
  O  O276  1  0.37356898  -0.00130701  0.75844858  1
  O  O277  1  0.36652245  0.50666128  0.26335319  1
  O  O278  1  0.36757371  0.50141754  0.75509070  1
  O  O279  1  0.87028616  0.00080538  0.25736536  1
  O  O280  1  0.88098453  -0.00506722  0.76018927  1
  O  O281  1  0.86550541  0.49334926  0.26008790  1
  O  O282  1  0.87317164  0.50110672  0.75682380  1
  O  O283  1  0.11217754  0.36782328  0.36934376  1
  O  O284  1  0.12419609  0.37075151  0.87863614  1
  O  O285  1  0.12489483  0.86623450  0.36660400  1
  O  O286  1  0.11947614  0.86976677  0.86934736  1
  O  O287  1  0.60940329  0.37982683  0.36701458  1
  O  O288  1  0.62200179  0.36267432  0.87318624  1
  O  O289  1  0.61402570  0.88208600  0.36598740  1
  O  O290  1  0.61952276  0.86858315  0.87751237  1
  O  O291  1  0.37177030  0.13157238  0.12909127  1
  O  O292  1  0.37738340  0.13727135  0.62513610  1
  O  O293  1  0.38156649  0.62902239  0.13166846  1
  O  O294  1  0.38529571  0.63963145  0.62101409  1
  O  O295  1  0.88644275  0.11644424  0.12046434  1
  O  O296  1  0.87210678  0.13677065  0.62533398  1
  O  O297  1  0.88606260  0.62752383  0.11864538  1
  O  O298  1  0.88335204  0.62899130  0.63107994  1
  O  O299  1  0.24853746  0.25878689  0.11368005  1
  O  O300  1  0.25945845  0.25056086  0.61573080  1
  O  O301  1  0.26215221  0.74879097  0.12756695  1
  O  O302  1  0.25693364  0.75108994  0.62134908  1
  O  O303  1  0.75005996  0.24678525  0.11152368  1
  O  O304  1  0.75548975  0.25634755  0.62105138  1
  O  O305  1  0.74917874  0.76340602  0.12426597  1
  O  O306  1  0.75525099  0.75484883  0.61535493  1
  O  O307  1  0.24129742  0.24490837  0.37593847  1
  O  O308  1  0.23875336  0.25504527  0.87885433  1
  O  O309  1  0.23913699  0.74571489  0.37855186  1
  O  O310  1  0.23784366  0.74952720  0.86961441  1
  O  O311  1  0.75633918  0.24167309  0.38317311  1
  O  O312  1  0.74402274  0.24482811  0.88098759  1
  O  O313  1  0.74911155  0.74871994  0.39230220  1
  O  O314  1  0.73891152  0.74788268  0.87701721  1
  O  O315  1  0.00475849  0.12226463  0.00341431  1
  O  O316  1  0.00367986  0.11407172  0.50141913  1
  O  O317  1  0.00781727  0.61983372  0.01079070  1
  O  O318  1  0.00534957  0.61735056  0.50638604  1
  O  O319  1  0.51660280  0.12441199  -0.00512791  1
  O  O320  1  0.51494193  0.13143874  0.49541898  1
  O  O321  1  0.50831907  0.61979037  0.00941694  1
  O  O322  1  0.49703340  0.61495502  0.50987741  1
  O  O323  1  0.50454139  0.37796025  0.48916032  1
  O  O324  1  0.50677550  0.37460469  0.98637549  1
  O  O325  1  0.49222972  0.87395689  0.48395581  1
  O  O326  1  0.49377075  0.87459519  0.98973711  1
  O  O327  1  1.00471788  0.38387174  0.49048205  1
  O  O328  1  0.99792878  0.38782014  1.00770521  1
  O  O329  1  0.99067733  0.88853379  0.50317764  1
  O  O330  1  0.99462173  0.88002472  0.99592373  1
  O  O331  1  0.49030444  0.48982374  0.38373023  1
  O  O332  1  0.49045192  0.49281166  0.87254497  1
  O  O333  1  0.49464826  0.99246995  0.37121087  1
  O  O334  1  0.49409667  0.99220257  0.87629023  1
  O  O335  1  0.99543265  0.49501508  0.38103976  1
  O  O336  1  0.99468685  0.50537415  0.88728400  1
  O  O337  1  0.98751021  1.00558804  0.37966147  1
  O  O338  1  0.99407693  0.99476602  0.87906691  1
  O  O339  1  0.00878986  0.00773716  0.11937779  1
  O  O340  1  0.00889162  0.00291453  0.61694248  1
  O  O341  1  -0.00115715  0.51457735  0.11836912  1
  O  O342  1  0.00841938  0.49986024  0.61982174  1
  O  O343  1  0.51262183  -0.00795341  0.12535879  1
  O  O344  1  0.51274980  -0.00009106  0.62522146  1
  O  O345  1  0.49908005  0.51135626  0.12951098  1
  O  O346  1  0.49890407  0.50741359  0.61945518  1
  O  O347  1  0.24736165  0.38247015  0.24431912  1
  O  O348  1  0.24586570  0.39738991  0.75333034  1
  O  O349  1  0.23672843  0.88200260  0.24762720  1
  O  O350  1  0.23669832  0.87852464  0.74729632  1
  O  O351  1  0.74282537  0.37823154  0.25152222  1
  O  O352  1  0.75142061  0.38593754  0.74441861  1
  O  O353  1  0.74154214  0.87916697  0.24697399  1
  O  O354  1  0.74893673  0.86655608  0.73426123  1
  O  O355  1  0.24413727  0.11690633  0.25613894  1
  O  O356  1  0.25114325  0.12257031  0.75360671  1
  O  O357  1  0.25368822  0.61833619  0.25657030  1
  O  O358  1  0.24112825  0.60532499  0.75710951  1
  O  O359  1  0.75092058  0.11991546  0.25646019  1
  O  O360  1  0.74698357  0.13093603  0.76239025  1
  O  O361  1  0.74501535  0.61125950  0.25627931  1
  O  O362  1  0.75840818  0.61448547  0.74954344  1
  O  O363  1  0.36091356  0.12818024  0.36830643  1
  O  O364  1  0.37472370  0.11321075  0.87353893  1
  O  O365  1  0.36783552  0.61865993  0.37288627  1
  O  O366  1  0.37794987  0.61184709  0.87669075  1
  O  O367  1  0.86499816  0.11706683  0.37323857  1
  O  O368  1  0.86604994  0.11376212  0.87876974  1
  O  O369  1  0.87419340  0.61166808  0.37840209  1
  O  O370  1  0.87553636  0.61456095  0.86978903  1
  O  O371  1  0.14361517  0.37334882  0.12995715  1
  O  O372  1  0.12702101  0.38683550  0.61804580  1
  O  O373  1  0.12471225  0.88325006  0.12921946  1
  O  O374  1  0.12456237  0.88262920  0.63254387  1
  O  O375  1  0.63023279  0.37550418  0.13468636  1
  O  O376  1  0.63889777  0.37834040  0.62816729  1
  O  O377  1  0.62817383  0.87750576  0.13632941  1
  O  O378  1  0.63004454  0.88651799  0.62506517  1
  O  O379  1  0.11442869  0.24825978  0.25990371  1
  O  O380  1  0.12177822  0.25302025  0.76467349  1
  O  O381  1  0.11876959  0.75727312  0.25644198  1
  O  O382  1  0.12114065  0.75627151  0.75485568  1
  O  O383  1  0.61547185  0.25816993  0.24957948  1
  O  O384  1  0.61724518  0.25136571  0.75638774  1
  O  O385  1  0.62492727  0.75532906  0.25117293  1
  O  O386  1  0.61886573  0.75284628  0.76011001  1
  O  O387  1  0.39063699  0.24986599  0.25074596  1
  O  O388  1  0.37880420  0.25162857  0.73891933  1
  O  O389  1  0.37163552  0.74130602  0.24285798  1
  O  O390  1  0.38379528  0.75704082  0.74162830  1
  O  O391  1  0.88791497  0.24889696  0.25281642  1
  O  O392  1  0.88613423  0.25372869  0.74646438  1
  O  O393  1  0.88807855  0.75781282  0.25851089  1
  O  O394  1  0.88161341  0.74384985  0.74477892  1
  O  O395  1  0.38170510  0.50254516  0.48982554  1
  O  O396  1  0.37797358  0.50008706  0.98693907  1
  O  O397  1  0.36652881  0.98826087  0.50597431  1
  O  O398  1  0.37645401  0.99127704  0.99270897  1
  O  O399  1  0.88820678  0.50261103  0.49595343  1
  O  O400  1  0.88450282  0.49313810  0.99329752  1
  O  O401  1  0.87996588  0.99545696  0.49474251  1
  O  O402  1  0.88021788  0.98845996  0.99124409  1
  O  O403  1  0.11886008  0.00698646  0.00504047  1
  O  O404  1  0.11667094  0.00222040  0.50421184  1
  O  O405  1  0.11889298  0.51496887  -0.00427531  1
  O  O406  1  0.11672355  0.50546724  0.50890540  1
  O  O407  1  0.62406070  0.00627660  0.00821532  1
  O  O408  1  0.63009411  0.00995914  0.51255523  1
  O  O409  1  0.62330624  0.50851282  0.00024471  1
  O  O410  1  0.61095053  0.49894883  0.50021785  1
  O  O411  1  0.35876794  0.36752906  0.13132643  1
  O  O412  1  0.37755057  0.36249929  0.62482343  1
  O  O413  1  0.37362060  0.86540710  0.11734690  1
  O  O414  1  0.37686028  0.86561457  0.61671632  1
  O  O415  1  0.87451681  0.37717861  0.11111186  1
  O  O416  1  0.86229778  0.36360749  0.62718586  1
  O  O417  1  0.86567629  0.88234665  0.11546731  1
  O  O418  1  0.86824843  0.87245663  0.61484415  1
  O  O419  1  0.12794384  0.13387635  0.37878332  1
  O  O420  1  0.12383807  0.12583967  0.88650970  1
  O  O421  1  0.12981583  0.63134821  0.38231625  1
  O  O422  1  0.12500068  0.63374347  0.88643915  1
  O  O423  1  0.63983452  0.11752938  0.38237479  1
  O  O424  1  0.63104034  0.13396642  0.87944064  1
  O  O425  1  0.61406735  0.63367497  0.36430691  1
  O  O426  1  0.62594362  0.63144792  0.88251177  1
