# generated using pymatgen
data_V85Zn86O256
_symmetry_space_group_name_H-M   'P 1'
_cell_length_a   16.92093709
_cell_length_b   16.92212294
_cell_length_c   16.93739970
_cell_angle_alpha   90.00189121
_cell_angle_beta   90.00188947
_cell_angle_gamma   89.97136064
_symmetry_Int_Tables_number   1
_chemical_formula_structural   V85Zn86O256
_chemical_formula_sum   'V85 Zn86 O256'
_cell_volume   4849.82355400
_cell_formula_units_Z   1
loop_
 _symmetry_equiv_pos_site_id
 _symmetry_equiv_pos_as_xyz
  1  'x, y, z'
loop_
 _atom_site_type_symbol
 _atom_site_label
 _atom_site_symmetry_multiplicity
 _atom_site_fract_x
 _atom_site_fract_y
 _atom_site_fract_z
 _atom_site_occupancy
  V  V0  1  0.13497166  0.24330138  0.37348561  1
  V  V1  1  0.36578560  0.49931471  0.38109133  1
  V  V2  1  0.87354676  0.75057988  0.12464606  1
  V  V3  1  0.25023020  0.37468567  0.12461734  1
  V  V4  1  0.62221564  0.62726118  0.50658972  1
  V  V5  1  0.00742750  0.36191512  0.86582460  1
  V  V6  1  0.87950181  0.00011788  0.37936501  1
  V  V7  1  0.12370463  0.37336606  0.25008054  1
  V  V8  1  0.24643508  0.49557463  0.75223912  1
  V  V9  1  0.50092368  0.25002385  0.75238317  1
  V  V10  1  0.12729754  0.73791255  0.37467881  1
  V  V11  1  0.49105727  0.87893129  0.87285636  1
  V  V12  1  0.00764049  0.10811896  0.12548580  1
  V  V13  1  0.62596949  0.12627830  0.50258942  1
  V  V14  1  0.75241429  0.37416697  0.12706972  1
  V  V15  1  -0.00146365  0.49524244  -0.00289647  1
  V  V16  1  0.63041659  0.87396563  0.74619672  1
  V  V17  1  0.88657237  0.87590466  0.50614326  1
  V  V18  1  0.37514183  0.24939274  0.12235035  1
  V  V19  1  0.63528351  -0.00384559  0.62318215  1
  V  V20  1  0.62188406  0.74866827  0.87375598  1
  V  V21  1  0.24315648  0.73892266  0.49631342  1
  V  V22  1  0.62397012  0.50382415  0.62631667  1
  V  V23  1  0.89639507  0.24558315  0.62551836  1
  V  V24  1  0.49866063  0.12501998  0.62663603  1
  V  V25  1  0.37184469  0.74725080  0.62255963  1
  V  V26  1  0.24883140  0.12639663  0.87243028  1
  V  V27  1  0.87477750  0.74823015  0.63863138  1
  V  V28  1  0.37464723  0.37629740  0.00059859  1
  V  V29  1  0.25621141  0.24453745  0.50327552  1
  V  V30  1  0.49418966  0.87606948  0.37661050  1
  V  V31  1  0.67321619  0.05907892  0.06517238  1
  V  V32  1  0.62362721  0.62517535  0.00111863  1
  V  V33  1  0.24693116  0.50336852  0.25385945  1
  V  V34  1  0.37823207  0.11369776  0.75729530  1
  V  V35  1  0.74176066  0.87451039  0.12389767  1
  V  V36  1  0.13553116  0.87587728  0.23869005  1
  V  V37  1  0.63190829  0.50320874  0.13536891  1
  V  V38  1  0.11493603  0.00467563  0.62349834  1
  V  V39  1  0.13269900  0.62343182  -0.00620416  1
  V  V40  1  0.00064202  0.62836057  0.64008696  1
  V  V41  1  0.12224453  0.74713472  0.86867164  1
  V  V42  1  0.75574965  0.62522115  0.87164501  1
  V  V43  1  0.62698473  0.25344091  0.37717566  1
  V  V44  1  0.87135991  0.00226331  0.87225911  1
  V  V45  1  0.87969685  0.13171202  0.75332568  1
  V  V46  1  0.63809873  0.23789968  0.88654403  1
  V  V47  1  0.36982395  0.62553708  0.75190147  1
  V  V48  1  0.87543834  0.24915500  0.11901936  1
  V  V49  1  0.00026229  0.24699526  0.24866347  1
  V  V50  1  0.49496861  0.37793548  0.38120467  1
  V  V51  1  0.49304685  0.00631488  -0.00484068  1
  V  V52  1  0.88260187  0.87768094  -0.00005807  1
  V  V53  1  0.62648959  0.37575715  0.75274402  1
  V  V54  1  -0.00191072  0.75170548  0.25207656  1
  V  V55  1  0.49529247  -0.00028604  0.50032445  1
  V  V56  1  0.00137175  0.50883583  0.49509398  1
  V  V57  1  0.50080872  0.25345670  0.25002705  1
  V  V58  1  0.24806299  0.75444415  0.00025631  1
  V  V59  1  0.50227701  0.37561522  0.87841005  1
  V  V60  1  -0.00317488  0.62469446  0.12086762  1
  V  V61  1  0.11560478  0.11476966  0.49357927  1
  V  V62  1  0.49757381  0.74460284  0.74448711  1
  V  V63  1  0.49920108  0.12134389  0.12338252  1
  V  V64  1  0.25018291  0.00686896  0.24198389  1
  V  V65  1  0.36944572  0.87909957  0.00491998  1
  V  V66  1  0.49734656  0.62645470  0.12674758  1
  V  V67  1  0.11951992  0.11636810  -0.00690580  1
  V  V68  1  0.87840917  0.50103749  0.86794772  1
  V  V69  1  0.62158815  0.88732440  0.24956167  1
  V  V70  1  0.75290065  0.75848145  0.50399077  1
  V  V71  1  0.37092285  0.50504759  0.87711584  1
  V  V72  1  0.36796827  0.62704672  0.25675158  1
  V  V73  1  0.12404752  0.49843866  0.12321342  1
  V  V74  1  0.62517507  0.75179852  0.37701255  1
  V  V75  1  0.74968481  0.74991783  -0.00095486  1
  V  V76  1  0.49716946  0.75256150  0.25079712  1
  V  V77  1  0.12424048  0.49926203  0.62342902  1
  V  V78  1  0.49410256  0.50288275  0.50829530  1
  V  V79  1  0.75227032  0.37585002  0.62565328  1
  V  V80  1  0.75239012  0.50401753  0.74922424  1
  V  V81  1  0.75236465  0.25042908  0.50589578  1
  V  V82  1  0.00470577  0.88286604  0.87385489  1
  V  V83  1  0.75273862  0.62036408  0.37287132  1
  V  V84  1  0.12358083  0.87289911  0.74588607  1
  Zn  Zn85  1  0.75116607  0.00400696  0.74893351  1
  Zn  Zn86  1  0.37769483  0.25585165  0.62268103  1
  Zn  Zn87  1  0.63118975  0.38307536  0.25590511  1
  Zn  Zn88  1  0.86741371  0.36870325  -0.00739040  1
  Zn  Zn89  1  0.86657766  0.62103075  0.24483930  1
  Zn  Zn90  1  0.36763273  0.12885499  0.25334245  1
  Zn  Zn91  1  0.24799548  0.87718253  0.62066998  1
  Zn  Zn92  1  0.25243250  -0.00143774  0.74851805  1
  Zn  Zn93  1  0.74690169  0.00460894  0.25336251  1
  Zn  Zn94  1  -0.00107376  0.37222635  0.37788307  1
  Zn  Zn95  1  0.25719152  0.37839020  0.61627165  1
  Zn  Zn96  1  0.35734147  0.01291182  0.38239369  1
  Zn  Zn97  1  0.49987411  0.50178943  0.00313816  1
  Zn  Zn98  1  0.36345479  0.75341068  0.12934853  1
  Zn  Zn99  1  0.23863291  0.25125160  -0.00683800  1
  Zn  Zn100  1  0.87980116  0.37664528  0.49996561  1
  Zn  Zn101  1  0.36870500  0.87575774  0.50113879  1
  Zn  Zn102  1  0.87303014  0.12304226  0.25227308  1
  Zn  Zn103  1  0.75104389  0.12450645  0.37439355  1
  Zn  Zn104  1  0.86951612  0.49097218  0.36886993  1
  Zn  Zn105  1  0.00650843  0.87684218  0.37777813  1
  Zn  Zn106  1  0.12595868  0.34470113  0.74694508  1
  Zn  Zn107  1  0.18538045  0.18529128  0.18007036  1
  Zn  Zn108  1  0.18414188  0.18440721  0.68449757  1
  Zn  Zn109  1  0.18401639  0.68798574  0.18481649  1
  Zn  Zn110  1  0.18791400  0.68447032  0.68685541  1
  Zn  Zn111  1  0.69205757  0.19568615  0.19339445  1
  Zn  Zn112  1  0.69029825  0.18554498  0.69424299  1
  Zn  Zn113  1  0.68314114  0.69263210  0.19137564  1
  Zn  Zn114  1  0.69056583  0.68946084  0.68706848  1
  Zn  Zn115  1  0.31270870  0.31403440  0.31318042  1
  Zn  Zn116  1  0.31233808  0.30929919  0.80974940  1
  Zn  Zn117  1  0.30766516  0.81570158  0.31673625  1
  Zn  Zn118  1  0.30590849  0.81234006  0.81587398  1
  Zn  Zn119  1  0.81436552  0.31371152  0.31068293  1
  Zn  Zn120  1  0.81655899  0.31284261  0.81049964  1
  Zn  Zn121  1  0.81209667  0.81522262  0.31523672  1
  Zn  Zn122  1  0.81298802  0.81511716  0.81449865  1
  Zn  Zn123  1  0.18243515  0.43366129  0.43970668  1
  Zn  Zn124  1  0.18753124  0.43457801  0.93448368  1
  Zn  Zn125  1  0.18766877  0.92957121  0.43211926  1
  Zn  Zn126  1  0.19011642  0.94460453  0.93466231  1
  Zn  Zn127  1  0.68683419  0.43814633  0.44205336  1
  Zn  Zn128  1  0.68728859  0.43811320  0.94361702  1
  Zn  Zn129  1  0.68952587  0.93822938  0.43776415  1
  Zn  Zn130  1  0.68785363  0.93310915  0.93014162  1
  Zn  Zn131  1  0.30565520  0.06091392  0.06239876  1
  Zn  Zn132  1  0.30543751  0.06499181  0.56525277  1
  Zn  Zn133  1  0.31150542  0.56465502  0.06484634  1
  Zn  Zn134  1  0.31230245  0.56483344  0.56745780  1
  Zn  Zn135  1  0.83584576  0.05914020  0.06421636  1
  Zn  Zn136  1  0.81857404  0.06536980  0.56217100  1
  Zn  Zn137  1  0.81191969  0.55816703  0.05938739  1
  Zn  Zn138  1  0.81650427  0.56716467  0.55937748  1
  Zn  Zn139  1  0.43905519  0.43963290  0.19224739  1
  Zn  Zn140  1  0.43396995  0.43556212  0.68729370  1
  Zn  Zn141  1  0.43151983  0.94230806  0.18444081  1
  Zn  Zn142  1  0.44046275  0.93274331  0.68367717  1
  Zn  Zn143  1  0.93414167  0.43692588  0.19053261  1
  Zn  Zn144  1  0.93939627  0.43568623  0.68644206  1
  Zn  Zn145  1  0.93319932  0.93342934  0.19522638  1
  Zn  Zn146  1  0.94024734  0.93677805  0.68986467  1
  Zn  Zn147  1  0.06533182  0.05739288  0.31170088  1
  Zn  Zn148  1  0.06402109  0.07346961  0.80537448  1
  Zn  Zn149  1  0.05527385  0.56392648  0.30719714  1
  Zn  Zn150  1  0.06421513  0.55982909  0.81185996  1
  Zn  Zn151  1  0.55005977  0.06990823  0.31724667  1
  Zn  Zn152  1  0.56685501  0.06145729  0.81472599  1
  Zn  Zn153  1  0.55928688  0.56509987  0.31767106  1
  Zn  Zn154  1  0.55944733  0.56321077  0.81284564  1
  Zn  Zn155  1  0.43720627  0.18737767  0.43652590  1
  Zn  Zn156  1  0.43665624  0.18864821  0.93573648  1
  Zn  Zn157  1  0.43472325  0.68520623  0.43936547  1
  Zn  Zn158  1  0.43442975  0.68978365  0.93691113  1
  Zn  Zn159  1  0.94065102  0.18698420  0.43695858  1
  Zn  Zn160  1  0.93922803  0.18177740  0.93961917  1
  Zn  Zn161  1  0.93880246  0.68734714  0.44169568  1
  Zn  Zn162  1  0.94172828  0.68927331  0.93293963  1
  Zn  Zn163  1  0.06141206  0.30749659  0.05871556  1
  Zn  Zn164  1  0.07237424  0.31846344  0.55613684  1
  Zn  Zn165  1  0.06214371  0.81216335  0.06035517  1
  Zn  Zn166  1  0.06425986  0.80791253  0.56472570  1
  Zn  Zn167  1  0.56642731  0.31355124  0.06240436  1
  Zn  Zn168  1  0.56152305  0.31672033  0.56387323  1
  Zn  Zn169  1  0.55792088  0.81453813  0.06191727  1
  Zn  Zn170  1  0.55970535  0.81244878  0.56425989  1
  O  O171  1  0.11236449  0.11926967  0.11961649  1
  O  O172  1  0.12885004  0.11019260  0.61104714  1
  O  O173  1  0.11680184  0.61788655  0.11495112  1
  O  O174  1  0.11027951  0.61648732  0.63117870  1
  O  O175  1  0.62030351  0.12763736  0.12327942  1
  O  O176  1  0.61573362  0.11762699  0.62400299  1
  O  O177  1  0.61970086  0.62179881  0.12261221  1
  O  O178  1  0.62948552  0.62163451  0.61419154  1
  O  O179  1  0.38380804  0.38545981  0.37254112  1
  O  O180  1  0.38527678  0.38011796  0.87930859  1
  O  O181  1  0.38789665  0.87708298  0.37580095  1
  O  O182  1  0.38636563  0.86888781  0.88230435  1
  O  O183  1  0.88037111  0.37418916  0.38019044  1
  O  O184  1  0.88417651  0.38313133  0.87566370  1
  O  O185  1  0.87702849  0.88251724  0.38491212  1
  O  O186  1  0.88368457  0.87763338  0.88124609  1
  O  O187  1  0.24964860  -0.01333664  0.35455187  1
  O  O188  1  0.24858908  0.01741510  0.86668662  1
  O  O189  1  0.25926486  0.49359250  0.37380934  1
  O  O190  1  0.26218755  0.49510688  0.86841349  1
  O  O191  1  0.76134032  0.00151833  0.37588963  1
  O  O192  1  0.76599052  -0.00884133  0.87120861  1
  O  O193  1  0.74846146  0.51651695  0.38266668  1
  O  O194  1  0.75714798  0.50655816  0.87256581  1
  O  O195  1  0.24324287  0.49435291  0.13072199  1
  O  O196  1  0.24116558  0.50054482  0.63174049  1
  O  O197  1  0.25274779  0.99519019  0.14066525  1
  O  O198  1  0.23990763  0.99538050  0.62849158  1
  O  O199  1  0.74287731  0.49355680  0.12595483  1
  O  O200  1  0.74720265  0.49819475  0.62911198  1
  O  O201  1  0.74126864  0.99708543  0.12276995  1
  O  O202  1  0.73789115  1.00210790  0.62194006  1
  O  O203  1  0.00960218  0.36455138  0.24799891  1
  O  O204  1  0.00312780  0.37737389  0.76263326  1
  O  O205  1  0.00528224  0.86215608  0.25064579  1
  O  O206  1  0.01379600  0.87536304  0.75862177  1
  O  O207  1  0.50392837  0.37215061  0.26256572  1
  O  O208  1  0.50510978  0.36849635  0.75860922  1
  O  O209  1  0.50308135  0.87370668  0.25552411  1
  O  O210  1  0.50605453  0.86775629  0.75726297  1
  O  O211  1  0.50333249  0.13575920  0.23601091  1
  O  O212  1  0.49877323  0.13049349  0.74551330  1
  O  O213  1  0.49230267  0.63197847  0.24602858  1
  O  O214  1  0.48824826  0.63493460  0.75533563  1
  O  O215  1  1.00293374  0.12881178  0.23959349  1
  O  O216  1  0.97988226  0.11788456  0.74394996  1
  O  O217  1  1.00067420  0.63909560  0.23785691  1
  O  O218  1  0.99500915  0.61919789  0.73860885  1
  O  O219  1  0.37750704  0.25749804  0.01142192  1
  O  O220  1  0.36024775  0.24472187  0.49782261  1
  O  O221  1  0.36420344  0.75673129  -0.00075137  1
  O  O222  1  0.36724539  0.74886398  0.50734900  1
  O  O223  1  0.88148215  0.25035238  0.01463046  1
  O  O224  1  0.87005681  0.24942428  0.51117718  1
  O  O225  1  0.86912731  0.75915452  0.00279771  1
  O  O226  1  0.86881723  0.75718563  0.50644345  1
  O  O227  1  0.12970314  0.23803544  0.49089092  1
  O  O228  1  0.12595745  0.22869858  1.00985097  1
  O  O229  1  0.13475967  0.74952981  0.49190182  1
  O  O230  1  0.12832381  0.74220082  0.99357979  1
  O  O231  1  0.63176583  0.24823148  0.49662529  1
  O  O232  1  0.62242580  0.25207074  0.98515814  1
  O  O233  1  0.63032540  0.74546218  0.49912621  1
  O  O234  1  0.62908200  0.74571950  0.99457488  1
  O  O235  1  0.49560572  0.24389871  0.12696762  1
  O  O236  1  0.50411067  0.24178708  0.63310987  1
  O  O237  1  0.49989168  0.73914739  0.13169222  1
  O  O238  1  0.49165926  0.75294796  0.63756503  1
  O  O239  1  0.99557805  0.24426572  0.13503958  1
  O  O240  1  0.99354347  0.25500841  0.61853859  1
  O  O241  1  0.99129256  0.74602723  0.12870796  1
  O  O242  1  0.99276372  0.73567636  0.62327372  1
  O  O243  1  0.01006792  0.24641742  0.36219552  1
  O  O244  1  -0.00712187  0.26488520  0.88051761  1
  O  O245  1  0.00532070  0.74783556  0.36681279  1
  O  O246  1  0.01346517  0.76227676  0.87937428  1
  O  O247  1  0.50720460  0.26138375  0.37495367  1
  O  O248  1  0.50784524  0.25801191  0.86954172  1
  O  O249  1  0.50434831  0.75784149  0.37278776  1
  O  O250  1  0.50356789  0.75607518  0.86597002  1
  O  O251  1  0.23961390  0.13657976  0.49831514  1
  O  O252  1  0.24097272  0.12592603  0.99200602  1
  O  O253  1  0.25238976  0.63948599  0.50311374  1
  O  O254  1  0.23734523  0.62814883  1.00040554  1
  O  O255  1  0.74332597  0.13437776  0.49993285  1
  O  O256  1  0.74002029  0.10992793  1.01368792  1
  O  O257  1  0.74270043  0.63570460  0.49251924  1
  O  O258  1  0.74431350  0.62997584  0.99073173  1
  O  O259  1  0.25660600  0.37211624  0.00510576  1
  O  O260  1  0.23632692  0.35162141  0.50026440  1
  O  O261  1  0.25926504  0.86979953  -0.00744243  1
  O  O262  1  0.25221143  0.86103234  0.50131493  1
  O  O263  1  0.75217881  0.38081848  0.01813630  1
  O  O264  1  0.75286436  0.36918552  0.50900779  1
  O  O265  1  0.75374773  0.86889503  0.00636315  1
  O  O266  1  0.75501319  0.86234591  0.49898781  1
  O  O267  1  0.12736703  0.49403643  0.24445250  1
  O  O268  1  0.13552302  0.50174119  0.74397826  1
  O  O269  1  0.13258837  0.98399498  0.25133221  1
  O  O270  1  0.12455311  0.99639658  0.73636914  1
  O  O271  1  0.61920103  0.50355777  0.23946050  1
  O  O272  1  0.62938403  0.49669405  0.74542601  1
  O  O273  1  0.62145796  0.98985752  0.25810557  1
  O  O274  1  0.62603912  0.99190274  0.74158588  1
  O  O275  1  0.36136962  0.00083956  0.25110028  1
  O  O276  1  0.38126574  0.01091330  0.74398063  1
  O  O277  1  0.36811348  0.50710090  0.25919569  1
  O  O278  1  0.37109334  0.50745591  0.75731254  1
  O  O279  1  0.86867747  -0.00159207  0.26453842  1
  O  O280  1  0.87205502  0.00463799  0.75469307  1
  O  O281  1  0.89005795  0.51141917  0.25883383  1
  O  O282  1  0.86912981  0.49701228  0.76053235  1
  O  O283  1  0.12119388  0.36379199  0.36568202  1
  O  O284  1  0.11095615  0.37725287  0.87258186  1
  O  O285  1  0.12205374  0.86063424  0.36203703  1
  O  O286  1  0.11965986  0.87249156  0.86953878  1
  O  O287  1  0.62014369  0.36821066  0.37693350  1
  O  O288  1  0.61424916  0.37756239  0.87226444  1
  O  O289  1  0.61547493  0.87088488  0.36995319  1
  O  O290  1  0.61414154  0.86675907  0.86806514  1
  O  O291  1  0.38206016  0.13420587  0.12599867  1
  O  O292  1  0.38870027  0.12849605  0.63069643  1
  O  O293  1  0.38222174  0.62663183  0.13585906  1
  O  O294  1  0.37431174  0.63736388  0.63628367  1
  O  O295  1  0.88868948  0.13255682  0.12960010  1
  O  O296  1  0.87658892  0.14051326  0.62881020  1
  O  O297  1  0.87799790  0.63230555  0.12179704  1
  O  O298  1  0.88504850  0.63798842  0.62256200  1
  O  O299  1  0.25998584  0.25638877  0.12374369  1
  O  O300  1  0.25285215  0.24629634  0.61214004  1
  O  O301  1  0.24733758  0.74495091  0.10700970  1
  O  O302  1  0.25403349  0.75039586  0.61531766  1
  O  O303  1  0.75980705  0.26206294  0.12707983  1
  O  O304  1  0.74741134  0.25564864  0.61549558  1
  O  O305  1  0.75311450  0.75704570  0.12065845  1
  O  O306  1  0.76520639  0.74391341  0.61841312  1
  O  O307  1  0.24026233  0.24986962  0.37793198  1
  O  O308  1  0.25949978  0.23498987  0.87827299  1
  O  O309  1  0.24412989  0.74953994  0.38718013  1
  O  O310  1  0.23476193  0.75168034  0.88673731  1
  O  O311  1  0.74332651  0.25211916  0.38784186  1
  O  O312  1  0.73601770  0.25967557  0.87173588  1
  O  O313  1  0.74292324  0.74579497  0.38408270  1
  O  O314  1  0.74458360  0.74342580  0.87895404  1
  O  O315  1  0.00778285  0.12212393  0.01232215  1
  O  O316  1  0.01683220  0.12601977  0.49925902  1
  O  O317  1  0.00664063  0.61446173  0.00184262  1
  O  O318  1  -0.00224791  0.61304606  0.51076282  1
  O  O319  1  0.49590023  0.11425666  0.00388319  1
  O  O320  1  0.50588335  0.11935233  0.50914029  1
  O  O321  1  0.50370249  0.62697397  0.00984775  1
  O  O322  1  0.51071074  0.61666163  0.49481170  1
  O  O323  1  0.50506197  0.38669307  0.48949093  1
  O  O324  1  0.49426117  0.37904104  0.99412558  1
  O  O325  1  0.49659024  0.88207636  0.49386098  1
  O  O326  1  0.49487088  0.88424848  0.99221246  1
  O  O327  1  1.00087945  0.39065094  0.50025203  1
  O  O328  1  1.00064034  0.38585589  0.99278121  1
  O  O329  1  0.98968883  0.86686307  0.49703279  1
  O  O330  1  0.99082517  0.87159314  0.99282213  1
  O  O331  1  0.49119794  0.49555611  0.38395245  1
  O  O332  1  0.49057950  0.49232116  0.87703882  1
  O  O333  1  0.50599536  0.99151032  0.39034156  1
  O  O334  1  0.50495162  0.99104408  0.88293694  1
  O  O335  1  1.00490914  0.50179431  0.38871038  1
  O  O336  1  0.99323998  0.49573747  0.87977881  1
  O  O337  1  0.98507591  0.99564941  0.37041706  1
  O  O338  1  0.99113514  0.98881199  0.86930480  1
  O  O339  1  -0.00925376  0.01043061  0.12985157  1
  O  O340  1  0.01573345  -0.00617826  0.62141586  1
  O  O341  1  0.00482598  0.50219631  0.11438160  1
  O  O342  1  0.00344269  0.50876991  0.61987097  1
  O  O343  1  0.49873320  0.01394040  0.11737297  1
  O  O344  1  0.50687521  0.00493306  0.61526060  1
  O  O345  1  0.50494455  0.51332566  0.12661315  1
  O  O346  1  0.50480022  0.49731836  0.61432966  1
  O  O347  1  0.24292590  0.38191923  0.24447723  1
  O  O348  1  0.24864398  0.38574780  0.75035587  1
  O  O349  1  0.23989966  0.87259620  0.24319043  1
  O  O350  1  0.23729601  0.87771710  0.75036230  1
  O  O351  1  0.74829980  0.37458838  0.23562803  1
  O  O352  1  0.74512159  0.38284340  0.74467497  1
  O  O353  1  0.74008777  0.87720145  0.24143414  1
  O  O354  1  0.73352923  0.87374467  0.75431826  1
  O  O355  1  0.24728736  0.11242895  0.24569619  1
  O  O356  1  0.26439850  0.12402956  0.75355704  1
  O  O357  1  0.25841316  0.61799280  0.24297576  1
  O  O358  1  0.26185108  0.61354085  0.74829153  1
  O  O359  1  0.75275095  0.12282758  0.25498306  1
  O  O360  1  0.76934492  0.12080350  0.74281307  1
  O  O361  1  0.74632634  0.63437662  0.26888284  1
  O  O362  1  0.74361496  0.62047539  0.76415463  1
  O  O363  1  0.40040147  0.11612924  0.36150352  1
  O  O364  1  0.37096771  0.12573426  0.86566504  1
  O  O365  1  0.37919178  0.61614121  0.36333968  1
  O  O366  1  0.37844991  0.61433219  0.86913295  1
  O  O367  1  0.87476057  0.11286987  0.37776435  1
  O  O368  1  0.87839122  0.11771258  0.86564307  1
  O  O369  1  0.85793064  0.62953405  0.37836225  1
  O  O370  1  0.86595689  0.61827377  0.87993654  1
  O  O371  1  0.12968422  0.37923506  0.12889419  1
  O  O372  1  0.12820465  0.38701158  0.63235148  1
  O  O373  1  0.11966409  0.86815868  0.14057344  1
  O  O374  1  0.12490804  0.88104424  0.63074727  1
  O  O375  1  0.63357564  0.38433585  0.12794343  1
  O  O376  1  0.63116079  0.38324560  0.63255221  1
  O  O377  1  0.63324150  0.87061349  0.13267776  1
  O  O378  1  0.61715120  0.88397675  0.63404003  1
  O  O379  1  0.12174390  0.25239734  0.25371089  1
  O  O380  1  0.12424906  0.23415782  0.75913296  1
  O  O381  1  0.11938152  0.75595185  0.25345670  1
  O  O382  1  0.13091796  0.75674124  0.75807191  1
  O  O383  1  0.61947903  0.25606866  0.26212728  1
  O  O384  1  0.61647281  0.25607701  0.75671962  1
  O  O385  1  0.61571025  0.76185100  0.25743465  1
  O  O386  1  0.61577217  0.75367354  0.75177766  1
  O  O387  1  0.38119432  0.25293447  0.23818570  1
  O  O388  1  0.39132452  0.24189091  0.75096548  1
  O  O389  1  0.37732963  0.74399336  0.25045404  1
  O  O390  1  0.37691595  0.74349956  0.74773345  1
  O  O391  1  0.88525017  0.24694271  0.24235878  1
  O  O392  1  0.87489022  0.24278893  0.73756412  1
  O  O393  1  0.88082945  0.74898470  0.24424116  1
  O  O394  1  0.87069598  0.75232187  0.73749392  1
  O  O395  1  0.38230978  0.51002466  0.49314807  1
  O  O396  1  0.37539006  0.49612907  0.99361161  1
  O  O397  1  0.38179684  0.99923880  0.50065379  1
  O  O398  1  0.38181249  0.99255069  1.00203183  1
  O  O399  1  0.88796502  0.49965320  0.49685845  1
  O  O400  1  0.88347868  0.49773245  0.98820264  1
  O  O401  1  0.87060709  0.98929893  0.49265142  1
  O  O402  1  0.87534165  0.98585031  0.98997875  1
  O  O403  1  0.12894257  0.01542298  0.00283767  1
  O  O404  1  0.13059385  0.00783146  0.50398563  1
  O  O405  1  0.11957192  0.50592122  0.00109212  1
  O  O406  1  0.11506204  0.49915267  0.51050525  1
  O  O407  1  0.61862971  -0.00147503  0.00059511  1
  O  O408  1  0.61876356  0.00453654  0.50647082  1
  O  O409  1  0.62181962  0.50954867  0.01268955  1
  O  O410  1  0.61796895  0.50883438  0.50633575  1
  O  O411  1  0.37226789  0.37171872  0.12074630  1
  O  O412  1  0.37111214  0.36946120  0.62608764  1
  O  O413  1  0.38556542  0.86823964  0.10894976  1
  O  O414  1  0.37285155  0.86007165  0.62583927  1
  O  O415  1  0.86732819  0.36920318  0.12319612  1
  O  O416  1  0.86974076  0.36158294  0.62637199  1
  O  O417  1  0.86283100  0.87324097  0.11853917  1
  O  O418  1  0.88308300  0.86001328  0.62009167  1
  O  O419  1  0.12346890  0.12755762  0.38429976  1
  O  O420  1  0.12893488  0.12241651  0.88582976  1
  O  O421  1  0.12441613  0.63821325  0.36328489  1
  O  O422  1  0.11729331  0.63355527  0.88248403  1
  O  O423  1  0.62188600  0.13965073  0.38363010  1
  O  O424  1  0.62816222  0.13829689  0.87128520  1
  O  O425  1  0.63194361  0.63128883  0.38509526  1
  O  O426  1  0.62981602  0.62976037  0.88139354  1
