# generated using pymatgen
data_V85Zn86O256
_symmetry_space_group_name_H-M   'P 1'
_cell_length_a   16.93558009
_cell_length_b   16.93821012
_cell_length_c   16.93428926
_cell_angle_alpha   89.97279828
_cell_angle_beta   89.97580343
_cell_angle_gamma   90.01389481
_symmetry_Int_Tables_number   1
_chemical_formula_structural   V85Zn86O256
_chemical_formula_sum   'V85 Zn86 O256'
_cell_volume   4857.74223608
_cell_formula_units_Z   1
loop_
 _symmetry_equiv_pos_site_id
 _symmetry_equiv_pos_as_xyz
  1  'x, y, z'
loop_
 _atom_site_type_symbol
 _atom_site_label
 _atom_site_symmetry_multiplicity
 _atom_site_fract_x
 _atom_site_fract_y
 _atom_site_fract_z
 _atom_site_occupancy
  V  V0  1  0.62119894  0.87175123  0.75271991  1
  V  V1  1  0.87503476  0.74811867  0.12594480  1
  V  V2  1  0.74982697  0.87278241  0.62545904  1
  V  V3  1  0.25107169  0.25047610  -0.00017051  1
  V  V4  1  0.12409585  0.88514694  0.74527868  1
  V  V5  1  0.75246415  0.49942235  0.76138527  1
  V  V6  1  0.50153275  0.61948034  0.60802871  1
  V  V7  1  0.62418324  0.37226249  0.76216718  1
  V  V8  1  0.25158204  0.50113096  0.24970916  1
  V  V9  1  0.49877575  0.87293103  0.87621776  1
  V  V10  1  0.12533016  0.49863084  0.62708488  1
  V  V11  1  0.00399341  0.75033860  0.25058148  1
  V  V12  1  0.24170692  0.00810203  0.23961242  1
  V  V13  1  0.75084800  0.37175837  0.61046199  1
  V  V14  1  0.62802553  0.00463449  0.12327510  1
  V  V15  1  0.12543600  0.50159754  0.11928618  1
  V  V16  1  0.86604228  0.50099630  0.37966792  1
  V  V17  1  0.12482372  0.25144645  0.37754462  1
  V  V18  1  0.75009202  0.24763691  -0.01023562  1
  V  V19  1  0.87387953  0.25558893  0.12124377  1
  V  V20  1  0.87385859  0.87564083  -0.00105294  1
  V  V21  1  0.25022475  0.25354782  0.50438900  1
  V  V22  1  0.25236201  0.62935531  0.87708103  1
  V  V23  1  0.00116583  0.74889136  0.75156027  1
  V  V24  1  0.87155365  0.62063669  0.76438291  1
  V  V25  1  0.62490535  0.49968321  0.61319782  1
  V  V26  1  0.86832369  0.12868148  0.75292250  1
  V  V27  1  0.74920731  0.00066046  0.25208942  1
  V  V28  1  -0.01352436  0.37745707  0.87903708  1
  V  V29  1  0.00012463  0.62450004  0.62662089  1
  V  V30  1  0.74570790  0.00400305  0.75413182  1
  V  V31  1  0.26074314  0.12631827  0.37060760  1
  V  V32  1  0.39145275  0.37816503  -0.00604627  1
  V  V33  1  0.50403205  0.25252275  0.76834872  1
  V  V34  1  0.37380136  0.87484186  0.02172678  1
  V  V35  1  0.75173401  0.37698541  0.12461379  1
  V  V36  1  0.75112026  0.12944459  0.39057362  1
  V  V37  1  0.87078678  0.25217070  0.61322070  1
  V  V38  1  0.62861232  0.12653187  -0.01570571  1
  V  V39  1  0.62605495  0.73504442  0.87831078  1
  V  V40  1  0.50609743  0.37437690  0.37934515  1
  V  V41  1  0.37893564  0.50130366  0.37365403  1
  V  V42  1  0.12436189  0.37789435  0.25189155  1
  V  V43  1  0.75172373  0.87479233  0.12391000  1
  V  V44  1  0.00703003  -0.00043076  0.00304721  1
  V  V45  1  0.38099758  0.38178752  0.50213222  1
  V  V46  1  0.50210669  0.12572950  0.13412286  1
  V  V47  1  0.00472130  0.11909764  0.62760064  1
  V  V48  1  -0.00757794  0.37462770  0.37975078  1
  V  V49  1  0.61018400  0.12682392  0.50607126  1
  V  V50  1  0.00014761  0.87511314  0.87436684  1
  V  V51  1  0.37870752  0.75938091  0.61906653  1
  V  V52  1  0.49951133  0.64000205  0.12183923  1
  V  V53  1  0.37896488  0.12423280  0.74863687  1
  V  V54  1  0.87351766  0.87298203  0.50038116  1
  V  V55  1  0.74698522  0.73550078  -0.00324514  1
  V  V56  1  0.62193865  0.36999534  0.24992477  1
  V  V57  1  -0.00172039  0.25077279  0.75028131  1
  V  V58  1  0.24756879  0.88398681  0.62037157  1
  V  V59  1  -0.01437054  0.49840349  -0.00238738  1
  V  V60  1  0.37218033  -0.00206502  0.87145288  1
  V  V61  1  0.00400805  0.12188153  0.12613289  1
  V  V62  1  -0.00166912  0.25135452  0.24991943  1
  V  V63  1  0.37683627  0.64009069  0.24451814  1
  V  V64  1  0.61546784  0.86316903  0.25091298  1
  V  V65  1  0.25296797  0.50001372  0.75280891  1
  V  V66  1  0.12537000  0.75077864  0.37568857  1
  V  V67  1  0.37649659  0.24593867  0.13170569  1
  V  V68  1  0.25212615  0.37545431  0.12343207  1
  V  V69  1  0.00335625  0.87643856  0.37205820  1
  V  V70  1  0.25503793  0.75258082  0.49728238  1
  V  V71  1  0.12726325  0.11694545  0.50300149  1
  V  V72  1  0.12479343  0.37500412  0.75234859  1
  V  V73  1  0.61252366  0.49731172  0.12016097  1
  V  V74  1  0.87137119  0.00330255  0.87508386  1
  V  V75  1  0.38805489  0.24989894  0.62656889  1
  V  V76  1  0.87306976  0.12634775  0.25169823  1
  V  V77  1  0.61111208  -0.00320503  0.61789134  1
  V  V78  1  0.22581045  0.87471194  0.13144852  1
  V  V79  1  0.87068612  0.62367406  0.25459292  1
  V  V80  1  0.37817972  0.62658903  0.74722215  1
  V  V81  1  0.12359535  0.25020706  0.87791764  1
  V  V82  1  0.49963492  0.00225389  0.00260286  1
  V  V83  1  -0.00163951  0.49414822  0.50171573  1
  V  V84  1  0.87564609  -0.00068036  0.37765855  1
  Zn  Zn85  1  0.12707411  0.62532950  -0.00149593  1
  Zn  Zn86  1  0.49060842  0.86880316  0.38670908  1
  Zn  Zn87  1  0.24923229  0.12326781  0.87600797  1
  Zn  Zn88  1  0.12945044  0.75230599  0.87713079  1
  Zn  Zn89  1  0.75013969  0.73258303  0.49300100  1
  Zn  Zn90  1  0.73980211  0.50605019  0.25679676  1
  Zn  Zn91  1  0.12557665  0.62420634  0.49893512  1
  Zn  Zn92  1  0.00585096  -0.00456047  0.50552349  1
  Zn  Zn93  1  0.25060438  0.62621070  0.37477751  1
  Zn  Zn94  1  0.24642312  0.00428332  0.74832730  1
  Zn  Zn95  1  0.49642153  0.24533080  0.25761238  1
  Zn  Zn96  1  0.00132553  0.62458901  0.12342363  1
  Zn  Zn97  1  0.62467182  0.72774454  0.38254617  1
  Zn  Zn98  1  0.87301559  0.74659930  0.62595200  1
  Zn  Zn99  1  0.39015524  0.49687305  0.87524262  1
  Zn  Zn100  1  0.37395109  -0.00750316  0.37965658  1
  Zn  Zn101  1  0.50283320  0.74905036  0.74654706  1
  Zn  Zn102  1  0.12835717  0.12233580  0.00456415  1
  Zn  Zn103  1  0.55169821  0.55149387  -0.04109412  1
  Zn  Zn104  1  0.25309296  0.37550325  0.62805374  1
  Zn  Zn105  1  0.63082379  0.25450116  0.38573716  1
  Zn  Zn106  1  0.25117384  0.74869592  0.00778651  1
  Zn  Zn107  1  0.18556129  0.18981409  0.18801116  1
  Zn  Zn108  1  0.19149565  0.18800249  0.68858159  1
  Zn  Zn109  1  0.18797495  0.68855765  0.18844814  1
  Zn  Zn110  1  0.18820123  0.69131379  0.68696044  1
  Zn  Zn111  1  0.68764561  0.18761117  0.18803006  1
  Zn  Zn112  1  0.68321278  0.18825758  0.68491575  1
  Zn  Zn113  1  0.68525912  0.68235558  0.18608188  1
  Zn  Zn114  1  0.68680665  0.68476033  0.68221031  1
  Zn  Zn115  1  0.31334204  0.31420337  0.31443489  1
  Zn  Zn116  1  0.31428677  0.31178213  0.81436407  1
  Zn  Zn117  1  0.31150261  0.82246533  0.30889975  1
  Zn  Zn118  1  0.31344616  0.81394003  0.80835942  1
  Zn  Zn119  1  0.80893169  0.31393613  0.31359306  1
  Zn  Zn120  1  0.80982221  0.31408159  0.80716008  1
  Zn  Zn121  1  0.80905841  0.80854141  0.31398484  1
  Zn  Zn122  1  0.81074278  0.80989598  0.81318112  1
  Zn  Zn123  1  0.18772606  0.43868384  0.43787552  1
  Zn  Zn124  1  0.18926088  0.43693506  0.93598896  1
  Zn  Zn125  1  0.19309183  0.93632189  0.43193224  1
  Zn  Zn126  1  0.18900778  0.93444193  0.93771031  1
  Zn  Zn127  1  0.69135717  0.57307516  0.44223835  1
  Zn  Zn128  1  0.69375249  0.43153972  0.94019007  1
  Zn  Zn129  1  0.68304501  0.92905993  0.43746465  1
  Zn  Zn130  1  0.68646402  0.93515388  0.93651329  1
  Zn  Zn131  1  0.31371239  0.06138726  0.06559761  1
  Zn  Zn132  1  0.31276063  0.06944137  0.56429652  1
  Zn  Zn133  1  0.31870437  0.56156683  0.06161686  1
  Zn  Zn134  1  0.31203940  0.56580335  0.56167761  1
  Zn  Zn135  1  0.81599042  0.06688096  0.06172651  1
  Zn  Zn136  1  0.81432229  0.05739615  0.56838063  1
  Zn  Zn137  1  0.81030361  0.56107286  0.07039224  1
  Zn  Zn138  1  0.82087709  0.55246918  0.57377328  1
  Zn  Zn139  1  0.43739690  0.43397383  0.18767657  1
  Zn  Zn140  1  0.44203883  0.43700526  0.68997527  1
  Zn  Zn141  1  0.44687645  0.95877023  0.22126500  1
  Zn  Zn142  1  0.43611823  0.93786577  0.54696075  1
  Zn  Zn143  1  0.93685145  0.43934273  0.18912819  1
  Zn  Zn144  1  0.93282649  0.43499935  0.68939767  1
  Zn  Zn145  1  0.93962146  0.93693036  0.18895974  1
  Zn  Zn146  1  0.93503523  0.93886457  0.68822533  1
  Zn  Zn147  1  0.06696246  0.06282520  0.31436149  1
  Zn  Zn148  1  0.06022079  0.06437889  0.81603040  1
  Zn  Zn149  1  0.05963396  0.56504515  0.31244496  1
  Zn  Zn150  1  0.06349612  0.56208423  0.81671207  1
  Zn  Zn151  1  0.56535967  0.05802633  0.32151041  1
  Zn  Zn152  1  0.55557377  0.05982238  0.80746899  1
  Zn  Zn153  1  0.55547155  0.56066798  0.30641821  1
  Zn  Zn154  1  0.56326531  0.55963866  0.79399485  1
  Zn  Zn155  1  0.43790923  0.18935426  0.44083826  1
  Zn  Zn156  1  0.43623651  0.18468021  0.94268935  1
  Zn  Zn157  1  0.44160637  0.69486069  0.42945150  1
  Zn  Zn158  1  0.43159926  0.69413796  0.93801286  1
  Zn  Zn159  1  0.93971370  0.18454926  0.43907309  1
  Zn  Zn160  1  0.93492585  0.18773924  0.93841706  1
  Zn  Zn161  1  0.93250559  0.68490124  0.44151555  1
  Zn  Zn162  1  0.93923423  0.68672150  0.94047817  1
  Zn  Zn163  1  0.06148403  0.31619850  0.06154767  1
  Zn  Zn164  1  0.06215618  0.31005798  0.56570729  1
  Zn  Zn165  1  0.06256271  0.80790110  0.05879698  1
  Zn  Zn166  1  0.06461271  0.81120051  0.56127979  1
  Zn  Zn167  1  0.56673184  0.30718392  0.06081253  1
  Zn  Zn168  1  0.56674773  0.31444212  0.56447161  1
  Zn  Zn169  1  0.56598951  0.81609707  0.06156611  1
  Zn  Zn170  1  0.56991828  0.79940539  0.55122502  1
  O  O171  1  0.10789902  0.13317703  0.12362542  1
  O  O172  1  0.11669248  0.13409157  0.61701081  1
  O  O173  1  0.12385035  0.61212963  0.12601045  1
  O  O174  1  0.11454926  0.61742143  0.62942093  1
  O  O175  1  0.62109359  0.12069592  0.11697329  1
  O  O176  1  0.62958036  0.11064383  0.61471095  1
  O  O177  1  0.60802689  0.61359186  0.13184232  1
  O  O178  1  0.60907913  0.61549794  0.63254739  1
  O  O179  1  0.38326542  0.37996611  0.38210091  1
  O  O180  1  0.37259817  0.37419952  0.89071466  1
  O  O181  1  0.37387601  0.87519905  0.38134614  1
  O  O182  1  0.38120074  0.88269083  0.87534023  1
  O  O183  1  0.88743759  0.38095993  0.36906901  1
  O  O184  1  0.88770550  0.37069860  0.87120106  1
  O  O185  1  0.88133963  0.88033840  0.38299578  1
  O  O186  1  0.88036440  0.88113287  0.87870902  1
  O  O187  1  0.24806040  0.01392077  0.36925927  1
  O  O188  1  0.25771706  0.00113169  0.87351381  1
  O  O189  1  0.25842335  0.50083127  0.36770677  1
  O  O190  1  0.25305221  0.50618248  0.86372089  1
  O  O191  1  0.75558506  0.00460797  0.36800701  1
  O  O192  1  0.75398765  -0.00518977  0.86203013  1
  O  O193  1  0.76511330  0.49160167  0.37447351  1
  O  O194  1  0.74726627  0.49778259  0.86079366  1
  O  O195  1  0.24432322  0.49478150  0.12922396  1
  O  O196  1  0.24487898  0.50084705  0.63678729  1
  O  O197  1  0.24438233  0.99624703  0.13162066  1
  O  O198  1  0.25518066  0.98706419  0.62716177  1
  O  O199  1  0.74148224  0.49075585  0.13020293  1
  O  O200  1  0.74659016  0.48615016  0.63256502  1
  O  O201  1  0.75075192  0.99518121  0.13076079  1
  O  O202  1  0.74697218  0.98949535  0.63813860  1
  O  O203  1  0.00589224  0.37099885  0.25766184  1
  O  O204  1  0.00489438  0.37030881  0.75734324  1
  O  O205  1  -0.00716730  0.86691392  0.26424520  1
  O  O206  1  0.00458250  0.86857490  0.75168225  1
  O  O207  1  0.50491644  0.37002021  0.25763490  1
  O  O208  1  0.51056314  0.36442725  0.74687997  1
  O  O209  1  0.51833323  0.86750080  0.22792499  1
  O  O210  1  0.51604625  0.87089579  0.75551196  1
  O  O211  1  0.51103505  0.12819927  0.23765559  1
  O  O212  1  0.48777631  0.13526734  0.75331587  1
  O  O213  1  0.48367017  0.62090631  0.23655519  1
  O  O214  1  0.48640421  0.62864177  0.74086657  1
  O  O215  1  0.99428067  0.13001424  0.24594718  1
  O  O216  1  0.99445183  0.13142781  0.74448195  1
  O  O217  1  0.99081139  0.63347458  0.24699791  1
  O  O218  1  0.99681222  0.63083695  0.74820620  1
  O  O219  1  0.36816219  0.25827282  0.00748322  1
  O  O220  1  0.36953591  0.25845169  0.50822134  1
  O  O221  1  0.37044717  0.77185147  0.00004465  1
  O  O222  1  0.36508226  0.74083415  0.50701939  1
  O  O223  1  0.86452644  0.24318419  0.01214393  1
  O  O224  1  0.87822768  0.24451701  0.51406164  1
  O  O225  1  0.86935502  0.75676883  0.00500281  1
  O  O226  1  0.87441238  0.76286110  0.50416605  1
  O  O227  1  0.13375621  0.24645534  0.49725559  1
  O  O228  1  0.13176308  0.25050495  0.99422081  1
  O  O229  1  0.13094630  0.74542528  0.49198376  1
  O  O230  1  0.13040239  0.74401362  0.99532846  1
  O  O231  1  0.62425471  0.23149963  0.50544465  1
  O  O232  1  0.64017902  0.24107690  1.00175901  1
  O  O233  1  0.63546791  0.72698654  0.50245999  1
  O  O234  1  0.63529025  0.75566297  0.99089217  1
  O  O235  1  0.49286870  0.24268039  0.12543812  1
  O  O236  1  0.48983955  0.25303609  0.62932950  1
  O  O237  1  0.50660440  0.73789343  0.12278534  1
  O  O238  1  0.49317157  0.73724941  0.62352854  1
  O  O239  1  0.99125363  0.24766517  0.12822938  1
  O  O240  1  0.99200584  0.24304850  0.63215027  1
  O  O241  1  0.99360580  0.75117099  0.13405362  1
  O  O242  1  0.99977730  0.74068340  0.63248492  1
  O  O243  1  0.00320664  0.25678605  0.37152396  1
  O  O244  1  0.00562409  0.25661260  0.87297681  1
  O  O245  1  0.00382606  0.75587627  0.37049753  1
  O  O246  1  0.00124975  0.75727121  0.86805383  1
  O  O247  1  0.50425084  0.25835395  0.37546414  1
  O  O248  1  0.49637463  0.24890406  0.86732404  1
  O  O249  1  0.51306511  0.75543054  0.37303566  1
  O  O250  1  0.50685426  0.75676822  0.87425164  1
  O  O251  1  0.24409449  0.13847229  0.49412103  1
  O  O252  1  0.24849789  0.13759860  1.00113894  1
  O  O253  1  0.24607449  0.63629988  0.49730703  1
  O  O254  1  0.25419594  0.62666072  0.99111979  1
  O  O255  1  0.75047826  0.11739872  0.49268085  1
  O  O256  1  0.74392496  0.13732973  1.00367818  1
  O  O257  1  0.77400402  0.62061109  0.50106286  1
  O  O258  1  0.75359394  0.63679353  1.00586765  1
  O  O259  1  0.25137384  0.36400703  0.00581345  1
  O  O260  1  0.25679598  0.36541681  0.49975291  1
  O  O261  1  0.25803667  0.88172316  0.01678979  1
  O  O262  1  0.24082631  0.86271836  0.50801326  1
  O  O263  1  0.74723905  0.36064998  0.01416096  1
  O  O264  1  0.74793769  0.37243599  0.51530863  1
  O  O265  1  0.75584532  0.87430102  0.01078818  1
  O  O266  1  0.75842702  0.88125766  0.51203664  1
  O  O267  1  0.13060495  0.49669585  0.24411026  1
  O  O268  1  0.13187670  0.49451969  0.74741500  1
  O  O269  1  0.14047307  0.99911313  0.25775492  1
  O  O270  1  0.12364818  0.98930122  0.75360434  1
  O  O271  1  0.62275933  0.48555419  0.23773141  1
  O  O272  1  0.63757743  0.49190650  0.73944743  1
  O  O273  1  0.63961848  0.99952418  0.24162794  1
  O  O274  1  0.62960317  0.99496030  0.74182528  1
  O  O275  1  0.34697393  0.00159097  0.25422290  1
  O  O276  1  0.37472050  0.01025268  0.76418419  1
  O  O277  1  0.36616430  0.49900645  0.25576939  1
  O  O278  1  0.36824302  0.50686863  0.75064440  1
  O  O279  1  0.86611421  0.00467122  0.25512179  1
  O  O280  1  0.86609137  0.00780613  0.75415425  1
  O  O281  1  0.87715115  0.50795695  0.26031499  1
  O  O282  1  0.86244965  0.50511759  0.74883783  1
  O  O283  1  0.11714492  0.37078814  0.37070905  1
  O  O284  1  0.11871390  0.36524378  0.87153192  1
  O  O285  1  0.11548977  0.86272248  0.38012777  1
  O  O286  1  0.11824038  0.87358284  0.86596929  1
  O  O287  1  0.61249780  0.37482836  0.36745651  1
  O  O288  1  0.63103960  0.37479553  0.86172744  1
  O  O289  1  0.62055182  0.88840627  0.35199185  1
  O  O290  1  0.61812153  0.87005139  0.86945287  1
  O  O291  1  0.38758954  0.13435389  0.11728146  1
  O  O292  1  0.36996053  0.13793190  0.63727258  1
  O  O293  1  0.38371746  0.62212817  0.13563463  1
  O  O294  1  0.38335593  0.62888852  0.62960581  1
  O  O295  1  0.88344193  0.13430929  0.13273560  1
  O  O296  1  0.88084510  0.13067433  0.63507002  1
  O  O297  1  0.88037200  0.63222101  0.13226748  1
  O  O298  1  0.89036487  0.62349041  0.63872188  1
  O  O299  1  0.25597697  0.25418081  0.11925009  1
  O  O300  1  0.25853331  0.25441017  0.61766684  1
  O  O301  1  0.24190493  0.76945331  0.12641889  1
  O  O302  1  0.25777000  0.75599824  0.61743218  1
  O  O303  1  0.75827843  0.25535562  0.12204819  1
  O  O304  1  0.75702663  0.26218303  0.63196208  1
  O  O305  1  0.75432142  0.75784610  0.11839694  1
  O  O306  1  0.75292200  0.76356180  0.62866561  1
  O  O307  1  0.24448770  0.24752032  0.38191046  1
  O  O308  1  0.24160180  0.24999523  0.88348145  1
  O  O309  1  0.24111393  0.75101095  0.37964786  1
  O  O310  1  0.25118228  0.74212252  0.87508996  1
  O  O311  1  0.74777953  0.23569205  0.37093084  1
  O  O312  1  0.75894159  0.25365823  0.89146794  1
  O  O313  1  0.73591515  0.76881844  0.38417682  1
  O  O314  1  0.73997103  0.75430791  0.88527859  1
  O  O315  1  -0.00204016  0.11697323  0.00858557  1
  O  O316  1  0.01022670  0.12384431  0.50900775  1
  O  O317  1  0.00386447  0.61142219  0.00097650  1
  O  O318  1  0.00152598  0.61673669  0.51137763  1
  O  O319  1  0.50982196  0.12037204  0.00799983  1
  O  O320  1  0.51174682  0.12144751  0.49870235  1
  O  O321  1  0.48670390  0.62652834  0.01607544  1
  O  O322  1  0.49048610  0.61934979  0.51037405  1
  O  O323  1  0.49180926  0.37197389  0.49347688  1
  O  O324  1  0.48991653  0.36948107  1.00180326  1
  O  O325  1  0.51866034  0.88194304  0.49980288  1
  O  O326  1  0.48972696  0.88262896  0.99996095  1
  O  O327  1  1.00734284  0.38073744  0.49124203  1
  O  O328  1  1.00183886  0.38788298  0.99325663  1
  O  O329  1  0.99409519  0.87548522  0.49166994  1
  O  O330  1  0.99314447  0.88174216  0.99608587  1
  O  O331  1  0.48530950  0.49096043  0.36905815  1
  O  O332  1  0.50276672  0.50534082  0.87133376  1
  O  O333  1  0.48442703  0.98435516  0.33588206  1
  O  O334  1  0.49295343  0.99314617  0.88322780  1
  O  O335  1  0.99824426  0.49198083  0.38339288  1
  O  O336  1  1.00432374  0.49246344  0.88897848  1
  O  O337  1  0.99488936  0.99250819  0.37693388  1
  O  O338  1  0.99177474  0.99492602  0.88206342  1
  O  O339  1  -0.00867176  0.00971805  0.11644838  1
  O  O340  1  -0.00340953  0.01499841  0.62587852  1
  O  O341  1  0.00770599  0.49715093  0.11411767  1
  O  O342  1  0.00394999  0.50239724  0.62074043  1
  O  O343  1  0.50570732  0.00880346  0.12278645  1
  O  O344  1  0.51428852  -0.00398716  0.62871604  1
  O  O345  1  0.50918400  0.49913235  0.12314072  1
  O  O346  1  0.50801159  0.51031187  0.62803802  1
  O  O347  1  0.24437717  0.38068197  0.24412932  1
  O  O348  1  0.24583308  0.38366472  0.75128472  1
  O  O349  1  0.24465964  0.88530237  0.23522420  1
  O  O350  1  0.24005613  0.87543644  0.74008311  1
  O  O351  1  0.74083955  0.37572077  0.24077925  1
  O  O352  1  0.74442121  0.38408857  0.74572078  1
  O  O353  1  0.74973977  0.88316044  0.23736178  1
  O  O354  1  0.74086445  0.88101164  0.74659039  1
  O  O355  1  0.24204162  0.12005078  0.25745600  1
  O  O356  1  0.26156505  0.12513199  0.75471465  1
  O  O357  1  0.26078965  0.61801784  0.24856660  1
  O  O358  1  0.25988464  0.62040345  0.75246018  1
  O  O359  1  0.75505685  0.11743866  0.25652656  1
  O  O360  1  0.75669889  0.11732613  0.74453811  1
  O  O361  1  0.76646169  0.62248244  0.24091170  1
  O  O362  1  0.75785002  0.61000110  0.74199500  1
  O  O363  1  0.36170005  0.13417736  0.37417248  1
  O  O364  1  0.37324970  0.11658189  0.87291679  1
  O  O365  1  0.37487416  0.61730864  0.36163044  1
  O  O366  1  0.36702036  0.62533047  0.86577810  1
  O  O367  1  0.86972933  0.11888875  0.37203001  1
  O  O368  1  0.88027854  0.12041638  0.86070189  1
  O  O369  1  0.88508264  0.61288681  0.36672324  1
  O  O370  1  0.87860648  0.62738890  0.86349439  1
  O  O371  1  0.13036374  0.38416763  0.13061388  1
  O  O372  1  0.12709990  0.38115949  0.63376137  1
  O  O373  1  0.12777185  0.88074594  0.12173716  1
  O  O374  1  0.13368144  0.87063949  0.63317189  1
  O  O375  1  0.62926831  0.37922676  0.12970891  1
  O  O376  1  0.63454263  0.38058917  0.63099867  1
  O  O377  1  0.63632230  0.88390318  0.12908043  1
  O  O378  1  0.63243638  0.88302342  0.63261584  1
  O  O379  1  0.11739973  0.25756273  0.25617680  1
  O  O380  1  0.11996923  0.25479677  0.75803810  1
  O  O381  1  0.11079883  0.74566922  0.25657867  1
  O  O382  1  0.11272846  0.75697115  0.75112276  1
  O  O383  1  0.62364851  0.26128611  0.25075543  1
  O  O384  1  0.61449267  0.25694289  0.74556896  1
  O  O385  1  0.63453698  0.76380429  0.24683608  1
  O  O386  1  0.62772266  0.75556751  0.75871067  1
  O  O387  1  0.37463576  0.25576765  0.23548627  1
  O  O388  1  0.38260875  0.24743647  0.74550141  1
  O  O389  1  0.36676290  0.73735711  0.24909362  1
  O  O390  1  0.37586279  0.74323293  0.73715608  1
  O  O391  1  0.88018208  0.24564914  0.24358111  1
  O  O392  1  0.87921633  0.24308843  0.74429104  1
  O  O393  1  0.88296740  0.74452330  0.24783908  1
  O  O394  1  0.88553769  0.74416230  0.74901311  1
  O  O395  1  0.36548775  0.48848241  0.49113778  1
  O  O396  1  0.37239676  0.48167446  0.99855278  1
  O  O397  1  0.37419932  1.01208881  0.49384234  1
  O  O398  1  0.37827024  0.99175912  0.99273981  1
  O  O399  1  0.89198705  0.49649125  0.49461514  1
  O  O400  1  0.88715266  0.50097462  1.00628486  1
  O  O401  1  0.87991531  0.98968229  0.49700464  1
  O  O402  1  0.88074702  0.99619570  0.99376960  1
  O  O403  1  0.11044767  0.00285080  -0.00725238  1
  O  O404  1  0.12713880  0.01390704  0.49657736  1
  O  O405  1  0.12270782  0.50066086  0.00837235  1
  O  O406  1  0.11751987  0.50188284  0.50724344  1
  O  O407  1  0.62173987  0.00550487  0.00565159  1
  O  O408  1  0.63191803  0.00727249  0.51312238  1
  O  O409  1  0.63403397  0.49732577  0.01458182  1
  O  O410  1  0.63113117  0.50063532  0.51420957  1
  O  O411  1  0.37039107  0.36792526  0.11472043  1
  O  O412  1  0.37468225  0.37150841  0.61745572  1
  O  O413  1  0.37506029  0.88320939  0.11943453  1
  O  O414  1  0.36874236  0.86313187  0.61985145  1
  O  O415  1  0.86677951  0.36545754  0.13250549  1
  O  O416  1  0.86289963  0.36563544  0.62884384  1
  O  O417  1  0.86939463  0.86896256  0.12105547  1
  O  O418  1  0.86857595  0.87450333  0.61889922  1
  O  O419  1  0.12899916  0.13554666  0.38552268  1
  O  O420  1  0.12416839  0.13879994  0.87842271  1
  O  O421  1  0.12551479  0.63729442  0.37503332  1
  O  O422  1  0.14164573  0.62573485  0.87261699  1
  O  O423  1  0.63249236  0.12141327  0.39161843  1
  O  O424  1  0.62145328  0.11611265  0.88549869  1
  O  O425  1  0.63667492  0.61437504  0.35558927  1
  O  O426  1  0.61559351  0.63404537  0.87461732  1
