# generated using pymatgen
data_V85Zn86O256
_symmetry_space_group_name_H-M   'P 1'
_cell_length_a   16.95438099
_cell_length_b   16.93681157
_cell_length_c   16.95307062
_cell_angle_alpha   89.90595928
_cell_angle_beta   89.97082808
_cell_angle_gamma   89.98710962
_symmetry_Int_Tables_number   1
_chemical_formula_structural   V85Zn86O256
_chemical_formula_sum   'V85 Zn86 O256'
_cell_volume   4868.12042295
_cell_formula_units_Z   1
loop_
 _symmetry_equiv_pos_site_id
 _symmetry_equiv_pos_as_xyz
  1  'x, y, z'
loop_
 _atom_site_type_symbol
 _atom_site_label
 _atom_site_symmetry_multiplicity
 _atom_site_fract_x
 _atom_site_fract_y
 _atom_site_fract_z
 _atom_site_occupancy
  V  V0  1  0.37525037  0.25659331  0.12274231  1
  V  V1  1  0.00000260  0.87600462  0.87480557  1
  V  V2  1  0.74752009  0.25618270  0.50520877  1
  V  V3  1  0.12915814  0.13613893  0.50609542  1
  V  V4  1  0.37478662  0.37668024  0.49289918  1
  V  V5  1  0.00177457  0.11657436  0.62600423  1
  V  V6  1  0.37234299  0.49496767  0.87711432  1
  V  V7  1  0.62599230  0.25228968  0.37136821  1
  V  V8  1  0.87562142  0.25190151  0.12589734  1
  V  V9  1  0.74100854  -0.00066669  0.74557619  1
  V  V10  1  0.63509133  0.75181975  0.37385930  1
  V  V11  1  0.00493717  0.50492763  0.49734851  1
  V  V12  1  0.87998193  0.12564652  0.25420634  1
  V  V13  1  0.49773563  0.11942885  0.12618151  1
  V  V14  1  0.12797906  0.36897322  0.25433886  1
  V  V15  1  0.62160320  0.49571166  0.13464943  1
  V  V16  1  0.86642726  0.50141203  0.37689429  1
  V  V17  1  -0.00924944  0.50414357  0.00226435  1
  V  V18  1  0.12547177  0.37790481  0.74755334  1
  V  V19  1  -0.00285067  0.63203905  0.12855945  1
  V  V20  1  0.49465181  0.24846003  0.75190484  1
  V  V21  1  0.49981756  0.61840917  0.62086563  1
  V  V22  1  0.87090536  0.00064565  0.87729672  1
  V  V23  1  0.13023527  0.88731444  0.74223731  1
  V  V24  1  0.87188356  0.50600380  0.86233377  1
  V  V25  1  -0.01331293  0.74830681  0.74744165  1
  V  V26  1  0.62649058  0.11204969  0.49987622  1
  V  V27  1  0.74156426  0.25588124  0.00505129  1
  V  V28  1  0.37231416  0.62618708  0.25664674  1
  V  V29  1  0.74429028  0.12897896  0.87651473  1
  V  V30  1  0.37503052  0.11227534  0.26058232  1
  V  V31  1  0.61976524  0.12384610  -0.00499038  1
  V  V32  1  0.48858718  -0.00674332  0.00014658  1
  V  V33  1  0.25749495  0.87795735  0.12388447  1
  V  V34  1  0.12499010  0.49988006  0.12584037  1
  V  V35  1  0.12944133  0.87585997  0.25211903  1
  V  V36  1  0.49302066  0.49250195  -0.00020530  1
  V  V37  1  0.62868757  0.62204976  0.49478417  1
  V  V38  1  0.37520125  0.75615819  0.61739234  1
  V  V39  1  0.25441702  0.49935152  0.25265414  1
  V  V40  1  0.12900001  0.12796628  -0.00064495  1
  V  V41  1  0.00239590  0.37980495  0.87821511  1
  V  V42  1  0.00243582  0.36956022  0.37782591  1
  V  V43  1  0.49993549  0.38003437  0.37115513  1
  V  V44  1  0.66893477  0.31096065  0.81759791  1
  V  V45  1  0.50642632  0.24956005  0.24974760  1
  V  V46  1  0.63811781  0.48697351  0.63126461  1
  V  V47  1  0.00146849  0.25094838  0.75045059  1
  V  V48  1  -0.00153481  0.75090054  0.25229913  1
  V  V49  1  0.62559136  0.62380755  -0.00083480  1
  V  V50  1  0.12736382  0.25109530  0.87638718  1
  V  V51  1  0.24590913  0.61831813  0.38635173  1
  V  V52  1  0.31847464  0.06634253  0.68843816  1
  V  V53  1  0.37451651  0.62337793  0.74794397  1
  V  V54  1  0.12269425  0.62796385  -0.00020513  1
  V  V55  1  -0.01702493  0.63026439  0.62489610  1
  V  V56  1  0.74983671  0.62394964  0.86419124  1
  V  V57  1  0.49293733  0.87145630  0.87758288  1
  V  V58  1  0.86881021  0.87221079  0.01248933  1
  V  V59  1  0.13204206  0.00125937  0.13031402  1
  V  V60  1  0.87570533  0.12558829  0.75252425  1
  V  V61  1  0.50257893  0.74764625  0.74899905  1
  V  V62  1  0.37278833  0.24997165  0.62051276  1
  V  V63  1  0.25836944  0.12072544  0.87374382  1
  V  V64  1  0.24885646  0.62536380  0.87415273  1
  V  V65  1  0.00116839  0.00222922  0.00128335  1
  V  V66  1  0.24819383  0.37253713  0.61659874  1
  V  V67  1  0.87891921  -0.00662585  0.38324041  1
  V  V68  1  0.86658756  0.62607003  0.25475154  1
  V  V69  1  0.25750650  0.75551531  -0.00134682  1
  V  V70  1  0.24976907  0.50064220  0.74826914  1
  V  V71  1  0.12665138  0.51422085  0.62109289  1
  V  V72  1  0.50737095  0.11811089  0.62931843  1
  V  V73  1  0.75205094  0.12311358  0.37640661  1
  V  V74  1  0.49520562  0.62505785  0.12518932  1
  V  V75  1  0.75847039  0.74667230  0.50767088  1
  V  V76  1  0.49312454  0.36949013  0.87460360  1
  V  V77  1  0.49469673  -0.01007283  0.49914868  1
  V  V78  1  0.48873585  0.87343275  0.37408690  1
  V  V79  1  0.24724214  0.76676793  0.49898790  1
  V  V80  1  0.74472417  0.37557765  0.13753277  1
  V  V81  1  0.87274314  0.25703056  0.62556252  1
  V  V82  1  0.12430694  0.75263499  0.87074353  1
  V  V83  1  0.00417043  0.12888298  0.12629807  1
  V  V84  1  0.23700631  0.13403562  0.36968527  1
  Zn  Zn85  1  0.36926832  -0.00509728  0.86978473  1
  Zn  Zn86  1  0.87163206  0.37986459  0.00449032  1
  Zn  Zn87  1  0.49875075  0.49921846  0.49588782  1
  Zn  Zn88  1  0.00664693  0.24958502  0.25493650  1
  Zn  Zn89  1  0.25373668  0.37852182  0.11936255  1
  Zn  Zn90  1  0.63142516  0.87409652  0.24245650  1
  Zn  Zn91  1  0.63466602  -0.01592862  0.12085664  1
  Zn  Zn92  1  0.00462462  0.87292185  0.38166672  1
  Zn  Zn93  1  0.49933410  0.74976737  0.25092744  1
  Zn  Zn94  1  0.62212749  0.87842055  0.74773527  1
  Zn  Zn95  1  0.75256355  -0.01165972  0.24203166  1
  Zn  Zn96  1  0.74841808  0.87358864  0.62471066  1
  Zn  Zn97  1  0.74002929  0.76411659  0.01336110  1
  Zn  Zn98  1  0.25205248  0.88849976  0.62524073  1
  Zn  Zn99  1  0.74354458  0.49945575  0.25825977  1
  Zn  Zn100  1  0.62581012  0.75046201  0.87524424  1
  Zn  Zn101  1  0.12419014  0.74669025  0.38012788  1
  Zn  Zn102  1  0.87199170  0.37919833  0.50445039  1
  Zn  Zn103  1  0.26067745  0.25976819  -0.00783664  1
  Zn  Zn104  1  0.88518061  0.86397836  0.51504457  1
  Zn  Zn105  1  0.37414284  0.75244587  0.12465102  1
  Zn  Zn106  1  0.01052833  -0.00503005  0.50744735  1
  Zn  Zn107  1  0.19415287  0.18699477  0.19053968  1
  Zn  Zn108  1  0.18412870  0.19225626  0.68421214  1
  Zn  Zn109  1  0.18620814  0.68959261  0.18905296  1
  Zn  Zn110  1  0.18708563  0.69437083  0.68628956  1
  Zn  Zn111  1  0.69533337  0.15756982  0.17838680  1
  Zn  Zn112  1  0.68798308  0.18155220  0.68377830  1
  Zn  Zn113  1  0.68673884  0.69576953  0.18559800  1
  Zn  Zn114  1  0.68288618  0.68215740  0.68316816  1
  Zn  Zn115  1  0.31715484  0.30831738  0.30804694  1
  Zn  Zn116  1  0.31277110  0.31094616  0.80715448  1
  Zn  Zn117  1  0.31036559  0.80967874  0.31127980  1
  Zn  Zn118  1  0.31355183  0.81316475  0.80690377  1
  Zn  Zn119  1  0.81638216  0.31148690  0.31617273  1
  Zn  Zn120  1  0.82990124  0.31875376  0.81495256  1
  Zn  Zn121  1  0.81388089  0.81119915  0.31180665  1
  Zn  Zn122  1  0.80826897  0.81304605  0.82202516  1
  Zn  Zn123  1  0.18689591  0.43655646  0.43736358  1
  Zn  Zn124  1  0.18668678  0.43850608  0.94135665  1
  Zn  Zn125  1  0.18312591  0.94810463  0.43045611  1
  Zn  Zn126  1  0.18865201  0.93890900  0.93759226  1
  Zn  Zn127  1  0.68292178  0.43511162  0.44161851  1
  Zn  Zn128  1  0.69085853  0.44926009  0.94602398  1
  Zn  Zn129  1  0.69206998  0.93087591  0.43234948  1
  Zn  Zn130  1  0.68070353  0.93748050  0.93520270  1
  Zn  Zn131  1  0.31259728  0.06810289  0.06293786  1
  Zn  Zn132  1  0.29472124  0.04348548  0.50723803  1
  Zn  Zn133  1  0.31123408  0.56355711  0.06317849  1
  Zn  Zn134  1  0.31743633  0.55949771  0.56093609  1
  Zn  Zn135  1  0.81368268  0.06419205  0.06192805  1
  Zn  Zn136  1  0.81653818  0.06490189  0.56431140  1
  Zn  Zn137  1  0.79570260  0.59350518  0.08121368  1
  Zn  Zn138  1  0.80902254  0.56183870  0.55927262  1
  Zn  Zn139  1  0.43797385  0.43681991  0.19335317  1
  Zn  Zn140  1  0.44087166  0.43351312  0.68899054  1
  Zn  Zn141  1  0.44245056  0.93592918  0.19094372  1
  Zn  Zn142  1  0.44844569  0.93125450  0.67970805  1
  Zn  Zn143  1  0.93699493  0.43897561  0.19076411  1
  Zn  Zn144  1  0.93996650  0.44001694  0.68486983  1
  Zn  Zn145  1  0.94230329  0.94138453  0.19201440  1
  Zn  Zn146  1  0.93212553  0.93163344  0.69035874  1
  Zn  Zn147  1  0.06418238  0.06076070  0.31458622  1
  Zn  Zn148  1  0.06374724  0.06408172  0.81473630  1
  Zn  Zn149  1  0.06489339  0.56045670  0.31353357  1
  Zn  Zn150  1  0.05973521  0.56595446  0.80879133  1
  Zn  Zn151  1  0.56564315  0.05612498  0.31220123  1
  Zn  Zn152  1  0.55692163  0.06314260  0.81678917  1
  Zn  Zn153  1  0.56137331  0.56667234  0.31325311  1
  Zn  Zn154  1  0.56463807  0.55737156  0.80995155  1
  Zn  Zn155  1  0.44007868  0.18741998  0.43992427  1
  Zn  Zn156  1  0.43656590  0.18585649  0.93710178  1
  Zn  Zn157  1  0.43593340  0.68997835  0.43701159  1
  Zn  Zn158  1  0.43742798  0.68351714  0.93618150  1
  Zn  Zn159  1  0.94007823  0.18788677  0.44328326  1
  Zn  Zn160  1  0.93608971  0.19077878  0.94054870  1
  Zn  Zn161  1  0.94189358  0.68401396  0.43573669  1
  Zn  Zn162  1  0.93250249  0.69056179  0.93711369  1
  Zn  Zn163  1  0.06632080  0.31569435  0.06368918  1
  Zn  Zn164  1  0.05959547  0.31370831  0.56250330  1
  Zn  Zn165  1  0.06312790  0.81505889  0.06268945  1
  Zn  Zn166  1  0.06599962  0.81053043  0.56439152  1
  Zn  Zn167  1  0.56140223  0.31292383  0.06236570  1
  Zn  Zn168  1  0.56095033  0.30826061  0.55923513  1
  Zn  Zn169  1  0.55971477  0.81113450  0.06225925  1
  Zn  Zn170  1  0.57215628  0.81331569  0.56518695  1
  O  O171  1  0.12533589  0.12046688  0.12179461  1
  O  O172  1  0.11702073  0.13067261  0.61591710  1
  O  O173  1  0.11688490  0.61908193  0.12198825  1
  O  O174  1  0.12393525  0.61551801  0.62837315  1
  O  O175  1  0.60473986  0.13251466  0.11201898  1
  O  O176  1  0.61579588  0.12738114  0.61362878  1
  O  O177  1  0.61171150  0.61577079  0.11839579  1
  O  O178  1  0.61617858  0.61680563  0.61282296  1
  O  O179  1  0.38510393  0.36518496  0.38232781  1
  O  O180  1  0.38105207  0.38176841  0.87020269  1
  O  O181  1  0.38956303  0.86883370  0.37292837  1
  O  O182  1  0.38669046  0.87588191  0.86783824  1
  O  O183  1  0.88443702  0.38460168  0.37682794  1
  O  O184  1  0.88438396  0.38762922  0.88428486  1
  O  O185  1  0.87816716  0.88788223  0.37823465  1
  O  O186  1  0.88093314  0.88632917  0.88311681  1
  O  O187  1  0.25980924  0.02866413  0.39558956  1
  O  O188  1  0.25252123  0.01080745  0.87729168  1
  O  O189  1  0.24832686  0.51071316  0.36938376  1
  O  O190  1  0.25199330  0.50601171  0.86906424  1
  O  O191  1  0.76342716  0.00763480  0.37635109  1
  O  O192  1  0.75530360  0.00916398  0.87265992  1
  O  O193  1  0.76161151  0.49198715  0.37717893  1
  O  O194  1  0.75897350  0.50920425  0.87357907  1
  O  O195  1  0.24179105  0.50175967  0.13327138  1
  O  O196  1  0.24333817  0.49459613  0.62719325  1
  O  O197  1  0.23973761  0.99444116  0.11695574  1
  O  O198  1  0.26761193  1.00928638  0.61934459  1
  O  O199  1  0.73870901  0.49304648  0.12826074  1
  O  O200  1  0.73806755  0.49700158  0.62000937  1
  O  O201  1  0.73641123  1.04405901  0.13793323  1
  O  O202  1  0.75342980  1.01010223  0.64460470  1
  O  O203  1  0.00993806  0.37676473  0.25939993  1
  O  O204  1  0.00634416  0.37166027  0.75614624  1
  O  O205  1  0.00982272  0.86753162  0.25030680  1
  O  O206  1  0.00965213  0.86848386  0.75563801  1
  O  O207  1  0.49739953  0.36217279  0.25803322  1
  O  O208  1  0.50131350  0.36536816  0.76255578  1
  O  O209  1  0.50425412  0.87110574  0.26358281  1
  O  O210  1  0.50109269  0.86306027  0.75494332  1
  O  O211  1  0.49253265  0.12647767  0.24423265  1
  O  O212  1  0.50578774  0.13114209  0.73868174  1
  O  O213  1  0.48915656  0.62375719  0.24279353  1
  O  O214  1  0.49354734  0.62803956  0.74282608  1
  O  O215  1  0.99616207  0.12884834  0.24660626  1
  O  O216  1  0.99661274  0.13217919  0.74708358  1
  O  O217  1  0.99964503  0.63186503  0.24533483  1
  O  O218  1  1.00261094  0.63364226  0.73553463  1
  O  O219  1  0.37848791  0.24348356  0.01848517  1
  O  O220  1  0.38251661  0.25722405  0.51369208  1
  O  O221  1  0.36021239  0.74243441  0.00094187  1
  O  O222  1  0.36078917  0.74485885  0.50676359  1
  O  O223  1  0.86036513  0.25155266  0.00595969  1
  O  O224  1  0.86669032  0.25055209  0.50986816  1
  O  O225  1  0.87860332  0.77101036  -0.00047923  1
  O  O226  1  0.86112661  0.74595726  0.49048698  1
  O  O227  1  0.10992500  0.23564735  0.49688877  1
  O  O228  1  0.12410854  0.24384965  0.99146288  1
  O  O229  1  0.14351206  0.74966256  0.50054560  1
  O  O230  1  0.12897539  0.74714479  0.98772031  1
  O  O231  1  0.63055566  0.23815342  0.49231054  1
  O  O232  1  0.63469726  0.24431840  1.00317128  1
  O  O233  1  0.63248804  0.74170958  0.49158401  1
  O  O234  1  0.62231724  0.73656918  0.99553340  1
  O  O235  1  0.49305538  0.24425688  0.13119928  1
  O  O236  1  0.49465284  0.23958512  0.63005811  1
  O  O237  1  0.49409819  0.73531281  0.12404280  1
  O  O238  1  0.49412811  0.73911563  0.62811836  1
  O  O239  1  0.99431128  0.24566214  0.12565012  1
  O  O240  1  0.99298363  0.24369612  0.63329961  1
  O  O241  1  1.00671591  0.74100464  0.13300788  1
  O  O242  1  1.00290897  0.73711888  0.63103380  1
  O  O243  1  -0.00743645  0.26584680  0.37534268  1
  O  O244  1  0.00504873  0.25746821  0.87076096  1
  O  O245  1  0.00658483  0.75163324  0.36826315  1
  O  O246  1  0.00735378  0.75336517  0.86951551  1
  O  O247  1  0.50847199  0.25277011  0.36838714  1
  O  O248  1  0.49419321  0.25523137  0.86552803  1
  O  O249  1  0.50779090  0.76107177  0.37848698  1
  O  O250  1  0.49777983  0.75279883  0.86614337  1
  O  O251  1  0.23458197  0.14103455  0.49562593  1
  O  O252  1  0.24504367  0.13284656  0.99061336  1
  O  O253  1  0.25488251  0.62360263  0.48744197  1
  O  O254  1  0.24126260  0.63172329  0.99404207  1
  O  O255  1  0.74607620  0.13053577  0.49250797  1
  O  O256  1  0.74113947  0.13566697  0.99318991  1
  O  O257  1  0.74057744  0.63359354  0.49834894  1
  O  O258  1  0.72880798  0.60411481  0.98740470  1
  O  O259  1  0.24456217  0.37094845  0.00607318  1
  O  O260  1  0.25563479  0.37714086  0.50934547  1
  O  O261  1  0.24321317  0.86569418  0.00889828  1
  O  O262  1  0.24772129  0.86978494  0.50159843  1
  O  O263  1  0.74972280  0.37042190  0.01116306  1
  O  O264  1  0.75164438  0.35961413  0.49696053  1
  O  O265  1  0.76278191  0.87872142  -0.00399038  1
  O  O266  1  0.75153639  0.85659126  0.49877878  1
  O  O267  1  0.13525686  0.49378800  0.24521812  1
  O  O268  1  0.12965931  0.49624100  0.74184982  1
  O  O269  1  0.12198658  0.99191206  0.24032829  1
  O  O270  1  0.12131920  0.98528383  0.75493759  1
  O  O271  1  0.62482153  0.50538878  0.23911963  1
  O  O272  1  0.62108450  0.50129340  0.72997804  1
  O  O273  1  0.63043447  0.99756079  0.24384366  1
  O  O274  1  0.63896578  1.00504538  0.75745570  1
  O  O275  1  0.37868615  0.01412199  0.24818749  1
  O  O276  1  0.37682406  0.00368978  0.74345528  1
  O  O277  1  0.36093544  0.50604949  0.24587425  1
  O  O278  1  0.36836367  0.50387664  0.75373016  1
  O  O279  1  0.87582643  0.01226917  0.25992443  1
  O  O280  1  0.86846005  0.00662120  0.76422938  1
  O  O281  1  0.87362638  0.50652218  0.26062297  1
  O  O282  1  0.88215683  0.49783666  0.76347598  1
  O  O283  1  0.11668168  0.38080219  0.36631646  1
  O  O284  1  0.11999135  0.37229483  0.86793143  1
  O  O285  1  0.12603511  0.87465391  0.36504712  1
  O  O286  1  0.11946514  0.86913228  0.86936952  1
  O  O287  1  0.61836081  0.35893334  0.37927652  1
  O  O288  1  0.61867160  0.37752517  0.87800370  1
  O  O289  1  0.61918896  0.85975075  0.37491514  1
  O  O290  1  0.61072579  0.87100142  0.86963992  1
  O  O291  1  0.38297219  0.13112632  0.13431929  1
  O  O292  1  0.38002694  0.12882544  0.62987958  1
  O  O293  1  0.38000984  0.62428200  0.13455439  1
  O  O294  1  0.38068211  0.63143230  0.62832632  1
  O  O295  1  0.88411050  0.13136321  0.13462044  1
  O  O296  1  0.88295676  0.13472695  0.63322968  1
  O  O297  1  0.89295796  0.61231790  0.14003760  1
  O  O298  1  0.88519578  0.62084623  0.62556936  1
  O  O299  1  0.26740085  0.24940231  0.12740544  1
  O  O300  1  0.25967800  0.26097581  0.63112338  1
  O  O301  1  0.24734716  0.75822019  0.11488122  1
  O  O302  1  0.25697560  0.75043882  0.61206969  1
  O  O303  1  0.75276900  0.25416261  0.12045155  1
  O  O304  1  0.75946397  0.24158444  0.61713898  1
  O  O305  1  0.76019247  0.70401887  0.10585985  1
  O  O306  1  0.74847407  0.74258622  0.61002187  1
  O  O307  1  0.25957609  0.23247511  0.37250357  1
  O  O308  1  0.24424356  0.24293316  0.87104586  1
  O  O309  1  0.25050535  0.74215705  0.38806093  1
  O  O310  1  0.24356261  0.74722541  0.87943495  1
  O  O311  1  0.74463472  0.24414233  0.38240719  1
  O  O312  1  0.74075556  0.25444105  0.87827432  1
  O  O313  1  0.73784331  0.74816468  0.38235395  1
  O  O314  1  0.74749380  0.73601870  0.88613325  1
  O  O315  1  0.00719277  0.12179814  0.00527584  1
  O  O316  1  0.00457443  0.12233896  0.51201628  1
  O  O317  1  0.00263215  0.62400730  0.00825412  1
  O  O318  1  -0.00014235  0.61917275  0.51395908  1
  O  O319  1  0.50346171  0.11808816  0.00450056  1
  O  O320  1  0.50840919  0.11416276  0.50473104  1
  O  O321  1  0.50445580  0.61558352  0.00540800  1
  O  O322  1  0.50377188  0.62251614  0.50585771  1
  O  O323  1  0.49219347  0.37241788  0.48921632  1
  O  O324  1  0.50116442  0.37940688  0.98699839  1
  O  O325  1  0.50787665  0.88308616  0.49308950  1
  O  O326  1  0.49872019  0.88134950  0.99127480  1
  O  O327  1  0.99685416  0.38547605  0.49483415  1
  O  O328  1  1.00067146  0.38717588  0.99569816  1
  O  O329  1  1.00067174  0.87782724  0.50026161  1
  O  O330  1  0.99447721  0.88398074  0.99426099  1
  O  O331  1  0.50674586  0.48365236  0.37282663  1
  O  O332  1  0.49427608  0.49184002  0.88137879  1
  O  O333  1  0.50696956  0.98436204  0.38587904  1
  O  O334  1  0.49365129  0.99152444  0.88151141  1
  O  O335  1  0.99651361  0.49439252  0.38345788  1
  O  O336  1  0.99579180  0.50132830  0.88310288  1
  O  O337  1  0.98739764  0.99946842  0.37593949  1
  O  O338  1  0.99078329  0.99861940  0.88121004  1
  O  O339  1  0.01156450  0.00875425  0.12090197  1
  O  O340  1  -0.00618339  0.01420477  0.63157805  1
  O  O341  1  0.00687566  0.50553381  0.11937250  1
  O  O342  1  0.00666868  0.51069724  0.61976752  1
  O  O343  1  0.49985306  0.00585123  0.11721365  1
  O  O344  1  0.50426232  0.00594531  0.61262352  1
  O  O345  1  0.50085265  0.50371560  0.11992701  1
  O  O346  1  0.49802950  0.51091428  0.62333199  1
  O  O347  1  0.24601473  0.38300781  0.24960304  1
  O  O348  1  0.24552716  0.38195599  0.73817395  1
  O  O349  1  0.23743246  0.86734527  0.24061135  1
  O  O350  1  0.23547320  0.87258420  0.74696529  1
  O  O351  1  0.75284346  0.37440783  0.24041729  1
  O  O352  1  0.73425328  0.36133767  0.76349567  1
  O  O353  1  0.74769708  0.87525903  0.25279922  1
  O  O354  1  0.74865062  0.89197559  0.76039752  1
  O  O355  1  0.26064046  0.12340367  0.26109640  1
  O  O356  1  0.25278800  0.11993083  0.74840632  1
  O  O357  1  0.25483618  0.61977106  0.25723055  1
  O  O358  1  0.25396542  0.62157757  0.75412053  1
  O  O359  1  0.76226487  0.13206794  0.26891148  1
  O  O360  1  0.75396265  0.11938734  0.75896585  1
  O  O361  1  0.76441598  0.62260640  0.25111969  1
  O  O362  1  0.74434944  0.62932609  0.76535337  1
  O  O363  1  0.37900947  0.12811089  0.36236288  1
  O  O364  1  0.36200169  0.12519394  0.87265261  1
  O  O365  1  0.36426515  0.62750012  0.36432484  1
  O  O366  1  0.36798969  0.61648270  0.86845796  1
  O  O367  1  0.87208394  0.11990202  0.37248555  1
  O  O368  1  0.86770060  0.12151433  0.87229133  1
  O  O369  1  0.88469369  0.61152044  0.36624855  1
  O  O370  1  0.85936007  0.61951901  0.88208152  1
  O  O371  1  0.12545747  0.38577215  0.13467771  1
  O  O372  1  0.13132596  0.38238256  0.62775260  1
  O  O373  1  0.13207392  0.88421317  0.12962823  1
  O  O374  1  0.12927469  0.87532376  0.63828316  1
  O  O375  1  0.63140910  0.38325886  0.12266336  1
  O  O376  1  0.61751104  0.38871364  0.61638676  1
  O  O377  1  0.62752909  0.87010480  0.12565692  1
  O  O378  1  0.63494150  0.87139028  0.63518817  1
  O  O379  1  0.12661700  0.26483367  0.24355735  1
  O  O380  1  0.12053438  0.25766582  0.75663493  1
  O  O381  1  0.11596593  0.75743883  0.25212292  1
  O  O382  1  0.11909588  0.75634290  0.75997535  1
  O  O383  1  0.61301294  0.23555343  0.25680151  1
  O  O384  1  0.61663534  0.24849512  0.75203373  1
  O  O385  1  0.62066365  0.74256620  0.26399636  1
  O  O386  1  0.61008412  0.74262711  0.75183428  1
  O  O387  1  0.38717138  0.23932695  0.24051017  1
  O  O388  1  0.38730307  0.25347921  0.73674889  1
  O  O389  1  0.37607180  0.73985877  0.24566329  1
  O  O390  1  0.38330227  0.74146887  0.74213240  1
  O  O391  1  0.87924191  0.23951614  0.24683891  1
  O  O392  1  0.88054939  0.24429786  0.74597173  1
  O  O393  1  0.88939836  0.74058264  0.25844078  1
  O  O394  1  0.88835751  0.75692144  0.76093919  1
  O  O395  1  0.37913048  0.48191927  0.50285374  1
  O  O396  1  0.38571433  0.50482359  0.99521592  1
  O  O397  1  0.39669974  0.99576510  0.50138369  1
  O  O398  1  0.38620326  1.00641814  0.99801048  1
  O  O399  1  0.88439321  0.49958668  0.49407149  1
  O  O400  1  0.88699083  0.50493728  0.99731540  1
  O  O401  1  0.87852025  1.00307813  0.48905242  1
  O  O402  1  0.87864732  0.99954799  0.99181501  1
  O  O403  1  0.11973927  0.00848844  0.00646956  1
  O  O404  1  0.12222813  0.02387081  0.49334440  1
  O  O405  1  0.11417015  0.51014204  0.00492983  1
  O  O406  1  0.11361679  0.49675014  0.50771890  1
  O  O407  1  0.61430784  0.00887698  0.00140569  1
  O  O408  1  0.62411233  0.00883180  0.49198629  1
  O  O409  1  0.60881485  0.50270496  0.01049199  1
  O  O410  1  0.62041521  0.50761933  0.50500235  1
  O  O411  1  0.37655571  0.35976412  0.13142376  1
  O  O412  1  0.36857152  0.36774781  0.61897358  1
  O  O413  1  0.36105180  0.87538663  0.13212777  1
  O  O414  1  0.37198315  0.85966554  0.63042139  1
  O  O415  1  0.86765890  0.36899353  0.12523889  1
  O  O416  1  0.87992530  0.36169871  0.62625860  1
  O  O417  1  0.87948406  0.88962465  0.11013482  1
  O  O418  1  0.86174654  0.88007059  0.62426780  1
  O  O419  1  0.13233429  0.13159253  0.37556207  1
  O  O420  1  0.13459861  0.13139816  0.87810400  1
  O  O421  1  0.14255757  0.62688869  0.37051572  1
  O  O422  1  0.12923499  0.63350204  0.87720226  1
  O  O423  1  0.63367390  0.13105358  0.38054408  1
  O  O424  1  0.62558407  0.12610790  0.88763461  1
  O  O425  1  0.61540433  0.63643941  0.38656897  1
  O  O426  1  0.63130085  0.62144939  0.88028706  1
