# generated using pymatgen
data_V85Zn86O256
_symmetry_space_group_name_H-M   'P 1'
_cell_length_a   16.91610864
_cell_length_b   16.91916598
_cell_length_c   16.91519022
_cell_angle_alpha   90.00426541
_cell_angle_beta   89.98502552
_cell_angle_gamma   89.98914707
_symmetry_Int_Tables_number   1
_chemical_formula_structural   V85Zn86O256
_chemical_formula_sum   'V85 Zn86 O256'
_cell_volume   4841.23627614
_cell_formula_units_Z   1
loop_
 _symmetry_equiv_pos_site_id
 _symmetry_equiv_pos_as_xyz
  1  'x, y, z'
loop_
 _atom_site_type_symbol
 _atom_site_label
 _atom_site_symmetry_multiplicity
 _atom_site_fract_x
 _atom_site_fract_y
 _atom_site_fract_z
 _atom_site_occupancy
  V  V0  1  0.62165011  0.74368575  0.36881953  1
  V  V1  1  0.00534117  -0.00018873  0.50728718  1
  V  V2  1  0.74871007  0.37740809  0.62706535  1
  V  V3  1  -0.00412566  0.37887867  0.37324938  1
  V  V4  1  0.11878914  0.62185331  0.00161100  1
  V  V5  1  0.48629664  0.37758363  0.87667150  1
  V  V6  1  0.37857006  0.61824418  0.75175889  1
  V  V7  1  0.37690928  0.25494232  0.62251587  1
  V  V8  1  0.24788983  -0.00037378  0.25613745  1
  V  V9  1  0.24945397  0.87289256  0.12418238  1
  V  V10  1  0.00006251  0.75050427  0.74874728  1
  V  V11  1  0.00133620  0.12663711  0.11627006  1
  V  V12  1  0.49596057  0.13176521  0.13617634  1
  V  V13  1  0.87447336  0.87312673  0.50146226  1
  V  V14  1  0.25013660  0.38022385  0.61566046  1
  V  V15  1  0.37445456  0.87352759  -0.00093712  1
  V  V16  1  0.74806288  0.50677809  0.75776808  1
  V  V17  1  0.12004169  0.86855971  0.24843027  1
  V  V18  1  0.37406944  0.74423380  0.62436851  1
  V  V19  1  0.86626359  0.37821143  0.00105124  1
  V  V20  1  0.87276913  0.12689700  0.75855917  1
  V  V21  1  0.00137816  0.87977695  0.87431524  1
  V  V22  1  0.62333825  0.00131702  0.12142893  1
  V  V23  1  0.62924220  0.24556810  0.87724533  1
  V  V24  1  0.86472703  0.25606328  0.12715365  1
  V  V25  1  0.87464426  0.60897873  0.25680354  1
  V  V26  1  0.12451718  0.88207422  0.74087671  1
  V  V27  1  0.37607011  0.49769974  0.38515641  1
  V  V28  1  0.00214734  0.25141068  0.74965728  1
  V  V29  1  0.75284509  0.74213741  -0.00427979  1
  V  V30  1  0.62257196  0.88017774  0.74310775  1
  V  V31  1  0.74633091  0.00501437  0.75451811  1
  V  V32  1  0.74960479  0.12461563  0.37631249  1
  V  V33  1  0.24594677  0.50031741  0.74855141  1
  V  V34  1  0.00725232  0.50131148  0.49963649  1
  V  V35  1  0.61751849  0.50657183  0.62788011  1
  V  V36  1  0.25477722  0.24640597  0.49837402  1
  V  V37  1  0.87806981  0.12445251  0.24931811  1
  V  V38  1  0.49928291  0.87635199  0.87427018  1
  V  V39  1  0.50438172  0.12098570  0.62595899  1
  V  V40  1  0.12783160  0.24771305  0.88756341  1
  V  V41  1  0.63545844  0.49000533  0.12898831  1
  V  V42  1  0.12174863  0.74550003  0.37933686  1
  V  V43  1  0.87685384  0.25099061  0.62509282  1
  V  V44  1  0.12549044  0.37606860  0.74512845  1
  V  V45  1  0.87719793  0.50547225  0.87958571  1
  V  V46  1  0.75179902  0.60983942  0.37540495  1
  V  V47  1  0.74714954  0.87935812  0.62382079  1
  V  V48  1  0.13016610  0.12188900  0.50256197  1
  V  V49  1  0.61855454  0.62502930  0.50273584  1
  V  V50  1  0.61533796  0.86726689  0.24683270  1
  V  V51  1  0.87666692  -0.00209482  0.37549214  1
  V  V52  1  0.87278719  0.62678534  0.75050552  1
  V  V53  1  0.12539997  0.24903389  0.37124022  1
  V  V54  1  0.50733299  -0.00352415  0.50140228  1
  V  V55  1  0.24815590  0.49276326  0.24401225  1
  V  V56  1  0.74821864  0.25016565  0.50068438  1
  V  V57  1  0.36411106  0.36681778  0.01589279  1
  V  V58  1  0.00523739  0.25387604  0.24859530  1
  V  V59  1  0.49265198  0.50176093  -0.00001104  1
  V  V60  1  0.37643714  -0.00173269  0.37201148  1
  V  V61  1  0.12663618  0.75046107  0.87614406  1
  V  V62  1  0.62952689  0.74360944  0.87323977  1
  V  V63  1  0.24509415  0.62314308  0.37976582  1
  V  V64  1  0.25451494  0.61995858  0.87770385  1
  V  V65  1  0.24784269  0.00658639  0.74067349  1
  V  V66  1  0.00296163  0.62776845  0.13097988  1
  V  V67  1  0.30716325  0.16893073  0.31498370  1
  V  V68  1  0.50458923  0.62624250  0.13266618  1
  V  V69  1  0.00236348  0.38098877  0.88078825  1
  V  V70  1  0.75041199  0.87254985  0.12499041  1
  V  V71  1  0.75072333  -0.00336476  0.24944824  1
  V  V72  1  0.49806338  0.25066412  0.75010929  1
  V  V73  1  0.50338025  0.36714652  0.37374147  1
  V  V74  1  0.50007735  0.74597462  0.74458960  1
  V  V75  1  0.12159484  0.48962565  0.12743017  1
  V  V76  1  -0.00185782  0.86965207  0.37088349  1
  V  V77  1  0.01506657  0.62013429  0.62215891  1
  V  V78  1  0.87674080  0.87527775  -0.00053422  1
  V  V79  1  0.62220544  0.37738050  0.75267097  1
  V  V80  1  0.38084848  0.75035754  0.13507299  1
  V  V81  1  0.87853069  0.74977824  0.13725947  1
  V  V82  1  0.37329956  0.87132994  0.50013813  1
  V  V83  1  0.24857737  0.12649054  0.89093462  1
  V  V84  1  0.12554766  0.00381777  0.11837377  1
  Zn  Zn85  1  0.37568148  0.62556246  0.25224265  1
  Zn  Zn86  1  0.87229796  0.38509260  0.49649027  1
  Zn  Zn87  1  0.49522951  0.49779818  0.50677638  1
  Zn  Zn88  1  0.00444226  0.12247588  0.62763339  1
  Zn  Zn89  1  0.49785472  0.00434777  -0.00037676  1
  Zn  Zn90  1  0.64124550  0.36913999  0.24597996  1
  Zn  Zn91  1  0.62156829  0.24608602  0.36914133  1
  Zn  Zn92  1  0.62788460  0.61970978  -0.00155540  1
  Zn  Zn93  1  0.87421433  0.74751827  0.62424363  1
  Zn  Zn94  1  0.62926465  0.11865994  0.50560832  1
  Zn  Zn95  1  0.24692323  0.87759851  0.62265530  1
  Zn  Zn96  1  0.75158187  0.24301943  -0.00374957  1
  Zn  Zn97  1  0.36956485  0.24439255  0.13652220  1
  Zn  Zn98  1  0.25142845  0.74616273  0.00252370  1
  Zn  Zn99  1  0.00311201  0.00413811  -0.00301383  1
  Zn  Zn100  1  0.74911147  0.74710036  0.50034797  1
  Zn  Zn101  1  0.86935817  0.00695331  0.88117043  1
  Zn  Zn102  1  0.37289792  0.00167243  0.87422227  1
  Zn  Zn103  1  0.62835495  0.12248499  -0.00247685  1
  Zn  Zn104  1  0.49723100  0.86569625  0.37094614  1
  Zn  Zn105  1  0.37208830  0.12619398  0.75310233  1
  Zn  Zn106  1  0.24413116  0.74505923  0.50394941  1
  Zn  Zn107  1  0.18494796  0.19680343  0.17062973  1
  Zn  Zn108  1  0.18675718  0.18920925  0.68679400  1
  Zn  Zn109  1  0.19111859  0.68603773  0.19248588  1
  Zn  Zn110  1  0.19007623  0.69183300  0.69085118  1
  Zn  Zn111  1  0.68395664  0.18862346  0.19058444  1
  Zn  Zn112  1  0.68606372  0.18823308  0.68983842  1
  Zn  Zn113  1  0.69126445  0.68114869  0.18660796  1
  Zn  Zn114  1  0.69026570  0.68995551  0.68560423  1
  Zn  Zn115  1  0.31408311  0.33201821  0.30953295  1
  Zn  Zn116  1  0.30966864  0.30946497  0.81330619  1
  Zn  Zn117  1  0.30831477  0.81195864  0.31366229  1
  Zn  Zn118  1  0.31017165  0.81138952  0.81080470  1
  Zn  Zn119  1  0.81092513  0.31646157  0.31254733  1
  Zn  Zn120  1  0.81226685  0.31755244  0.81216393  1
  Zn  Zn121  1  0.80499729  0.80700482  0.31548956  1
  Zn  Zn122  1  0.81247432  0.81495391  0.81188415  1
  Zn  Zn123  1  0.18107836  0.43680317  0.43547502  1
  Zn  Zn124  1  0.18750617  0.44061139  0.93848845  1
  Zn  Zn125  1  0.18705203  0.93552971  0.43733018  1
  Zn  Zn126  1  0.19033927  0.93993880  0.93401188  1
  Zn  Zn127  1  0.68327482  0.43579493  0.43951647  1
  Zn  Zn128  1  0.68255157  0.43630425  0.93884924  1
  Zn  Zn129  1  0.68625502  0.93275229  0.43368711  1
  Zn  Zn130  1  0.68793001  0.93260154  0.93543028  1
  Zn  Zn131  1  0.31549569  0.06130506  0.06618926  1
  Zn  Zn132  1  0.31715627  0.06445341  0.56130651  1
  Zn  Zn133  1  0.31380042  0.56131696  0.06337402  1
  Zn  Zn134  1  0.30666542  0.56556888  0.56390500  1
  Zn  Zn135  1  0.80897360  0.06650020  0.05976803  1
  Zn  Zn136  1  0.81516911  0.06188179  0.56759857  1
  Zn  Zn137  1  0.81567167  0.56366877  0.06327609  1
  Zn  Zn138  1  0.81397011  0.56145435  0.56275582  1
  Zn  Zn139  1  0.44117107  0.44047574  0.19040620  1
  Zn  Zn140  1  0.43353153  0.43659623  0.68791182  1
  Zn  Zn141  1  0.43701148  0.94211694  0.18660416  1
  Zn  Zn142  1  0.43187191  0.93811656  0.68668392  1
  Zn  Zn143  1  0.93932757  0.43553924  0.18706936  1
  Zn  Zn144  1  0.93792157  0.44090918  0.68617774  1
  Zn  Zn145  1  0.93957122  0.93853352  0.18599531  1
  Zn  Zn146  1  0.93341073  0.94015985  0.68833634  1
  Zn  Zn147  1  0.06489479  0.06392745  0.31355754  1
  Zn  Zn148  1  0.06493735  0.06502723  0.81290338  1
  Zn  Zn149  1  0.05963710  0.56201495  0.31068741  1
  Zn  Zn150  1  0.06298154  0.56236624  0.81062550  1
  Zn  Zn151  1  0.56471931  0.05871448  0.31237005  1
  Zn  Zn152  1  0.56022041  0.06215879  0.80962532  1
  Zn  Zn153  1  0.56296998  0.55698904  0.30974370  1
  Zn  Zn154  1  0.55856729  0.56218800  0.81687591  1
  Zn  Zn155  1  0.44148808  0.18754477  0.44437154  1
  Zn  Zn156  1  0.44075592  0.18685012  0.94271879  1
  Zn  Zn157  1  0.43834596  0.68303002  0.43610587  1
  Zn  Zn158  1  0.43845602  0.68858638  0.93906452  1
  Zn  Zn159  1  0.93778957  0.18847058  0.43870164  1
  Zn  Zn160  1  0.93864905  0.19373971  0.93763053  1
  Zn  Zn161  1  0.93838221  0.68522951  0.43808484  1
  Zn  Zn162  1  0.94009759  0.68860220  0.93844243  1
  Zn  Zn163  1  0.05599838  0.31510974  0.06113409  1
  Zn  Zn164  1  0.06511166  0.31435210  0.55907352  1
  Zn  Zn165  1  0.06221214  0.80968393  0.06181838  1
  Zn  Zn166  1  0.05869437  0.80883764  0.56185929  1
  Zn  Zn167  1  0.55492372  0.31113508  0.06278476  1
  Zn  Zn168  1  0.56264361  0.31669784  0.55687064  1
  Zn  Zn169  1  0.56259963  0.81035028  0.06018488  1
  Zn  Zn170  1  0.56102268  0.80918042  0.56116219  1
  O  O171  1  0.11376126  0.11483226  0.13129034  1
  O  O172  1  0.12151123  0.13320974  0.60871946  1
  O  O173  1  0.11853651  0.62655150  0.12046128  1
  O  O174  1  0.11365859  0.63032318  0.62953753  1
  O  O175  1  0.61827174  0.11470501  0.12470445  1
  O  O176  1  0.60950242  0.12990354  0.62476233  1
  O  O177  1  0.61892049  0.61895202  0.12043299  1
  O  O178  1  0.63118143  0.61794537  0.61722558  1
  O  O179  1  0.38324775  0.39004997  0.37836840  1
  O  O180  1  0.38367480  0.37250016  0.87600631  1
  O  O181  1  0.37731127  0.87833927  0.38155045  1
  O  O182  1  0.38170881  0.87242282  0.88096943  1
  O  O183  1  0.89216406  0.36286289  0.38092491  1
  O  O184  1  0.88283648  0.38368323  0.87826090  1
  O  O185  1  0.87950147  0.87657521  0.38021782  1
  O  O186  1  0.88452421  0.87610368  0.88236122  1
  O  O187  1  0.25563716  -0.00433571  0.36381225  1
  O  O188  1  0.24842997  0.01345852  0.86588343  1
  O  O189  1  0.25481569  0.50289475  0.36964488  1
  O  O190  1  0.24676661  0.51264112  0.86657312  1
  O  O191  1  0.75677831  0.00383671  0.37096053  1
  O  O192  1  0.75230498  -0.00886878  0.85973284  1
  O  O193  1  0.74965132  0.51027672  0.38139128  1
  O  O194  1  0.75626957  0.49624683  0.86433607  1
  O  O195  1  0.24008674  0.50697467  0.13734477  1
  O  O196  1  0.25371358  0.49032488  0.63270404  1
  O  O197  1  0.24432845  0.99488205  0.13584921  1
  O  O198  1  0.25588041  0.99814289  0.63572091  1
  O  O199  1  0.73328286  0.50337298  0.11349546  1
  O  O200  1  0.74224840  0.49619302  0.63715685  1
  O  O201  1  0.74473700  0.99244321  0.13044258  1
  O  O202  1  0.75466204  0.98749998  0.63523891  1
  O  O203  1  -0.00094472  0.36511793  0.25780952  1
  O  O204  1  0.00840561  0.37325572  0.75576948  1
  O  O205  1  0.00728191  0.87958189  0.25897792  1
  O  O206  1  0.00469407  0.87358830  0.75574717  1
  O  O207  1  0.50039446  0.38423729  0.27059367  1
  O  O208  1  0.50258810  0.37166961  0.75712708  1
  O  O209  1  0.51224446  0.87680501  0.24900035  1
  O  O210  1  0.50514320  0.87007681  0.75363944  1
  O  O211  1  0.50507775  0.11759940  0.23527705  1
  O  O212  1  0.49450608  0.13096491  0.74287286  1
  O  O213  1  0.49672578  0.62069067  0.23669506  1
  O  O214  1  0.49017806  0.63333474  0.75603229  1
  O  O215  1  0.99396112  0.12922340  0.24363742  1
  O  O216  1  0.99341009  0.13173749  0.74739299  1
  O  O217  1  0.98581755  0.62700360  0.24497776  1
  O  O218  1  0.99611531  0.62912420  0.74074536  1
  O  O219  1  0.37904932  0.26619761  0.00036532  1
  O  O220  1  0.36279721  0.24810539  0.50501913  1
  O  O221  1  0.37342361  0.76033733  0.00767147  1
  O  O222  1  0.37553303  0.75385241  0.50697650  1
  O  O223  1  0.87498270  0.25971535  0.00794342  1
  O  O224  1  0.86585814  0.24944661  0.51060783  1
  O  O225  1  0.87144889  0.75843406  0.00547983  1
  O  O226  1  0.87387208  0.76263389  0.49986422  1
  O  O227  1  0.13665496  0.24442478  0.49257475  1
  O  O228  1  0.11859778  0.25576202  0.98660196  1
  O  O229  1  0.12673302  0.75902802  0.48446002  1
  O  O230  1  0.12862563  0.74181352  0.99375969  1
  O  O231  1  0.63867155  0.24695628  0.49601224  1
  O  O232  1  0.62450078  0.25522058  0.98496289  1
  O  O233  1  0.62665016  0.74147146  0.49389616  1
  O  O234  1  0.63544588  0.75120970  0.99056363  1
  O  O235  1  0.49278508  0.23674267  0.12623922  1
  O  O236  1  0.49365172  0.24833799  0.62704975  1
  O  O237  1  0.49290436  0.74018460  0.11852134  1
  O  O238  1  0.49321698  0.75270766  0.63803630  1
  O  O239  1  0.99550910  0.24384226  0.13128202  1
  O  O240  1  0.99213624  0.25203981  0.63024549  1
  O  O241  1  0.99180022  0.73854324  0.12134085  1
  O  O242  1  0.99653162  0.73926303  0.63047868  1
  O  O243  1  0.00674151  0.25260562  0.36789488  1
  O  O244  1  0.00701043  0.25917403  0.86739709  1
  O  O245  1  0.00462079  0.76187720  0.37850027  1
  O  O246  1  0.00564811  0.76090199  0.86964218  1
  O  O247  1  0.49982624  0.26273084  0.38176763  1
  O  O248  1  0.50525679  0.25821523  0.86902347  1
  O  O249  1  0.51503195  0.74688873  0.37675330  1
  O  O250  1  0.50499320  0.75946271  0.86520302  1
  O  O251  1  0.24394697  0.13284781  0.50168924  1
  O  O252  1  0.24823450  0.11562578  0.98939026  1
  O  O253  1  0.24858040  0.62592473  0.48583353  1
  O  O254  1  0.24280779  0.62461945  0.99304886  1
  O  O255  1  0.75080231  0.12866302  0.49575002  1
  O  O256  1  0.74291209  0.12847850  0.99660520  1
  O  O257  1  0.74341911  0.62568853  0.49313907  1
  O  O258  1  0.75222327  0.63876699  0.99971613  1
  O  O259  1  0.26762141  0.38426059  -0.00389191  1
  O  O260  1  0.24248551  0.36745459  0.51012685  1
  O  O261  1  0.25688527  0.87276948  0.00518883  1
  O  O262  1  0.26223957  0.87374626  0.50089784  1
  O  O263  1  0.76335102  0.36978486  -0.00871290  1
  O  O264  1  0.75246339  0.36741276  0.50668916  1
  O  O265  1  0.75893903  0.86657271  0.00517838  1
  O  O266  1  0.75696064  0.87649836  0.50654712  1
  O  O267  1  0.13419430  0.50880486  0.23676718  1
  O  O268  1  0.13737803  0.49223612  0.75302692  1
  O  O269  1  0.13029115  0.99042293  0.24555137  1
  O  O270  1  0.13229678  0.99307183  0.75149276  1
  O  O271  1  0.62436622  0.49731556  0.23288921  1
  O  O272  1  0.63064559  0.49963106  0.74811742  1
  O  O273  1  0.63130238  0.98952964  0.24028945  1
  O  O274  1  0.63057357  0.99060400  0.75164558  1
  O  O275  1  0.36685778  -0.00561261  0.26328007  1
  O  O276  1  0.36383700  0.00213683  0.75456321  1
  O  O277  1  0.36101272  0.50059477  0.25743629  1
  O  O278  1  0.36603632  0.51211839  0.74592411  1
  O  O279  1  0.87101465  0.00358990  0.25558887  1
  O  O280  1  0.86736514  0.01026131  0.75254770  1
  O  O281  1  0.87758565  0.51090382  0.24912246  1
  O  O282  1  0.86748098  0.50654851  0.75776757  1
  O  O283  1  0.11488086  0.35745035  0.37964492  1
  O  O284  1  0.12048847  0.37221809  0.86777166  1
  O  O285  1  0.11645758  0.87077263  0.36748043  1
  O  O286  1  0.11819257  0.87208158  0.86826841  1
  O  O287  1  0.61381781  0.37578275  0.37238848  1
  O  O288  1  0.61415868  0.36816347  0.86871929  1
  O  O289  1  0.62439583  0.86389998  0.36416414  1
  O  O290  1  0.61730452  0.86619956  0.86462404  1
  O  O291  1  0.39120915  0.11968307  0.12611221  1
  O  O292  1  0.38500110  0.13856851  0.62370207  1
  O  O293  1  0.38173861  0.63439474  0.12594388  1
  O  O294  1  0.37011850  0.63620717  0.63383126  1
  O  O295  1  0.88253997  0.13107984  0.13129494  1
  O  O296  1  0.87734894  0.13687427  0.63512736  1
  O  O297  1  0.88151822  0.62949099  0.13417809  1
  O  O298  1  0.88087502  0.62620213  0.63887649  1
  O  O299  1  0.26014781  0.25216158  0.12073317  1
  O  O300  1  0.25726820  0.25604540  0.61707594  1
  O  O301  1  0.25839452  0.75640309  0.12489473  1
  O  O302  1  0.25844650  0.75461249  0.62330802  1
  O  O303  1  0.76342515  0.24364262  0.12337479  1
  O  O304  1  0.75527307  0.25499298  0.62050630  1
  O  O305  1  0.75869941  0.75385849  0.11666965  1
  O  O306  1  0.75388342  0.76421403  0.62282868  1
  O  O307  1  0.24857966  0.24604940  0.37608318  1
  O  O308  1  0.24210973  0.23629600  0.87225403  1
  O  O309  1  0.24097568  0.74170823  0.37608239  1
  O  O310  1  0.24294339  0.73818616  0.87421217  1
  O  O311  1  0.75632765  0.23899161  0.38566212  1
  O  O312  1  0.73212650  0.25616894  0.86932076  1
  O  O313  1  0.73763122  0.73966119  0.37922484  1
  O  O314  1  0.74128536  0.75837777  0.88239747  1
  O  O315  1  -0.00517982  0.12393542  0.01172545  1
  O  O316  1  0.00570077  0.11573791  0.50073439  1
  O  O317  1  0.01188384  0.62759286  0.00793103  1
  O  O318  1  -0.00282230  0.62062171  0.51458659  1
  O  O319  1  0.50825008  0.12122534  0.00983370  1
  O  O320  1  0.50415355  0.11446528  0.50657736  1
  O  O321  1  0.50039896  0.61736763  0.00630146  1
  O  O322  1  0.51427649  0.61961326  0.49835197  1
  O  O323  1  0.50449118  0.38369832  0.48445121  1
  O  O324  1  0.48964873  0.38199552  0.99369220  1
  O  O325  1  0.48904561  0.87912064  0.49927147  1
  O  O326  1  0.49336260  0.87416560  0.98970774  1
  O  O327  1  0.99865320  0.38174371  0.49365543  1
  O  O328  1  0.99039203  0.37528024  0.98516355  1
  O  O329  1  0.99332882  0.88082281  0.49407176  1
  O  O330  1  0.99381155  0.87524224  0.99208956  1
  O  O331  1  0.48551217  0.50104309  0.37670090  1
  O  O332  1  0.50270625  0.48988063  0.88531267  1
  O  O333  1  0.49243339  0.99515936  0.38158099  1
  O  O334  1  0.49847195  0.98735044  0.87517432  1
  O  O335  1  1.00524950  0.49010436  0.38224279  1
  O  O336  1  0.99040758  0.49247608  0.86741734  1
  O  O337  1  0.99529208  0.98984474  0.38291720  1
  O  O338  1  0.99866920  0.99064284  0.87678679  1
  O  O339  1  0.00815594  0.00848211  0.12415955  1
  O  O340  1  -0.00461030  0.00034628  0.61113901  1
  O  O341  1  0.01297986  0.51318892  0.13138125  1
  O  O342  1  0.00298208  0.51368039  0.62428960  1
  O  O343  1  0.50888691  0.00426256  0.12208715  1
  O  O344  1  0.48942081  0.00911079  0.61486849  1
  O  O345  1  0.50587363  0.50877264  0.11803662  1
  O  O346  1  0.51304003  0.49626357  0.62856247  1
  O  O347  1  0.23834623  0.39379202  0.25422186  1
  O  O348  1  0.24504294  0.38197469  0.74408141  1
  O  O349  1  0.24145215  0.88177224  0.24435308  1
  O  O350  1  0.24029267  0.88417877  0.75095958  1
  O  O351  1  0.75510135  0.37340408  0.24102581  1
  O  O352  1  0.74252028  0.38479779  0.74616590  1
  O  O353  1  0.74379454  0.87870963  0.24363272  1
  O  O354  1  0.74195773  0.88010562  0.74265272  1
  O  O355  1  0.24160952  0.11564663  0.25186644  1
  O  O356  1  0.25013119  0.11861468  0.75263056  1
  O  O357  1  0.25274315  0.61639156  0.26208379  1
  O  O358  1  0.25450255  0.61798882  0.75586984  1
  O  O359  1  0.75749715  0.11714905  0.25788576  1
  O  O360  1  0.75730248  0.11619244  0.74444865  1
  O  O361  1  0.76574518  0.62677457  0.25753759  1
  O  O362  1  0.75904696  0.61912242  0.74882537  1
  O  O363  1  0.37452314  0.11576005  0.37853141  1
  O  O364  1  0.36213441  0.12570401  0.87645440  1
  O  O365  1  0.36758521  0.61526785  0.37234633  1
  O  O366  1  0.36582092  0.63237861  0.86570981  1
  O  O367  1  0.86758103  0.11876836  0.37155089  1
  O  O368  1  0.87955603  0.12679532  0.86323251  1
  O  O369  1  0.86940742  0.62956868  0.36352474  1
  O  O370  1  0.88531402  0.61831402  0.86322321  1
  O  O371  1  0.11469034  0.39111515  0.12375391  1
  O  O372  1  0.13434873  0.36735493  0.63795524  1
  O  O373  1  0.12718045  0.87883700  0.13219519  1
  O  O374  1  0.12399457  0.86985182  0.63736140  1
  O  O375  1  0.61778531  0.38709355  0.12252370  1
  O  O376  1  0.62987772  0.38197019  0.63286459  1
  O  O377  1  0.62993939  0.87741184  0.12993251  1
  O  O378  1  0.63032782  0.87019561  0.63489633  1
  O  O379  1  0.11295028  0.24089328  0.25606095  1
  O  O380  1  0.12089037  0.25886229  0.75726561  1
  O  O381  1  0.12887646  0.76300464  0.25818387  1
  O  O382  1  0.11928421  0.75841662  0.75762585  1
  O  O383  1  0.62721672  0.25479053  0.25692508  1
  O  O384  1  0.61740120  0.25689739  0.75708180  1
  O  O385  1  0.63216069  0.75605458  0.25477192  1
  O  O386  1  0.61827738  0.75550401  0.75398421  1
  O  O387  1  0.36396549  0.23939838  0.26231390  1
  O  O388  1  0.38066139  0.24938592  0.74064304  1
  O  O389  1  0.37382461  0.75148296  0.23888895  1
  O  O390  1  0.38078752  0.74293558  0.74393992  1
  O  O391  1  0.88669261  0.24340350  0.24367754  1
  O  O392  1  0.87942063  0.24614062  0.74580878  1
  O  O393  1  0.87163971  0.74952419  0.23888040  1
  O  O394  1  0.88187070  0.74362475  0.75107855  1
  O  O395  1  0.37336136  0.50561561  0.48862919  1
  O  O396  1  0.38651218  0.49150177  1.00663273  1
  O  O397  1  0.38015970  0.99200919  0.48995255  1
  O  O398  1  0.37573848  0.98534610  0.99744777  1
  O  O399  1  0.89300985  0.49758567  0.51154351  1
  O  O400  1  0.87161135  0.49691834  0.98737827  1
  O  O401  1  0.88076169  0.99016997  0.49549583  1
  O  O402  1  0.87675669  0.98671989  1.00108925  1
  O  O403  1  0.12463815  -0.00771350  0.01505264  1
  O  O404  1  0.11744609  0.00762951  0.49384090  1
  O  O405  1  0.13111253  0.50879618  0.01632405  1
  O  O406  1  0.10962527  0.49631800  0.50283713  1
  O  O407  1  0.62547491  -0.00760895  0.01251651  1
  O  O408  1  0.61113784  -0.00525701  0.49692694  1
  O  O409  1  0.61321761  0.50031189  0.00597570  1
  O  O410  1  0.62611610  0.50734362  0.51275014  1
  O  O411  1  0.37958852  0.37292933  0.11915514  1
  O  O412  1  0.36588999  0.36413819  0.62684628  1
  O  O413  1  0.37223264  0.86975720  0.11889329  1
  O  O414  1  0.37372665  0.86279390  0.61795876  1
  O  O415  1  0.88598258  0.36791748  0.11234393  1
  O  O416  1  0.86804156  0.36425552  0.62949890  1
  O  O417  1  0.87399630  0.86730796  0.11871819  1
  O  O418  1  0.86854776  0.87344386  0.61722251  1
  O  O419  1  0.11954902  0.13719527  0.38704274  1
  O  O420  1  0.13617852  0.13404651  0.87373482  1
  O  O421  1  0.12900733  0.63545959  0.36760148  1
  O  O422  1  0.12898492  0.62804509  0.88337252  1
  O  O423  1  0.63929149  0.12073371  0.37868846  1
  O  O424  1  0.61607423  0.14249977  0.87198132  1
  O  O425  1  0.63186299  0.62538220  0.37908358  1
  O  O426  1  0.62086447  0.63971841  0.87681987  1
