# generated using pymatgen
data_V85Zn86O256
_symmetry_space_group_name_H-M   'P 1'
_cell_length_a   16.93407926
_cell_length_b   16.94328663
_cell_length_c   16.92536598
_cell_angle_alpha   90.00516317
_cell_angle_beta   90.02979220
_cell_angle_gamma   89.95809415
_symmetry_Int_Tables_number   1
_chemical_formula_structural   V85Zn86O256
_chemical_formula_sum   'V85 Zn86 O256'
_cell_volume   4856.20641033
_cell_formula_units_Z   1
loop_
 _symmetry_equiv_pos_site_id
 _symmetry_equiv_pos_as_xyz
  1  'x, y, z'
loop_
 _atom_site_type_symbol
 _atom_site_label
 _atom_site_symmetry_multiplicity
 _atom_site_fract_x
 _atom_site_fract_y
 _atom_site_fract_z
 _atom_site_occupancy
  V  V0  1  0.12513724  0.11217586  0.50313592  1
  V  V1  1  0.11700091  0.87396098  0.24433329  1
  V  V2  1  0.00449098  0.25199374  0.75507860  1
  V  V3  1  0.50129167  0.12622821  0.62361173  1
  V  V4  1  0.37207129  0.00078140  0.87433871  1
  V  V5  1  0.75723582  0.62062841  0.37318919  1
  V  V6  1  0.24685716  0.24833141  0.49563541  1
  V  V7  1  0.37637627  0.62774100  0.73516516  1
  V  V8  1  0.12378244  0.49737683  0.62502883  1
  V  V9  1  0.75028507  0.12362852  0.87468051  1
  V  V10  1  0.75191274  0.87613285  0.62200896  1
  V  V11  1  0.36753998  0.36373470  0.00674350  1
  V  V12  1  0.74967445  0.37674102  0.62516894  1
  V  V13  1  0.37133138  0.37725027  0.48856758  1
  V  V14  1  0.49586359  0.50236769  0.00231421  1
  V  V15  1  0.67225483  0.06431172  0.05875603  1
  V  V16  1  0.87634118  0.88264635  0.00175773  1
  V  V17  1  0.74827135  0.62844377  0.87618132  1
  V  V18  1  0.62386074  0.37725399  0.75087926  1
  V  V19  1  0.37348507  0.12823975  0.74968764  1
  V  V20  1  0.86952032  0.37562253  0.00526427  1
  V  V21  1  0.62547286  0.00155262  0.62398911  1
  V  V22  1  0.12630313  0.12694949  0.00140225  1
  V  V23  1  0.24742844  0.72938022  -0.00042708  1
  V  V24  1  0.12851498  0.73860161  0.87837684  1
  V  V25  1  0.74998528  0.75222481  0.00999039  1
  V  V26  1  -0.00234156  0.11577466  0.13035182  1
  V  V27  1  0.87697395  0.75621818  0.62011711  1
  V  V28  1  0.49774911  0.62995014  0.13129479  1
  V  V29  1  0.00100750  0.38047921  0.36853052  1
  V  V30  1  0.62105026  0.87383212  0.74983974  1
  V  V31  1  0.49552678  0.88225429  0.36513124  1
  V  V32  1  0.49818199  0.38114021  0.37203544  1
  V  V33  1  0.87606950  0.38437238  0.49761907  1
  V  V34  1  0.62527233  0.25079363  0.37434564  1
  V  V35  1  0.49611737  0.74675528  0.73756064  1
  V  V36  1  0.62663893  0.12379161  0.49724204  1
  V  V37  1  0.25650179  -0.01423626  0.25003271  1
  V  V38  1  0.88293048  0.62134125  0.24672548  1
  V  V39  1  0.87630277  0.12389562  0.75660630  1
  V  V40  1  0.75207916  0.75669185  0.49559847  1
  V  V41  1  0.50046018  0.25173592  0.74950058  1
  V  V42  1  0.75515943  -0.00171789  0.75344477  1
  V  V43  1  0.49317426  0.50543417  0.49899617  1
  V  V44  1  0.35915994  0.87608541  0.00224641  1
  V  V45  1  0.25552663  0.86589229  0.62674396  1
  V  V46  1  0.87244953  0.62628068  0.74964268  1
  V  V47  1  0.00001576  0.37610692  0.88139449  1
  V  V48  1  0.63192790  0.87708091  0.23595950  1
  V  V49  1  0.49643549  -0.00198140  0.00420838  1
  V  V50  1  0.12607466  0.87851481  0.74825710  1
  V  V51  1  0.25248674  0.49187565  0.25925298  1
  V  V52  1  0.61935512  0.75221571  0.36719175  1
  V  V53  1  0.37816838  0.87587900  0.50253537  1
  V  V54  1  0.12669586  0.62902742  0.49967252  1
  V  V55  1  0.37595344  0.11496089  0.26154419  1
  V  V56  1  0.36831073  0.51135182  0.87964934  1
  V  V57  1  0.62152213  0.62676677  0.50074815  1
  V  V58  1  0.62268140  0.62675123  0.00138106  1
  V  V59  1  -0.00135802  0.62399708  0.62543822  1
  V  V60  1  0.24725473  0.00331031  0.74398565  1
  V  V61  1  0.49697547  0.37737834  0.87562819  1
  V  V62  1  0.37068520  0.75349512  0.13076509  1
  V  V63  1  0.87589826  0.25000878  0.62734052  1
  V  V64  1  0.12097833  0.24704372  0.37039603  1
  V  V65  1  0.37354444  0.62431078  0.25742040  1
  V  V66  1  0.48958090  0.12544182  0.12042443  1
  V  V67  1  0.62752466  0.37706997  0.24172761  1
  V  V68  1  0.00094008  0.74992765  0.75359254  1
  V  V69  1  0.87616725  -0.01683146  0.37401968  1
  V  V70  1  0.76155263  0.12440048  0.36609428  1
  V  V71  1  0.87212969  0.25327460  0.13482252  1
  V  V72  1  0.12651993  0.50492157  0.13309667  1
  V  V73  1  0.88752862  0.74727666  0.12329335  1
  V  V74  1  0.62495435  0.24814658  0.88309484  1
  V  V75  1  0.00526051  0.11836399  0.62890101  1
  V  V76  1  0.61933824  0.50369410  0.62362179  1
  V  V77  1  0.24827763  0.50400693  0.75399937  1
  V  V78  1  0.37494570  0.25258794  0.62150628  1
  V  V79  1  0.49475056  0.24881741  0.24555047  1
  V  V80  1  0.75098904  0.25176469  0.50030359  1
  V  V81  1  0.75416266  0.49774617  0.24448535  1
  V  V82  1  -0.00098946  0.88545539  0.88096081  1
  V  V83  1  0.00541263  0.51435599  0.00757121  1
  V  V84  1  0.74809663  0.50216299  0.75071113  1
  Zn  Zn85  1  0.25898423  0.74644445  0.50173715  1
  Zn  Zn86  1  0.25489986  0.13661001  0.88771427  1
  Zn  Zn87  1  0.23331647  0.35795950  0.11666001  1
  Zn  Zn88  1  0.49326871  0.00486146  0.49256487  1
  Zn  Zn89  1  0.75107853  -0.00028833  0.23825561  1
  Zn  Zn90  1  0.12886163  0.37546316  0.75470699  1
  Zn  Zn91  1  0.12725049  0.74966804  0.37230658  1
  Zn  Zn92  1  0.00318390  0.74509568  0.25161972  1
  Zn  Zn93  1  0.74683067  0.25684499  0.00519072  1
  Zn  Zn94  1  0.61929901  0.74966042  0.87449476  1
  Zn  Zn95  1  -0.00764418  -0.00653504  0.50686510  1
  Zn  Zn96  1  0.00283709  0.86728021  0.38830537  1
  Zn  Zn97  1  0.49580756  0.87142778  0.87449171  1
  Zn  Zn98  1  0.87555619  0.50229710  0.87982820  1
  Zn  Zn99  1  -0.00177414  0.24563341  0.25291831  1
  Zn  Zn100  1  0.25211265  0.62558227  0.37684034  1
  Zn  Zn101  1  0.25125397  0.11448455  0.37800727  1
  Zn  Zn102  1  0.24968506  0.37637611  0.62366978  1
  Zn  Zn103  1  -0.00272780  0.50174012  0.49791901  1
  Zn  Zn104  1  0.62681497  0.49838475  0.12301943  1
  Zn  Zn105  1  0.13740579  0.26031572  0.89370251  1
  Zn  Zn106  1  0.12763508  -0.00609196  0.11741382  1
  Zn  Zn107  1  0.18720297  0.17799705  0.18380927  1
  Zn  Zn108  1  0.18798512  0.19027419  0.68826148  1
  Zn  Zn109  1  0.18815932  0.68491468  0.18498465  1
  Zn  Zn110  1  0.18777490  0.68565913  0.69083978  1
  Zn  Zn111  1  0.68886338  0.19501755  0.19030079  1
  Zn  Zn112  1  0.68719368  0.18941868  0.69009286  1
  Zn  Zn113  1  0.68841555  0.68710670  0.18802218  1
  Zn  Zn114  1  0.68462122  0.69032413  0.68423665  1
  Zn  Zn115  1  0.28758950  0.28316094  0.27592457  1
  Zn  Zn116  1  0.31255546  0.31947076  0.81534869  1
  Zn  Zn117  1  0.30954993  0.80927042  0.31622310  1
  Zn  Zn118  1  0.31200223  0.80957576  0.81529892  1
  Zn  Zn119  1  0.81326094  0.31715375  0.31506853  1
  Zn  Zn120  1  0.81428578  0.31294547  0.81724733  1
  Zn  Zn121  1  0.80915778  0.80943394  0.30583816  1
  Zn  Zn122  1  0.81328660  0.81204327  0.81532335  1
  Zn  Zn123  1  0.18318790  0.43841103  0.43491908  1
  Zn  Zn124  1  0.18549137  0.44273235  0.94162194  1
  Zn  Zn125  1  0.18961592  0.93211572  0.43293037  1
  Zn  Zn126  1  0.18264625  0.94441925  0.93444376  1
  Zn  Zn127  1  0.68612280  0.43998641  0.43273479  1
  Zn  Zn128  1  0.68569053  0.44055940  0.93772608  1
  Zn  Zn129  1  0.68595381  0.93892407  0.43200809  1
  Zn  Zn130  1  0.69266304  0.93090645  0.93163460  1
  Zn  Zn131  1  0.30805828  0.06405981  0.06927727  1
  Zn  Zn132  1  0.31287999  0.05771983  0.56211177  1
  Zn  Zn133  1  0.30997447  0.55831144  0.07228352  1
  Zn  Zn134  1  0.30957484  0.55919957  0.56188732  1
  Zn  Zn135  1  0.83611785  0.06745882  0.05609151  1
  Zn  Zn136  1  0.81528321  0.06299927  0.56066300  1
  Zn  Zn137  1  0.81424609  0.56229324  0.06508710  1
  Zn  Zn138  1  0.80858202  0.56670700  0.56265865  1
  Zn  Zn139  1  0.43307086  0.43959952  0.18697427  1
  Zn  Zn140  1  0.43401500  0.43986484  0.68393936  1
  Zn  Zn141  1  0.43961491  0.93481053  0.18513296  1
  Zn  Zn142  1  0.43709726  0.93897099  0.68469996  1
  Zn  Zn143  1  0.93919407  0.43829501  0.18609278  1
  Zn  Zn144  1  0.93686915  0.43751151  0.68984747  1
  Zn  Zn145  1  0.93253777  0.93675776  0.19109897  1
  Zn  Zn146  1  0.93744088  0.93606999  0.69172853  1
  Zn  Zn147  1  0.06278283  0.05781805  0.31155784  1
  Zn  Zn148  1  0.06630075  0.06452796  0.81909873  1
  Zn  Zn149  1  0.06549337  0.56024414  0.31411119  1
  Zn  Zn150  1  0.06031865  0.56000557  0.81519632  1
  Zn  Zn151  1  0.56944076  0.05946477  0.30665059  1
  Zn  Zn152  1  0.56263558  0.06234461  0.81539897  1
  Zn  Zn153  1  0.56401623  0.56315332  0.31271460  1
  Zn  Zn154  1  0.55782261  0.56606274  0.81386864  1
  Zn  Zn155  1  0.43842207  0.19105213  0.43339982  1
  Zn  Zn156  1  0.43911829  0.18549977  0.93748341  1
  Zn  Zn157  1  0.43852301  0.69484862  0.43834404  1
  Zn  Zn158  1  0.43603854  0.69132620  0.93433343  1
  Zn  Zn159  1  0.93961631  0.18819063  0.44263801  1
  Zn  Zn160  1  0.94157163  0.18918038  0.94503786  1
  Zn  Zn161  1  0.94055490  0.68959722  0.43638165  1
  Zn  Zn162  1  0.93658827  0.69204152  0.93493314  1
  Zn  Zn163  1  0.05801186  0.31317826  0.06903659  1
  Zn  Zn164  1  0.06168385  0.30995212  0.56149732  1
  Zn  Zn165  1  0.06662777  0.81051458  0.06159938  1
  Zn  Zn166  1  0.06512137  0.81659888  0.56460811  1
  Zn  Zn167  1  0.55528221  0.31234790  0.06321666  1
  Zn  Zn168  1  0.56177259  0.31573159  0.56051827  1
  Zn  Zn169  1  0.55519447  0.81155126  0.05901805  1
  Zn  Zn170  1  0.56081158  0.81418704  0.55786333  1
  O  O171  1  0.11411615  0.11973839  0.11956180  1
  O  O172  1  0.11545597  0.13062843  0.61774558  1
  O  O173  1  0.12885964  0.60620829  0.12345918  1
  O  O174  1  0.11901481  0.61503914  0.62408682  1
  O  O175  1  0.61890121  0.12618171  0.12102510  1
  O  O176  1  0.62264520  0.12342892  0.61695497  1
  O  O177  1  0.61490684  0.62619519  0.11918703  1
  O  O178  1  0.63018434  0.62052081  0.60856189  1
  O  O179  1  0.38503198  0.36934291  0.38622407  1
  O  O180  1  0.38145156  0.38815635  0.88188774  1
  O  O181  1  0.39186587  0.86946952  0.37702725  1
  O  O182  1  0.37459936  0.88516473  0.88121858  1
  O  O183  1  0.88794855  0.36901194  0.38622890  1
  O  O184  1  0.88445137  0.37852977  0.88280792  1
  O  O185  1  0.87069173  0.88137364  0.37558798  1
  O  O186  1  0.89052376  0.86516231  0.88390111  1
  O  O187  1  0.24635422  -0.00062906  0.35723448  1
  O  O188  1  0.26055517  0.00575742  0.86626578  1
  O  O189  1  0.24443664  0.50610923  0.36361036  1
  O  O190  1  0.25636060  0.49747414  0.86722208  1
  O  O191  1  0.75810124  0.01210005  0.37604784  1
  O  O192  1  0.74296353  0.00999949  0.86439696  1
  O  O193  1  0.74322699  0.51217726  0.36365626  1
  O  O194  1  0.75039340  0.51316961  0.87069534  1
  O  O195  1  0.24012453  0.49224080  0.13478980  1
  O  O196  1  0.24022307  0.49809427  0.63253089  1
  O  O197  1  0.24561896  1.00414735  0.14468107  1
  O  O198  1  0.25498950  0.99004602  0.63956822  1
  O  O199  1  0.74436303  0.50550257  0.13888884  1
  O  O200  1  0.74074503  0.49580944  0.62955083  1
  O  O201  1  0.74250789  1.01613871  0.11519124  1
  O  O202  1  0.74594592  0.99569689  0.63050909  1
  O  O203  1  -0.00526510  0.37196612  0.26592834  1
  O  O204  1  -0.00135943  0.36903266  0.76090554  1
  O  O205  1  0.00945473  0.87272671  0.25255773  1
  O  O206  1  0.00668820  0.86945081  0.75849634  1
  O  O207  1  0.50200826  0.36980734  0.25469727  1
  O  O208  1  0.50282129  0.37252105  0.75529898  1
  O  O209  1  0.50949308  0.87711245  0.25989124  1
  O  O210  1  0.50645297  0.87017794  0.74975211  1
  O  O211  1  0.49915718  0.12846287  0.24379829  1
  O  O212  1  0.49481200  0.13160357  0.74492132  1
  O  O213  1  0.49271861  0.61668112  0.23863935  1
  O  O214  1  0.48684504  0.63056698  0.75010630  1
  O  O215  1  1.00581700  0.12696224  0.23580645  1
  O  O216  1  0.99690850  0.13198022  0.74951478  1
  O  O217  1  0.98607669  0.62152470  0.25611809  1
  O  O218  1  0.99265878  0.62979813  0.74559394  1
  O  O219  1  0.37955096  0.26566351  -0.00687879  1
  O  O220  1  0.36717960  0.25523004  0.50164725  1
  O  O221  1  0.36248922  0.75644047  0.00183774  1
  O  O222  1  0.37677488  0.76692300  0.50019771  1
  O  O223  1  0.87260299  0.25981248  0.00939965  1
  O  O224  1  0.86835971  0.25810268  0.50833365  1
  O  O225  1  0.86886171  0.75391180  0.00616855  1
  O  O226  1  0.86388865  0.74272806  0.50928390  1
  O  O227  1  0.13221663  0.24168799  0.49531457  1
  O  O228  1  0.11990278  0.23655909  1.00691178  1
  O  O229  1  0.12725006  0.73507656  0.50944549  1
  O  O230  1  0.13974606  0.75093722  0.99483681  1
  O  O231  1  0.63110826  0.24512297  0.49519754  1
  O  O232  1  0.62588057  0.25970238  0.98718515  1
  O  O233  1  0.63119413  0.74323038  0.49293069  1
  O  O234  1  0.63219359  0.74644703  0.99734261  1
  O  O235  1  0.50269884  0.23938168  0.13384163  1
  O  O236  1  0.49669043  0.24572165  0.62840907  1
  O  O237  1  0.48562746  0.73736936  0.11522949  1
  O  O238  1  0.50563696  0.75314387  0.63762174  1
  O  O239  1  0.98846377  0.24433809  0.13179003  1
  O  O240  1  0.99356477  0.24227903  0.63309076  1
  O  O241  1  0.99068478  0.74828344  0.12496897  1
  O  O242  1  0.99232176  0.74516661  0.63273322  1
  O  O243  1  0.00464033  0.25657240  0.37589595  1
  O  O244  1  0.00172045  0.25867335  0.86996854  1
  O  O245  1  0.00620180  0.75118289  0.37009295  1
  O  O246  1  0.00838545  0.75661882  0.87002244  1
  O  O247  1  0.50830574  0.26153761  0.37064225  1
  O  O248  1  0.50675725  0.25487486  0.86943535  1
  O  O249  1  0.51400383  0.76182571  0.37779836  1
  O  O250  1  0.50070163  0.75264178  0.86197311  1
  O  O251  1  0.24404376  0.13034735  0.49965780  1
  O  O252  1  0.23574385  0.12631426  1.00537980  1
  O  O253  1  0.24244378  0.62574796  0.50039847  1
  O  O254  1  0.25596884  0.63144555  0.99708881  1
  O  O255  1  0.74164692  0.13191104  0.49357782  1
  O  O256  1  0.74012353  0.11947579  0.99681896  1
  O  O257  1  0.74238728  0.63213833  0.49091435  1
  O  O258  1  0.74484293  0.63035591  0.99350529  1
  O  O259  1  0.26302597  0.37753064  -0.00040142  1
  O  O260  1  0.25627573  0.36858699  0.49797846  1
  O  O261  1  0.25812578  0.87815590  -0.00284640  1
  O  O262  1  0.25672467  0.87529250  0.51061523  1
  O  O263  1  0.76475600  0.37896990  -0.00623639  1
  O  O264  1  0.75457058  0.37112090  0.50218999  1
  O  O265  1  0.76544910  0.86417881  -0.01046250  1
  O  O266  1  0.74212456  0.86336971  0.50345160  1
  O  O267  1  0.13577871  0.50210581  0.24246680  1
  O  O268  1  0.13192858  0.50042121  0.74495484  1
  O  O269  1  0.13139740  0.98694464  0.24696132  1
  O  O270  1  0.13617937  0.99264375  0.75938165  1
  O  O271  1  0.63009026  0.49233445  0.24772039  1
  O  O272  1  0.62721504  0.49789880  0.74465627  1
  O  O273  1  0.63192123  0.98367330  0.24832779  1
  O  O274  1  0.63204037  0.99449534  0.74395958  1
  O  O275  1  0.36639384  -0.00048591  0.24772456  1
  O  O276  1  0.37152422  0.00607453  0.75790178  1
  O  O277  1  0.36194836  0.50924864  0.24479078  1
  O  O278  1  0.37046087  0.50903594  0.75587735  1
  O  O279  1  0.86516743  -0.00375971  0.26524393  1
  O  O280  1  0.86174265  0.00511387  0.74846184  1
  O  O281  1  0.86650781  0.50684852  0.24504801  1
  O  O282  1  0.86520817  0.50826743  0.75098725  1
  O  O283  1  0.10842148  0.36372158  0.38630781  1
  O  O284  1  0.11285710  0.37611030  0.87654918  1
  O  O285  1  0.12296293  0.87192849  0.36074891  1
  O  O286  1  0.11502499  0.86929707  0.86987400  1
  O  O287  1  0.61755534  0.37011102  0.36614679  1
  O  O288  1  0.61768226  0.37168193  0.86901062  1
  O  O289  1  0.61881090  0.86842296  0.36695581  1
  O  O290  1  0.62235437  0.87417120  0.85998564  1
  O  O291  1  0.38614309  0.12032184  0.13843558  1
  O  O292  1  0.38165472  0.13238943  0.62789893  1
  O  O293  1  0.37993410  0.63130777  0.13269099  1
  O  O294  1  0.37643374  0.61916772  0.63662697  1
  O  O295  1  0.88788836  0.13867885  0.12301745  1
  O  O296  1  0.87914317  0.13211477  0.63475369  1
  O  O297  1  0.87014703  0.63435040  0.13520420  1
  O  O298  1  0.87684625  0.63473089  0.63030685  1
  O  O299  1  0.25747289  0.26062502  0.16558165  1
  O  O300  1  0.25468629  0.25360032  0.61197501  1
  O  O301  1  0.25709577  0.74506507  0.10878644  1
  O  O302  1  0.24818438  0.76249610  0.62812266  1
  O  O303  1  0.76509429  0.24266419  0.12083664  1
  O  O304  1  0.75417886  0.25765602  0.62186267  1
  O  O305  1  0.75669171  0.74596162  0.11256950  1
  O  O306  1  0.75616343  0.75540141  0.61638012  1
  O  O307  1  0.24274223  0.24469067  0.38290307  1
  O  O308  1  0.24341909  0.24517721  0.85740552  1
  O  O309  1  0.24545999  0.74429378  0.38278979  1
  O  O310  1  0.24291776  0.75364066  0.88947057  1
  O  O311  1  0.74517188  0.24153377  0.37861037  1
  O  O312  1  0.74165690  0.24423797  0.87878736  1
  O  O313  1  0.74217105  0.74434957  0.38079325  1
  O  O314  1  0.74758879  0.73923833  0.88116379  1
  O  O315  1  0.00822586  0.12740744  0.01555134  1
  O  O316  1  0.00689414  0.12166132  0.51183356  1
  O  O317  1  -0.00728090  0.61165575  -0.00356041  1
  O  O318  1  0.00488504  0.62172933  0.50942730  1
  O  O319  1  0.49694234  0.11648373  0.00891590  1
  O  O320  1  0.51185751  0.12690286  0.50204364  1
  O  O321  1  0.50204215  0.61950152  0.00478885  1
  O  O322  1  0.50721150  0.61547894  0.49093568  1
  O  O323  1  0.49531909  0.38289277  0.49103618  1
  O  O324  1  0.49226918  0.38457998  0.99502799  1
  O  O325  1  0.49669524  0.87973676  0.48881405  1
  O  O326  1  0.48902053  0.88320826  0.99544181  1
  O  O327  1  0.98982144  0.37606438  0.49606497  1
  O  O328  1  0.98964022  0.38135937  0.99506678  1
  O  O329  1  1.00233079  0.88130307  0.50219003  1
  O  O330  1  0.99232103  0.86934450  0.98860793  1
  O  O331  1  0.50539443  0.48818314  0.38176971  1
  O  O332  1  0.49315771  0.49802613  0.88609158  1
  O  O333  1  0.50894448  0.98553904  0.37500433  1
  O  O334  1  0.48959506  1.00178360  0.88447954  1
  O  O335  1  1.00418055  0.48439632  0.37923079  1
  O  O336  1  0.99753385  0.49405373  0.88692976  1
  O  O337  1  0.98288896  0.99802136  0.37342372  1
  O  O338  1  0.99942940  0.98385082  0.86930814  1
  O  O339  1  -0.00606279  0.01299407  0.12816721  1
  O  O340  1  -0.00707337  0.01486285  0.62990583  1
  O  O341  1  0.00878819  0.49958894  0.11603759  1
  O  O342  1  0.00560228  0.50668854  0.62596164  1
  O  O343  1  0.49843162  0.00636456  0.11205257  1
  O  O344  1  0.50843605  0.00974439  0.62267991  1
  O  O345  1  0.49847711  0.50855989  0.11407901  1
  O  O346  1  0.50829224  0.49436138  0.61172886  1
  O  O347  1  0.25662865  0.39235813  0.26086417  1
  O  O348  1  0.25089663  0.39057717  0.74438151  1
  O  O349  1  0.24327736  0.88137543  0.25053765  1
  O  O350  1  0.24550702  0.88078589  0.74789923  1
  O  O351  1  0.73961241  0.38457488  0.25790983  1
  O  O352  1  0.74466277  0.38213375  0.74769904  1
  O  O353  1  0.73704244  0.87676331  0.24631434  1
  O  O354  1  0.74416746  0.88146569  0.74681880  1
  O  O355  1  0.26190431  0.11366090  0.25621488  1
  O  O356  1  0.25838892  0.11754088  0.74459959  1
  O  O357  1  0.25849761  0.61639953  0.25077092  1
  O  O358  1  0.26241314  0.61529537  0.74708316  1
  O  O359  1  0.74157128  0.12244818  0.26428984  1
  O  O360  1  0.75455503  0.11907103  0.75673267  1
  O  O361  1  0.75577205  0.61883357  0.25673257  1
  O  O362  1  0.75079989  0.62317566  0.75645342  1
  O  O363  1  0.38015712  0.11912733  0.36580439  1
  O  O364  1  0.37438420  0.11829543  0.86836685  1
  O  O365  1  0.38010376  0.63224031  0.36028228  1
  O  O366  1  0.37855114  0.61331818  0.86813738  1
  O  O367  1  0.86210087  0.13060617  0.37605050  1
  O  O368  1  0.86014623  0.13357749  0.87322243  1
  O  O369  1  0.86210910  0.63098615  0.36812685  1
  O  O370  1  0.86564925  0.62551369  0.86795811  1
  O  O371  1  0.12328016  0.39314337  0.11721447  1
  O  O372  1  0.12263106  0.38750942  0.62580776  1
  O  O373  1  0.11980927  0.87769895  0.13740104  1
  O  O374  1  0.13278460  0.87287746  0.64287758  1
  O  O375  1  0.61873099  0.37534751  0.13781758  1
  O  O376  1  0.63057454  0.38116605  0.63070835  1
  O  O377  1  0.61697243  0.86674345  0.13797105  1
  O  O378  1  0.63113267  0.87987407  0.63345891  1
  O  O379  1  0.12311170  0.24247380  0.26792488  1
  O  O380  1  0.11086483  0.25526974  0.74587964  1
  O  O381  1  0.12583637  0.76094729  0.24546406  1
  O  O382  1  0.12225998  0.75763644  0.75875467  1
  O  O383  1  0.61549866  0.25705712  0.25521775  1
  O  O384  1  0.61964764  0.25796918  0.75851588  1
  O  O385  1  0.63115366  0.75959694  0.25813197  1
  O  O386  1  0.61830745  0.75782897  0.75002911  1
  O  O387  1  0.39239228  0.23582474  0.26207795  1
  O  O388  1  0.38264357  0.24922815  0.74168259  1
  O  O389  1  0.36721763  0.74353168  0.23674042  1
  O  O390  1  0.37829819  0.73501083  0.75314464  1
  O  O391  1  0.87273703  0.25450783  0.23821359  1
  O  O392  1  0.88487777  0.24598302  0.74795199  1
  O  O393  1  0.87487121  0.74220780  0.23925848  1
  O  O394  1  0.87835825  0.74451819  0.74311866  1
  O  O395  1  0.38379800  0.49229324  0.50239409  1
  O  O396  1  0.37932584  0.49794710  0.99507504  1
  O  O397  1  0.37766351  0.98585946  0.50110370  1
  O  O398  1  0.37764795  0.99596424  0.99539544  1
  O  O399  1  0.87240512  0.48793393  0.50631847  1
  O  O400  1  0.88508634  0.49359653  1.00405950  1
  O  O401  1  0.87383402  1.00788460  0.48033603  1
  O  O402  1  0.87265574  0.98170462  0.99383830  1
  O  O403  1  0.12447113  0.01500437  0.00179321  1
  O  O404  1  0.12640415  0.01046829  0.49747424  1
  O  O405  1  0.11107137  0.50274376  0.00608010  1
  O  O406  1  0.12368142  0.50948532  0.50986539  1
  O  O407  1  0.61974579  -0.00344325  -0.00048906  1
  O  O408  1  0.62634270  0.01052294  0.50497333  1
  O  O409  1  0.61448882  0.50626995  0.00210060  1
  O  O410  1  0.61735923  0.50780723  0.50209992  1
  O  O411  1  0.37747353  0.37751416  0.10765795  1
  O  O412  1  0.37613306  0.36750854  0.61111882  1
  O  O413  1  0.38053027  0.86341316  0.11545772  1
  O  O414  1  0.36747061  0.87706043  0.61836675  1
  O  O415  1  0.87908431  0.36300531  0.11933698  1
  O  O416  1  0.86850918  0.36995866  0.62033575  1
  O  O417  1  0.88044329  0.86762961  0.10931903  1
  O  O418  1  0.86861432  0.86321051  0.63141711  1
  O  O419  1  0.12177448  0.12988282  0.38660144  1
  O  O420  1  0.12383114  0.13061059  0.89115968  1
  O  O421  1  0.12468020  0.62544794  0.38757133  1
  O  O422  1  0.12219995  0.63937407  0.86912938  1
  O  O423  1  0.63158134  0.12941376  0.38211230  1
  O  O424  1  0.63624229  0.13639017  0.86832534  1
  O  O425  1  0.63087772  0.63357026  0.38084741  1
  O  O426  1  0.63116218  0.62624917  0.88236950  1
