# generated using pymatgen
data_V85Zn86O256
_symmetry_space_group_name_H-M   'P 1'
_cell_length_a   17.00371506
_cell_length_b   16.99313295
_cell_length_c   16.96755968
_cell_angle_alpha   90.06051130
_cell_angle_beta   89.92461613
_cell_angle_gamma   90.00355157
_symmetry_Int_Tables_number   1
_chemical_formula_structural   V85Zn86O256
_chemical_formula_sum   'V85 Zn86 O256'
_cell_volume   4902.70814144
_cell_formula_units_Z   1
loop_
 _symmetry_equiv_pos_site_id
 _symmetry_equiv_pos_as_xyz
  1  'x, y, z'
loop_
 _atom_site_type_symbol
 _atom_site_label
 _atom_site_symmetry_multiplicity
 _atom_site_fract_x
 _atom_site_fract_y
 _atom_site_fract_z
 _atom_site_occupancy
  V  V0  1  0.12415321  0.25556636  0.37455965  1
  V  V1  1  0.62113540  0.24607503  0.38480539  1
  V  V2  1  0.00401394  0.87598129  0.88222188  1
  V  V3  1  -0.00029064  0.25175771  0.75511977  1
  V  V4  1  0.74926688  0.37762932  0.12474080  1
  V  V5  1  0.11802534  0.62566050  0.51293476  1
  V  V6  1  0.24618080  0.74864290  0.50162118  1
  V  V7  1  0.12733153  0.88244238  0.75410851  1
  V  V8  1  0.37414093  0.12433800  0.74823397  1
  V  V9  1  0.88047155  0.74738610  0.62613945  1
  V  V10  1  0.00496083  0.75087032  0.75457142  1
  V  V11  1  0.70454154  0.05738888  0.80564288  1
  V  V12  1  0.25058122  0.88843802  0.62913215  1
  V  V13  1  0.49473114  0.62076480  0.11293733  1
  V  V14  1  0.87191128  0.36945402  0.00247117  1
  V  V15  1  0.36990867  0.12846371  0.23505119  1
  V  V16  1  0.87490418  0.87831814  0.49920411  1
  V  V17  1  0.24776705  0.12601520  0.37223033  1
  V  V18  1  0.24132697  0.75045839  -0.01254407  1
  V  V19  1  0.37885046  0.49338064  0.37394847  1
  V  V20  1  0.87835847  0.37659062  0.49458205  1
  V  V21  1  0.50838283  0.00194190  0.00170049  1
  V  V22  1  0.88308464  0.00409844  0.88945126  1
  V  V23  1  0.12388493  0.48396682  0.63480829  1
  V  V24  1  0.75084101  0.50513157  0.75285389  1
  V  V25  1  0.75241415  0.88471966  0.62898050  1
  V  V26  1  0.12143225  -0.00229240  0.12150808  1
  V  V27  1  0.49968358  0.86786149  0.37276984  1
  V  V28  1  0.24606343  -0.00217268  0.24806817  1
  V  V29  1  0.12302584  0.12217539  0.00003481  1
  V  V30  1  0.38207228  0.87121916  -0.00660081  1
  V  V31  1  0.87917709  0.62699671  0.74992541  1
  V  V32  1  0.37271656  0.87463110  0.49789965  1
  V  V33  1  0.87136086  0.87575581  0.00614422  1
  V  V34  1  0.62700774  0.87130637  0.75909991  1
  V  V35  1  0.86665425  0.75021118  0.12698531  1
  V  V36  1  0.25046763  0.49989324  0.24997542  1
  V  V37  1  0.74788255  0.62293554  0.37778249  1
  V  V38  1  0.37481331  0.61985620  0.25235964  1
  V  V39  1  0.63519838  0.62035892  -0.00597737  1
  V  V40  1  0.00193754  0.63246559  0.12856775  1
  V  V41  1  -0.00269309  0.25154304  0.24873627  1
  V  V42  1  0.24991047  0.12443644  0.86865711  1
  V  V43  1  0.49844172  0.75149307  0.76138015  1
  V  V44  1  0.50567105  0.24995788  0.75158920  1
  V  V45  1  0.88184663  0.11423590  0.75389304  1
  V  V46  1  0.87936733  0.25240431  0.62905156  1
  V  V47  1  -0.00160498  0.50050492  0.00109875  1
  V  V48  1  0.12097453  0.74727121  0.36974472  1
  V  V49  1  0.63091555  0.36672117  0.75567040  1
  V  V50  1  0.74528517  0.75097217  0.50376575  1
  V  V51  1  0.24037370  0.61533751  0.86478607  1
  V  V52  1  0.74707983  0.49909864  0.25298943  1
  V  V53  1  0.37323605  -0.00508991  0.87172500  1
  V  V54  1  0.61257201  0.49617617  0.12264615  1
  V  V55  1  0.00092607  0.50010002  0.49769623  1
  V  V56  1  0.37176994  0.74739491  0.12384525  1
  V  V57  1  0.36530342  0.37855381  0.50584629  1
  V  V58  1  0.51480146  0.12658173  0.12077959  1
  V  V59  1  0.50481003  0.74426426  0.25336421  1
  V  V60  1  0.37245458  0.00034652  0.36737048  1
  V  V61  1  0.49218574  0.26123739  0.25336655  1
  V  V62  1  -0.00102402  0.00048254  0.49783926  1
  V  V63  1  0.00390342  0.12518762  0.62680045  1
  V  V64  1  0.26169794  0.37450807  0.12140664  1
  V  V65  1  0.26247034  0.25208156  0.00494585  1
  V  V66  1  0.12506446  0.25686834  0.88017349  1
  V  V67  1  0.50070443  0.49275378  0.50049218  1
  V  V68  1  0.62811050  0.49898008  0.62489439  1
  V  V69  1  0.37557058  0.75086455  0.62567091  1
  V  V70  1  0.12054143  0.37807905  0.25286187  1
  V  V71  1  0.12883458  0.12552915  0.50184156  1
  V  V72  1  0.88111545  0.62441756  0.25278327  1
  V  V73  1  0.50121160  0.62720405  0.62687737  1
  V  V74  1  0.12326172  0.49937749  0.12338272  1
  V  V75  1  0.37337291  0.25811581  0.62712625  1
  V  V76  1  0.62417745  -0.00253534  0.59919973  1
  V  V77  1  0.75345075  0.36994129  0.62363763  1
  V  V78  1  0.25157008  0.87269718  0.12353498  1
  V  V79  1  0.00273282  0.87484979  0.36987945  1
  V  V80  1  0.74451242  0.23426710  -0.00184254  1
  V  V81  1  0.62580266  0.62566729  0.49738669  1
  V  V82  1  0.87038848  0.50638483  0.87795011  1
  V  V83  1  0.00018426  0.37775573  0.87061203  1
  V  V84  1  -0.00179499  0.12664651  0.12495181  1
  Zn  Zn85  1  0.64991117  0.94959856  0.17214252  1
  Zn  Zn86  1  0.11954155  0.62955472  -0.00636155  1
  Zn  Zn87  1  0.83697291  0.09856774  0.29651333  1
  Zn  Zn88  1  0.28270541  0.42874657  0.69222865  1
  Zn  Zn89  1  0.66634091  0.80208437  0.32441715  1
  Zn  Zn90  1  0.63408607  0.74423692  0.87294859  1
  Zn  Zn91  1  0.78596178  -0.04172683  0.25857217  1
  Zn  Zn92  1  0.75496969  0.74649993  -0.01082532  1
  Zn  Zn93  1  0.24886274  0.25560554  0.50079347  1
  Zn  Zn94  1  0.36478721  0.61537791  0.74543484  1
  Zn  Zn95  1  0.49700561  0.00670844  0.49198030  1
  Zn  Zn96  1  0.13338214  0.00847428  0.63104486  1
  Zn  Zn97  1  0.24795283  0.62297300  0.37809750  1
  Zn  Zn98  1  0.61631835  0.37741068  0.25811852  1
  Zn  Zn99  1  0.12378554  0.86914013  0.24783443  1
  Zn  Zn100  1  0.62946045  0.23721607  0.87646387  1
  Zn  Zn101  1  0.49796027  0.37600001  0.89203471  1
  Zn  Zn102  1  0.50630680  0.12818301  0.61588688  1
  Zn  Zn103  1  0.37465794  0.49472516  0.87789506  1
  Zn  Zn104  1  0.76335803  0.23521013  0.47947065  1
  Zn  Zn105  1  0.88057122  0.49594653  0.37306811  1
  Zn  Zn106  1  0.84876168  0.22388668  0.15230834  1
  Zn  Zn107  1  0.18587638  0.18935942  0.18531420  1
  Zn  Zn108  1  0.20602270  0.24339113  0.70917942  1
  Zn  Zn109  1  0.18892964  0.68565543  0.18630584  1
  Zn  Zn110  1  0.18346998  0.69442383  0.68584694  1
  Zn  Zn111  1  0.67884430  0.19100962  0.19659960  1
  Zn  Zn112  1  0.72248115  0.15153282  0.63412355  1
  Zn  Zn113  1  0.68792214  0.68063537  0.18294386  1
  Zn  Zn114  1  0.69069882  0.68900497  0.68852567  1
  Zn  Zn115  1  0.31192731  0.31505298  0.31136345  1
  Zn  Zn116  1  0.32021704  0.31790634  0.82485554  1
  Zn  Zn117  1  0.31126483  0.80897652  0.31140779  1
  Zn  Zn118  1  0.31163136  0.81023913  0.80973154  1
  Zn  Zn119  1  0.80682624  0.31202341  0.31553285  1
  Zn  Zn120  1  0.81267344  0.31016516  0.81623496  1
  Zn  Zn121  1  0.83014505  0.80033325  0.31928519  1
  Zn  Zn122  1  0.81260413  0.81537362  0.81657437  1
  Zn  Zn123  1  0.18661930  0.44192382  0.43749641  1
  Zn  Zn124  1  0.18806923  0.43646619  0.93953327  1
  Zn  Zn125  1  0.18623701  0.93844299  0.43909989  1
  Zn  Zn126  1  0.19023899  0.93838952  0.93561332  1
  Zn  Zn127  1  0.68439403  0.42679927  0.43529405  1
  Zn  Zn128  1  0.68458956  0.43678867  0.93877630  1
  Zn  Zn129  1  0.66389347  0.97127926  0.38316660  1
  Zn  Zn130  1  0.68983209  0.93104545  0.94326912  1
  Zn  Zn131  1  0.31003421  0.05822829  0.05687485  1
  Zn  Zn132  1  0.32651886  0.07096655  0.55420077  1
  Zn  Zn133  1  0.30573327  0.56508567  0.05834405  1
  Zn  Zn134  1  0.30926444  0.56395663  0.56487394  1
  Zn  Zn135  1  0.78987947  0.07172383  0.10769605  1
  Zn  Zn136  1  0.80712802  0.06429663  0.46009893  1
  Zn  Zn137  1  0.81238092  0.55995936  0.06712558  1
  Zn  Zn138  1  0.81590266  0.56221356  0.56630613  1
  Zn  Zn139  1  0.43446485  0.43433044  0.04514028  1
  Zn  Zn140  1  0.45703003  0.45355747  0.72289734  1
  Zn  Zn141  1  0.47062300  0.91898941  0.16838189  1
  Zn  Zn142  1  0.44224165  0.93604027  0.68799352  1
  Zn  Zn143  1  0.93662524  0.43781574  0.18775933  1
  Zn  Zn144  1  0.94232640  0.44233541  0.68489301  1
  Zn  Zn145  1  0.93994226  0.94084404  0.18354727  1
  Zn  Zn146  1  0.94155815  0.93846504  0.68712634  1
  Zn  Zn147  1  0.05531657  0.06198595  0.31006623  1
  Zn  Zn148  1  0.06432959  0.06044207  0.81637645  1
  Zn  Zn149  1  0.06279242  0.56284678  0.31771650  1
  Zn  Zn150  1  0.06181099  0.56435575  0.81099828  1
  Zn  Zn151  1  0.55338575  0.06931566  0.30659389  1
  Zn  Zn152  1  0.54290177  0.05814844  0.80982372  1
  Zn  Zn153  1  0.56128580  0.56166454  0.31377874  1
  Zn  Zn154  1  0.56311793  0.56154349  0.81249536  1
  Zn  Zn155  1  0.43747884  0.18939219  0.43416323  1
  Zn  Zn156  1  0.44137236  0.18747769  0.93617541  1
  Zn  Zn157  1  0.43576441  0.68295777  0.43889507  1
  Zn  Zn158  1  0.42786845  0.67347094  0.93588620  1
  Zn  Zn159  1  0.94677152  0.19648899  0.44034377  1
  Zn  Zn160  1  0.93543822  0.18748012  0.94381861  1
  Zn  Zn161  1  0.93876262  0.68631252  0.43966580  1
  Zn  Zn162  1  0.93777624  0.68933579  0.93748525  1
  Zn  Zn163  1  0.06358929  0.31345667  0.06266372  1
  Zn  Zn164  1  0.06026284  0.31388129  0.56081736  1
  Zn  Zn165  1  0.05984631  0.81389558  0.06263852  1
  Zn  Zn166  1  0.06377126  0.81558956  0.56646487  1
  Zn  Zn167  1  0.56862024  0.30290740  0.06770239  1
  Zn  Zn168  1  0.56097338  0.31347047  0.56598290  1
  Zn  Zn169  1  0.56236500  0.80321826  0.05659515  1
  Zn  Zn170  1  0.56182789  0.81566498  0.56382293  1
  O  O171  1  0.12221156  0.11807814  0.11776810  1
  O  O172  1  0.11531177  0.12825427  0.61721494  1
  O  O173  1  0.11809680  0.61431368  0.12656894  1
  O  O174  1  0.12499527  0.62439320  0.61483506  1
  O  O175  1  0.61270846  0.11745238  0.13147605  1
  O  O176  1  0.62039703  0.09807516  0.62946652  1
  O  O177  1  0.61581930  0.61673559  0.11591713  1
  O  O178  1  0.62088600  0.61984237  0.61855508  1
  O  O179  1  0.37210053  0.38857730  0.38204257  1
  O  O180  1  0.38215095  0.37802063  0.88912185  1
  O  O181  1  0.37536449  0.87814808  0.38118963  1
  O  O182  1  0.36494745  0.88441161  0.87977389  1
  O  O183  1  0.86784208  0.37664743  0.39077646  1
  O  O184  1  0.88058607  0.38451528  0.88368719  1
  O  O185  1  0.88997037  0.86345407  0.39269346  1
  O  O186  1  0.88464041  0.88459022  0.88072626  1
  O  O187  1  0.25111194  0.00403860  0.36683973  1
  O  O188  1  0.26071662  0.01342136  0.87997919  1
  O  O189  1  0.25752376  0.50242498  0.36725448  1
  O  O190  1  0.24467553  0.51316363  0.87726884  1
  O  O191  1  0.76567516  0.01089791  0.36649099  1
  O  O192  1  0.75839202  0.00169624  0.87320631  1
  O  O193  1  0.74939477  0.50247984  0.36516220  1
  O  O194  1  0.75996878  0.49367445  0.86525095  1
  O  O195  1  0.23981500  0.49679179  0.12904130  1
  O  O196  1  0.22999245  0.50158535  0.61949875  1
  O  O197  1  0.24249144  0.99170299  0.12858891  1
  O  O198  1  0.25465826  0.99013651  0.61846338  1
  O  O199  1  0.74110322  0.49772580  0.13645217  1
  O  O200  1  0.74866166  0.48879158  0.63175738  1
  O  O201  1  0.75315854  0.97604263  0.14485281  1
  O  O202  1  0.73468508  0.98630727  0.61914393  1
  O  O203  1  0.01481553  0.37194288  0.24321928  1
  O  O204  1  -0.00929573  0.37052387  0.76476123  1
  O  O205  1  0.00472601  0.87738800  0.26729165  1
  O  O206  1  0.00612334  0.87059064  0.75847893  1
  O  O207  1  0.49267749  0.35761927  0.23905464  1
  O  O208  1  0.51633055  0.35761573  0.73822748  1
  O  O209  1  0.48270747  0.85498552  0.26361879  1
  O  O210  1  0.51250514  0.86287959  0.74378798  1
  O  O211  1  0.48594037  0.12911611  0.23555400  1
  O  O212  1  0.49186592  0.13467588  0.74373366  1
  O  O213  1  0.49121878  0.62618240  0.24322286  1
  O  O214  1  0.50244636  0.63323852  0.73680225  1
  O  O215  1  1.00758423  0.13868525  0.23926390  1
  O  O216  1  0.99870211  0.12854736  0.74607471  1
  O  O217  1  0.99161327  0.61356321  0.24190464  1
  O  O218  1  0.98837168  0.63586351  0.75574477  1
  O  O219  1  0.36014211  0.24272089  -0.00071352  1
  O  O220  1  0.37726389  0.26522345  0.50588792  1
  O  O221  1  0.36487839  0.75323195  0.00133233  1
  O  O222  1  0.36529370  0.75465444  0.50421114  1
  O  O223  1  0.86715674  0.26280123  0.00226836  1
  O  O224  1  0.88051261  0.26321171  0.51276110  1
  O  O225  1  0.87554589  0.75505357  0.00959021  1
  O  O226  1  0.86909098  0.75280812  0.51004927  1
  O  O227  1  0.12478641  0.24250565  0.49268722  1
  O  O228  1  0.12993033  0.24346878  0.99348294  1
  O  O229  1  0.12976113  0.74416401  0.49881421  1
  O  O230  1  0.13899748  0.75043134  1.00510241  1
  O  O231  1  0.61977412  0.25519873  0.48799552  1
  O  O232  1  0.64046758  0.24362006  0.99621710  1
  O  O233  1  0.63903075  0.74426644  0.51169088  1
  O  O234  1  0.62982648  0.73497850  0.99829015  1
  O  O235  1  0.50285217  0.23354901  0.13366419  1
  O  O236  1  0.49065980  0.24615376  0.62997572  1
  O  O237  1  0.48910296  0.73625713  0.13326547  1
  O  O238  1  0.49471667  0.74319709  0.62768209  1
  O  O239  1  1.00671172  0.24297152  0.13453886  1
  O  O240  1  0.99913779  0.24588331  0.63478621  1
  O  O241  1  0.99748318  0.73502699  0.12276346  1
  O  O242  1  0.98598705  0.76012706  0.63402720  1
  O  O243  1  0.01703339  0.24947363  0.36568810  1
  O  O244  1  0.00437753  0.25949654  0.87723323  1
  O  O245  1  0.01194873  0.75948270  0.38534653  1
  O  O246  1  -0.00622688  0.76085098  0.86460280  1
  O  O247  1  0.49905812  0.25239421  0.36050012  1
  O  O248  1  0.50873845  0.24896030  0.86591663  1
  O  O249  1  0.49135699  0.75260445  0.36664651  1
  O  O250  1  0.50001296  0.73923358  0.86242245  1
  O  O251  1  0.24298616  0.12773815  0.49152862  1
  O  O252  1  0.24220594  0.13535589  0.99556128  1
  O  O253  1  0.24187810  0.63490225  0.49989940  1
  O  O254  1  0.24356686  0.63780696  0.98962767  1
  O  O255  1  0.75645624  0.13570692  0.52939743  1
  O  O256  1  0.75994649  0.13784792  1.01308186  1
  O  O257  1  0.74644230  0.62969829  0.49913131  1
  O  O258  1  0.73741575  0.62367630  1.00605249  1
  O  O259  1  0.24346256  0.36059216  0.00729169  1
  O  O260  1  0.26161975  0.37660521  0.49655110  1
  O  O261  1  0.25584518  0.86403021  0.00253772  1
  O  O262  1  0.25618472  0.86843836  0.50599345  1
  O  O263  1  0.75587030  0.37467481  0.00757952  1
  O  O264  1  0.75826121  0.37093469  0.50989572  1
  O  O265  1  0.76753156  0.86971185  -0.00162951  1
  O  O266  1  0.76228137  0.86389172  0.51021062  1
  O  O267  1  0.12889403  0.49476508  0.24575109  1
  O  O268  1  0.11529067  0.50007541  0.73346466  1
  O  O269  1  0.13163263  0.99833211  0.24185854  1
  O  O270  1  0.12258470  0.98780960  0.74744947  1
  O  O271  1  0.62996055  0.49887923  0.24299392  1
  O  O272  1  0.63692079  0.49441310  0.74299179  1
  O  O273  1  0.61913599  0.98707601  0.27605383  1
  O  O274  1  0.63390877  0.99556434  0.75802054  1
  O  O275  1  0.36411512  0.00654228  0.25781976  1
  O  O276  1  0.38406398  0.00926871  0.75839560  1
  O  O277  1  0.37113035  0.51061356  0.25927451  1
  O  O278  1  0.35749378  0.49940763  0.74302172  1
  O  O279  1  0.88998140  0.00591632  0.25596793  1
  O  O280  1  0.88213253  0.01023531  0.75777055  1
  O  O281  1  0.86642948  0.50735280  0.25140327  1
  O  O282  1  0.87272546  0.50859126  0.75596849  1
  O  O283  1  0.13234417  0.36848420  0.36492419  1
  O  O284  1  0.11245391  0.36777520  0.88500438  1
  O  O285  1  0.11935572  0.86502945  0.37837469  1
  O  O286  1  0.11783920  0.87953964  0.86821106  1
  O  O287  1  0.61807340  0.36211591  0.37179507  1
  O  O288  1  0.62709325  0.37488495  0.86099821  1
  O  O289  1  0.60253442  0.86889014  0.39178990  1
  O  O290  1  0.62979355  0.87192104  0.86208230  1
  O  O291  1  0.36433253  0.12463754  0.13462187  1
  O  O292  1  0.37070586  0.12929192  0.64207929  1
  O  O293  1  0.37917306  0.62686274  0.13284010  1
  O  O294  1  0.38317873  0.63189161  0.62541771  1
  O  O295  1  0.89799842  0.12553895  0.10573425  1
  O  O296  1  0.89441685  0.13327165  0.63797372  1
  O  O297  1  0.88303805  0.62807896  0.13191282  1
  O  O298  1  0.87288494  0.63485956  0.63721785  1
  O  O299  1  0.24360641  0.25907535  0.11306776  1
  O  O300  1  0.26936071  0.24130280  0.61580312  1
  O  O301  1  0.25442811  0.75273960  0.11566666  1
  O  O302  1  0.25409489  0.75882852  0.61505098  1
  O  O303  1  0.74517953  0.26424154  0.11399107  1
  O  O304  1  0.76246176  0.26390441  0.63645882  1
  O  O305  1  0.76492666  0.74245813  0.12268187  1
  O  O306  1  0.76139467  0.75690880  0.62186992  1
  O  O307  1  0.23988553  0.24503885  0.37490493  1
  O  O308  1  0.24154748  0.24373239  0.88989870  1
  O  O309  1  0.24199285  0.75050259  0.38856535  1
  O  O310  1  0.25069375  0.74420849  0.88506471  1
  O  O311  1  0.72896584  0.25033928  0.37070838  1
  O  O312  1  0.75128280  0.25018278  0.89267438  1
  O  O313  1  0.74970833  0.73952635  0.38872945  1
  O  O314  1  0.74879230  0.74667776  0.87464957  1
  O  O315  1  0.01783407  0.13241875  0.00510734  1
  O  O316  1  0.00819022  0.12015125  0.50753449  1
  O  O317  1  0.00076129  0.61840899  0.00824583  1
  O  O318  1  0.00717739  0.61646658  0.50019091  1
  O  O319  1  0.49752633  0.12026671  0.01252345  1
  O  O320  1  0.46171594  0.11297034  0.51147025  1
  O  O321  1  0.50783645  0.63144064  0.01074674  1
  O  O322  1  0.50512027  0.61870831  0.51058567  1
  O  O323  1  0.48967131  0.39056914  0.51094553  1
  O  O324  1  0.51894090  0.37757000  1.00421427  1
  O  O325  1  0.48257308  0.87210170  0.49509072  1
  O  O326  1  0.48465975  0.87819735  0.99634884  1
  O  O327  1  0.98992958  0.38471601  0.50372898  1
  O  O328  1  0.99000174  0.38005827  0.99574962  1
  O  O329  1  0.99672269  0.88403945  0.49906939  1
  O  O330  1  0.99210532  0.86860135  0.98792967  1
  O  O331  1  0.49057540  0.50748089  0.38864055  1
  O  O332  1  0.49003845  0.48339856  0.83821254  1
  O  O333  1  0.48412753  0.98852171  0.37385899  1
  O  O334  1  0.48205008  1.00632276  0.88812943  1
  O  O335  1  0.99873059  0.50109335  0.39030088  1
  O  O336  1  0.99394729  0.49409802  0.88101937  1
  O  O337  1  1.01125449  0.99164997  0.39079061  1
  O  O338  1  0.99353997  0.98990325  0.87485755  1
  O  O339  1  0.01637358  0.00859123  0.12591325  1
  O  O340  1  0.00447875  0.00860666  0.61551542  1
  O  O341  1  0.00542752  0.50615810  0.11971310  1
  O  O342  1  0.01292586  0.49795608  0.61291408  1
  O  O343  1  0.48323079  0.01935255  0.11359104  1
  O  O344  1  0.51635448  -0.00826178  0.61762947  1
  O  O345  1  0.50968794  0.50578564  0.12767594  1
  O  O346  1  0.50884335  0.50976424  0.62387801  1
  O  O347  1  0.24140072  0.38009685  0.24073994  1
  O  O348  1  0.24267147  0.34388845  0.75094126  1
  O  O349  1  0.24822309  0.87858355  0.24144745  1
  O  O350  1  0.23998213  0.86784108  0.74000406  1
  O  O351  1  0.74986439  0.38438205  0.24271857  1
  O  O352  1  0.74901793  0.38306697  0.74572292  1
  O  O353  1  0.74699366  0.85246381  0.26582283  1
  O  O354  1  0.74173062  0.86965096  0.73839003  1
  O  O355  1  0.25122754  0.12023513  0.25360528  1
  O  O356  1  0.25555649  0.14003272  0.76487377  1
  O  O357  1  0.25719555  0.61753053  0.25136254  1
  O  O358  1  0.24390339  0.63516969  0.76257048  1
  O  O359  1  0.77816290  0.14247994  0.20807020  1
  O  O360  1  0.76110939  0.11759766  0.74225959  1
  O  O361  1  0.75628142  0.61693150  0.25557140  1
  O  O362  1  0.75895113  0.61139391  0.74429288  1
  O  O363  1  0.36542144  0.11596434  0.36504331  1
  O  O364  1  0.36883253  0.12150205  0.86633612  1
  O  O365  1  0.37102802  0.61552943  0.36972651  1
  O  O366  1  0.35627681  0.62126129  0.86566893  1
  O  O367  1  0.86411324  0.14252603  0.39318113  1
  O  O368  1  0.88515331  0.11628403  0.86899424  1
  O  O369  1  0.86859228  0.62231680  0.36847015  1
  O  O370  1  0.87949966  0.61202885  0.87029136  1
  O  O371  1  0.12950382  0.38708183  0.13012802  1
  O  O372  1  0.12485782  0.38368686  0.62425771  1
  O  O373  1  0.12901262  0.88173049  0.12601511  1
  O  O374  1  0.13492937  0.88107098  0.63145355  1
  O  O375  1  0.63570241  0.38292578  0.13117811  1
  O  O376  1  0.63615552  0.37805264  0.63301122  1
  O  O377  1  0.57477023  0.88200089  0.13113218  1
  O  O378  1  0.63124641  0.88434623  0.63003183  1
  O  O379  1  0.12072573  0.25966900  0.25530632  1
  O  O380  1  0.11195179  0.24120868  0.77305158  1
  O  O381  1  0.13159581  0.74824357  0.26576822  1
  O  O382  1  0.10987083  0.76290206  0.74170014  1
  O  O383  1  0.60777054  0.25367378  0.25712592  1
  O  O384  1  0.62154383  0.25550778  0.75360651  1
  O  O385  1  0.60909223  0.73508104  0.24947953  1
  O  O386  1  0.61746662  0.75555947  0.74949689  1
  O  O387  1  0.38159246  0.24106714  0.25515887  1
  O  O388  1  0.38617049  0.24439967  0.74515283  1
  O  O389  1  0.37630555  0.73451673  0.24679340  1
  O  O390  1  0.38309892  0.74946159  0.74129275  1
  O  O391  1  0.89298839  0.26683370  0.25144321  1
  O  O392  1  0.88256490  0.24017749  0.75112196  1
  O  O393  1  0.88063204  0.73201523  0.24229513  1
  O  O394  1  0.88171175  0.74423569  0.74536707  1
  O  O395  1  0.38016160  0.49742129  0.49572649  1
  O  O396  1  0.38201129  0.51808987  0.99444019  1
  O  O397  1  0.36490116  0.98702109  0.48313328  1
  O  O398  1  0.37630530  0.98884248  0.99241129  1
  O  O399  1  0.88338476  0.49451594  0.50183081  1
  O  O400  1  0.87668863  0.49333127  0.99397192  1
  O  O401  1  0.88662023  0.98749295  0.50408350  1
  O  O402  1  0.87542210  0.99215072  0.99077605  1
  O  O403  1  0.13522954  0.00997468  0.00897729  1
  O  O404  1  0.12203478  0.01345698  0.50364236  1
  O  O405  1  0.11816298  0.50228021  0.00965053  1
  O  O406  1  0.11830076  0.50778896  0.50445521  1
  O  O407  1  0.60725161  -0.01021728  -0.00547352  1
  O  O408  1  0.61941121  -0.00329310  0.49775688  1
  O  O409  1  0.63046486  0.51051404  0.00977117  1
  O  O410  1  0.61804139  0.50219552  0.50607686  1
  O  O411  1  0.35962903  0.38517945  0.12259558  1
  O  O412  1  0.37142695  0.37011359  0.61985955  1
  O  O413  1  0.37163906  0.86537845  0.11440567  1
  O  O414  1  0.36929341  0.87162839  0.61791201  1
  O  O415  1  0.86218668  0.38181958  0.11708621  1
  O  O416  1  0.87047673  0.37417144  0.62033942  1
  O  O417  1  0.89275205  0.86068737  0.11641893  1
  O  O418  1  0.86916882  0.87161703  0.62082917  1
  O  O419  1  0.12938908  0.13177182  0.38140459  1
  O  O420  1  0.13273817  0.12841409  0.88300731  1
  O  O421  1  0.12645600  0.63297913  0.38647557  1
  O  O422  1  0.13433479  0.62532280  0.87621642  1
  O  O423  1  0.60612618  0.14558623  0.37542228  1
  O  O424  1  0.63925681  0.11483138  0.85783405  1
  O  O425  1  0.63221330  0.61935786  0.38704631  1
  O  O426  1  0.62002232  0.62016265  0.89128279  1
