# generated using pymatgen
data_V85Zn86O256
_symmetry_space_group_name_H-M   'P 1'
_cell_length_a   16.93129969
_cell_length_b   16.93221339
_cell_length_c   16.92568832
_cell_angle_alpha   89.96063484
_cell_angle_beta   89.96288133
_cell_angle_gamma   90.06184238
_symmetry_Int_Tables_number   1
_chemical_formula_structural   V85Zn86O256
_chemical_formula_sum   'V85 Zn86 O256'
_cell_volume   4852.32545697
_cell_formula_units_Z   1
loop_
 _symmetry_equiv_pos_site_id
 _symmetry_equiv_pos_as_xyz
  1  'x, y, z'
loop_
 _atom_site_type_symbol
 _atom_site_label
 _atom_site_symmetry_multiplicity
 _atom_site_fract_x
 _atom_site_fract_y
 _atom_site_fract_z
 _atom_site_occupancy
  V  V0  1  0.25074193  0.50220276  0.24854242  1
  V  V1  1  0.87882450  0.49993800  0.87496558  1
  V  V2  1  0.62394159  0.38136924  0.25196151  1
  V  V3  1  0.62727826  0.87273007  0.25160587  1
  V  V4  1  0.25037512  0.87587107  0.12186114  1
  V  V5  1  0.62363290  0.00219276  0.11418701  1
  V  V6  1  0.74411250  0.75564941  0.49144326  1
  V  V7  1  0.87604554  0.87825312  0.50305393  1
  V  V8  1  0.12385672  0.37193701  0.75356118  1
  V  V9  1  0.12394464  0.24253209  0.88544154  1
  V  V10  1  0.37585077  0.74158650  0.62146402  1
  V  V11  1  0.62363035  0.24050309  0.87698983  1
  V  V12  1  0.50745620  0.74478133  0.74338407  1
  V  V13  1  0.00002976  0.37768141  0.87797045  1
  V  V14  1  0.00682826  0.00703907  0.49877471  1
  V  V15  1  0.37153027  0.23991750  0.63053324  1
  V  V16  1  0.12314803  0.50606591  0.11420233  1
  V  V17  1  0.87537483  0.12538614  0.25779599  1
  V  V18  1  0.86942288  0.24556204  0.62962565  1
  V  V19  1  0.24448527  0.12659105  0.38933505  1
  V  V20  1  0.12247347  0.75132163  0.85696913  1
  V  V21  1  0.75062139  0.62422475  0.87212919  1
  V  V22  1  -0.00600173  0.50299148  0.50682434  1
  V  V23  1  0.00540038  0.12894915  0.62271898  1
  V  V24  1  0.12557735  0.00343605  0.12039037  1
  V  V25  1  0.24786944  0.00026077  0.25091090  1
  V  V26  1  0.36788674  0.86906425  0.49891934  1
  V  V27  1  0.37999544  0.88074561  -0.00539150  1
  V  V28  1  0.50091448  0.12020354  0.11357826  1
  V  V29  1  0.62079804  0.62655699  -0.00245612  1
  V  V30  1  0.37519036  0.49935556  0.87655080  1
  V  V31  1  0.00016703  0.87750173  0.37333760  1
  V  V32  1  0.87415951  0.25044649  0.12669358  1
  V  V33  1  0.00664096  0.00257093  -0.00376254  1
  V  V34  1  0.50065756  0.24204706  0.75060650  1
  V  V35  1  0.12435367  0.37702155  0.25417369  1
  V  V36  1  0.00519298  0.12645831  0.12113990  1
  V  V37  1  0.50453506  0.49978817  0.51812456  1
  V  V38  1  0.74662526  0.01413174  0.74874503  1
  V  V39  1  0.86799184  0.37539652  0.50204217  1
  V  V40  1  0.24275078  0.86473469  0.63092213  1
  V  V41  1  -0.00055862  0.62307261  0.10696422  1
  V  V42  1  0.50938260  0.37468141  0.87069832  1
  V  V43  1  0.87725545  0.00937042  0.86997133  1
  V  V44  1  0.87787315  0.37832994  0.00057940  1
  V  V45  1  -0.00219605  0.37737488  0.37658607  1
  V  V46  1  0.75061663  0.75209890  -0.00161961  1
  V  V47  1  0.74339407  0.24120343  0.00517585  1
  V  V48  1  0.37172698  0.36569759  0.49998918  1
  V  V49  1  -0.00587332  0.73713824  0.25347926  1
  V  V50  1  0.24005241  0.74889953  0.00067684  1
  V  V51  1  0.74475183  0.87469611  0.63702269  1
  V  V52  1  0.50443978  0.37140767  0.37391700  1
  V  V53  1  0.37841030  0.49882347  0.37510476  1
  V  V54  1  0.24692714  0.62481787  0.87964704  1
  V  V55  1  0.12252587  0.87467899  0.24913940  1
  V  V56  1  0.25108272  0.37310308  0.12443885  1
  V  V57  1  0.73834283  0.23679867  0.48689025  1
  V  V58  1  0.00119434  0.25115707  0.25177202  1
  V  V59  1  0.50483267  0.00535354  0.49931895  1
  V  V60  1  0.37878432  0.24803516  0.12883037  1
  V  V61  1  0.24758458  0.36763916  0.62217202  1
  V  V62  1  0.50831669  0.87921047  0.86767899  1
  V  V63  1  0.24879230  0.49838898  0.75085775  1
  V  V64  1  0.37825803  0.00226128  0.86204496  1
  V  V65  1  0.74961423  0.00290968  0.25522562  1
  V  V66  1  -0.00493705  0.63330567  0.63241093  1
  V  V67  1  0.87296625  0.51335402  0.37538232  1
  V  V68  1  0.36888152  0.12638960  0.24836272  1
  V  V69  1  0.50145594  0.86776417  0.37741036  1
  V  V70  1  0.53346603  0.22093858  0.26825253  1
  V  V71  1  0.37791188  0.37103295  -0.00025736  1
  V  V72  1  0.00443702  0.87363595  0.86009546  1
  V  V73  1  0.87974368  0.87519723  0.00018654  1
  V  V74  1  0.50495723  0.74769056  0.24952435  1
  V  V75  1  0.12881835  0.25109666  0.38977987  1
  V  V76  1  0.25051180  0.12193541  0.87465672  1
  V  V77  1  0.12668846  0.00067635  0.63109886  1
  V  V78  1  0.37699181  0.62529567  0.24973200  1
  V  V79  1  0.37632439  0.75064416  0.12059804  1
  V  V80  1  0.73601786  0.37340697  0.63094073  1
  V  V81  1  0.75466894  0.51078387  0.25050328  1
  V  V82  1  0.73592913  0.49438968  0.74998307  1
  V  V83  1  0.74856624  0.37795839  0.12576879  1
  V  V84  1  -0.00603825  0.24498868  0.75367334  1
  Zn  Zn85  1  0.87375626  0.74410482  0.12709638  1
  Zn  Zn86  1  0.12827120  0.63428749  0.50353501  1
  Zn  Zn87  1  0.50051630  0.12342945  0.62676022  1
  Zn  Zn88  1  0.75130813  0.12654471  0.87881744  1
  Zn  Zn89  1  0.37772401  0.62278037  0.74669062  1
  Zn  Zn90  1  0.74383806  0.63814964  0.36981468  1
  Zn  Zn91  1  0.62359201  0.50441879  0.12270672  1
  Zn  Zn92  1  0.62648306  0.00676159  0.62310826  1
  Zn  Zn93  1  0.24635973  0.24050364  0.00468452  1
  Zn  Zn94  1  0.13097646  0.74816878  0.38090356  1
  Zn  Zn95  1  0.11932187  0.49900034  0.62755304  1
  Zn  Zn96  1  0.75159334  0.87581010  0.12346432  1
  Zn  Zn97  1  0.37233201  -0.00098095  0.37606629  1
  Zn  Zn98  1  0.86973964  0.00775162  0.38069041  1
  Zn  Zn99  1  0.87808124  0.63253040  0.75425355  1
  Zn  Zn100  1  0.25264255  0.63597066  0.38990333  1
  Zn  Zn101  1  0.50090311  0.50012728  0.00099725  1
  Zn  Zn102  1  0.62860029  0.75506880  0.86786305  1
  Zn  Zn103  1  0.49981747  0.62385772  0.12206272  1
  Zn  Zn104  1  0.87912265  0.75834105  0.63792266  1
  Zn  Zn105  1  0.25007377  0.00151119  0.74773744  1
  Zn  Zn106  1  0.61940961  0.62543576  0.50544236  1
  Zn  Zn107  1  0.18609050  0.18984557  0.19008092  1
  Zn  Zn108  1  0.18533745  0.18598224  0.69337538  1
  Zn  Zn109  1  0.18484998  0.68831903  0.19745392  1
  Zn  Zn110  1  0.18655204  0.68130269  0.68278125  1
  Zn  Zn111  1  0.68532222  0.18146273  0.19745932  1
  Zn  Zn112  1  0.67901217  0.18809661  0.68605452  1
  Zn  Zn113  1  0.68760365  0.68915851  0.18268002  1
  Zn  Zn114  1  0.68661185  0.68702301  0.68228566  1
  Zn  Zn115  1  0.31083761  0.31096279  0.31456724  1
  Zn  Zn116  1  0.31278750  0.30809731  0.81349701  1
  Zn  Zn117  1  0.31623580  0.81288462  0.31124661  1
  Zn  Zn118  1  0.31594114  0.81055655  0.80813410  1
  Zn  Zn119  1  0.81131295  0.31710409  0.31346259  1
  Zn  Zn120  1  0.80838812  0.31087114  0.81372183  1
  Zn  Zn121  1  0.81811770  0.81947486  0.31154249  1
  Zn  Zn122  1  0.81751099  0.81580701  0.81402158  1
  Zn  Zn123  1  0.19920693  0.46912011  0.45326716  1
  Zn  Zn124  1  0.18994242  0.43235522  0.93832464  1
  Zn  Zn125  1  0.18519883  0.93535751  0.44122036  1
  Zn  Zn126  1  0.18827618  0.93486548  0.93311404  1
  Zn  Zn127  1  0.68695668  0.43817171  0.43797464  1
  Zn  Zn128  1  0.68839775  0.43707480  0.93971093  1
  Zn  Zn129  1  0.68631529  0.93563597  0.43515015  1
  Zn  Zn130  1  0.69081847  0.93833468  0.93368821  1
  Zn  Zn131  1  0.31306989  0.06190931  0.05527465  1
  Zn  Zn132  1  0.31631366  0.05482731  0.56265809  1
  Zn  Zn133  1  0.31361080  0.56266349  0.06162513  1
  Zn  Zn134  1  0.31631422  0.55427394  0.56468607  1
  Zn  Zn135  1  0.81646331  0.06009645  0.06789115  1
  Zn  Zn136  1  0.81520379  0.06581484  0.56411370  1
  Zn  Zn137  1  0.81497328  0.56407275  0.06020101  1
  Zn  Zn138  1  0.78410501  0.58008255  0.58119858  1
  Zn  Zn139  1  0.44227875  0.43781331  0.18634903  1
  Zn  Zn140  1  0.43385510  0.42768120  0.69236049  1
  Zn  Zn141  1  0.43849294  0.93790595  0.18641296  1
  Zn  Zn142  1  0.43744854  0.93058720  0.68398269  1
  Zn  Zn143  1  0.93732710  0.44508841  0.18738657  1
  Zn  Zn144  1  0.92942839  0.43664431  0.69077901  1
  Zn  Zn145  1  0.93636511  0.93872430  0.18635968  1
  Zn  Zn146  1  0.93317946  0.94449158  0.68682583  1
  Zn  Zn147  1  0.06411915  0.06561606  0.31368701  1
  Zn  Zn148  1  0.06408551  0.06548385  0.81014466  1
  Zn  Zn149  1  0.06488614  0.56245293  0.31713311  1
  Zn  Zn150  1  0.06437778  0.56363390  0.81596335  1
  Zn  Zn151  1  0.55903566  0.05113251  0.30995271  1
  Zn  Zn152  1  0.56505982  0.06341342  0.81182805  1
  Zn  Zn153  1  0.56777531  0.56600012  0.32071502  1
  Zn  Zn154  1  0.56152958  0.56507061  0.81372081  1
  Zn  Zn155  1  0.43088850  0.18599436  0.43569152  1
  Zn  Zn156  1  0.43421662  0.18593088  0.93535077  1
  Zn  Zn157  1  0.44191064  0.68353900  0.43875068  1
  Zn  Zn158  1  0.43554893  0.69261649  0.93146528  1
  Zn  Zn159  1  0.93560002  0.19254792  0.44173949  1
  Zn  Zn160  1  0.93648710  0.18911632  0.94198771  1
  Zn  Zn161  1  0.93635824  0.69048123  0.44339755  1
  Zn  Zn162  1  0.93907406  0.69070564  0.93235784  1
  Zn  Zn163  1  0.06160560  0.31751301  0.06501523  1
  Zn  Zn164  1  0.05810810  0.31770800  0.56565434  1
  Zn  Zn165  1  0.06066279  0.81179454  0.06277977  1
  Zn  Zn166  1  0.06470692  0.81182209  0.55855468  1
  Zn  Zn167  1  0.56214591  0.30855573  0.06827218  1
  Zn  Zn168  1  0.56105369  0.30670530  0.56036532  1
  Zn  Zn169  1  0.56291181  0.81501112  0.05964286  1
  Zn  Zn170  1  0.56468000  0.81789695  0.56502627  1
  O  O171  1  0.11299041  0.12174999  0.12979787  1
  O  O172  1  0.11372324  0.12053313  0.62691819  1
  O  O173  1  0.11403855  0.61699131  0.13140696  1
  O  O174  1  0.11110351  0.61808434  0.62311472  1
  O  O175  1  0.61655155  0.11049598  0.13031754  1
  O  O176  1  0.61439146  0.11925511  0.62810185  1
  O  O177  1  0.62459052  0.62602861  0.10933246  1
  O  O178  1  0.67194243  0.60970475  0.60521359  1
  O  O179  1  0.38194350  0.37679353  0.38098354  1
  O  O180  1  0.38060718  0.37724254  0.88425957  1
  O  O181  1  0.38171840  0.87603325  0.38155020  1
  O  O182  1  0.38214590  0.88025975  0.87743173  1
  O  O183  1  0.87974236  0.38060979  0.38472211  1
  O  O184  1  0.87850634  0.37871335  0.88306894  1
  O  O185  1  0.88737855  0.88370063  0.38145555  1
  O  O186  1  0.88363745  0.88586306  0.88466711  1
  O  O187  1  0.24588260  0.00580483  0.36588085  1
  O  O188  1  0.25765647  0.00312867  0.87120796  1
  O  O189  1  0.26644323  0.48859851  0.36084263  1
  O  O190  1  0.25242053  0.50647938  0.87174475  1
  O  O191  1  0.75068037  -0.00299719  0.36106596  1
  O  O192  1  0.75827135  0.00304366  0.86624301  1
  O  O193  1  0.75842491  0.49868472  0.36812006  1
  O  O194  1  0.75492729  0.50537489  0.87053039  1
  O  O195  1  0.24543240  0.49370538  0.13097264  1
  O  O196  1  0.24971348  0.48567754  0.63725580  1
  O  O197  1  0.24432493  0.99693931  0.12886582  1
  O  O198  1  0.24312876  0.99131467  0.62588165  1
  O  O199  1  0.75219866  0.49465507  0.13215371  1
  O  O200  1  0.76229251  0.47951667  0.63728397  1
  O  O201  1  0.74109321  0.99857184  0.13388250  1
  O  O202  1  0.75419279  0.99593965  0.63660418  1
  O  O203  1  0.00656271  0.37300268  0.25389211  1
  O  O204  1  0.00357152  0.36544404  0.75611889  1
  O  O205  1  0.00311156  0.87366804  0.25706566  1
  O  O206  1  -0.00361615  0.88277352  0.76149454  1
  O  O207  1  0.50886519  0.37180192  0.25780467  1
  O  O208  1  0.49459964  0.36304677  0.76437852  1
  O  O209  1  0.50530629  0.86902405  0.25598957  1
  O  O210  1  0.49743574  0.86475862  0.76019036  1
  O  O211  1  0.47979940  0.11901591  0.24266466  1
  O  O212  1  0.49730303  0.13768591  0.75391049  1
  O  O213  1  0.49636375  0.63277007  0.25086949  1
  O  O214  1  0.49697285  0.63978259  0.75341414  1
  O  O215  1  0.99548954  0.13128076  0.24311049  1
  O  O216  1  1.00139280  0.13839814  0.74344893  1
  O  O217  1  1.00079378  0.63631776  0.25023166  1
  O  O218  1  0.99910712  0.61640277  0.73573829  1
  O  O219  1  0.37433346  0.25597933  0.00922309  1
  O  O220  1  0.37800429  0.26017147  0.50719221  1
  O  O221  1  0.36473704  0.75907602  0.00107483  1
  O  O222  1  0.38287131  0.75738944  0.50675674  1
  O  O223  1  0.86744279  0.25836222  0.00787346  1
  O  O224  1  0.86567050  0.25839362  0.50852872  1
  O  O225  1  0.86960000  0.75856304  -0.00186909  1
  O  O226  1  0.87366545  0.76959833  0.50355107  1
  O  O227  1  0.11998529  0.25958154  0.48851405  1
  O  O228  1  0.12489343  0.25819178  0.98923677  1
  O  O229  1  0.12953682  0.74885471  0.49563089  1
  O  O230  1  0.13807101  0.75528383  0.99594925  1
  O  O231  1  0.63884335  0.25048915  0.49940905  1
  O  O232  1  0.63475523  0.25459686  0.99651526  1
  O  O233  1  0.64132322  0.75402787  0.50483856  1
  O  O234  1  0.63457739  0.74606328  0.99578848  1
  O  O235  1  0.50072226  0.23647366  0.14278260  1
  O  O236  1  0.49057156  0.25171032  0.63419648  1
  O  O237  1  0.49347038  0.74979291  0.13021289  1
  O  O238  1  0.49356377  0.75847066  0.63589707  1
  O  O239  1  0.99544943  0.24473024  0.13023445  1
  O  O240  1  0.99413940  0.24606811  0.63300918  1
  O  O241  1  1.00061934  0.73745934  0.13239450  1
  O  O242  1  0.99873914  0.73667183  0.62142369  1
  O  O243  1  0.00561213  0.25817703  0.37056510  1
  O  O244  1  0.00375835  0.25446687  0.87130490  1
  O  O245  1  -0.00218117  0.75798660  0.36551199  1
  O  O246  1  0.01522424  0.75725902  0.87675791  1
  O  O247  1  0.49253302  0.25632179  0.36414477  1
  O  O248  1  0.50501790  0.25456099  0.87216747  1
  O  O249  1  0.49578593  0.75959736  0.36621785  1
  O  O250  1  0.50103268  0.75979955  0.86022735  1
  O  O251  1  0.25305370  0.11690796  0.48785471  1
  O  O252  1  0.24966465  0.12490176  0.98509846  1
  O  O253  1  0.23591235  0.58060620  0.49146610  1
  O  O254  1  0.25472016  0.63305098  0.98789333  1
  O  O255  1  0.75471380  0.13749174  0.49975616  1
  O  O256  1  0.75828988  0.13825780  1.00425090  1
  O  O257  1  0.77220332  0.65458144  0.49153155  1
  O  O258  1  0.74589990  0.63161261  0.98980537  1
  O  O259  1  0.26281450  0.37062587  0.00625648  1
  O  O260  1  0.25786129  0.38257311  0.51159803  1
  O  O261  1  0.25686285  0.86836396  0.00406963  1
  O  O262  1  0.26183477  0.87990009  0.50875173  1
  O  O263  1  0.75853159  0.36868315  0.00854475  1
  O  O264  1  0.75572072  0.37182907  0.51088740  1
  O  O265  1  0.75949584  0.86829241  -0.00238829  1
  O  O266  1  0.75732036  0.87382864  0.50613653  1
  O  O267  1  0.13390399  0.49378454  0.24586713  1
  O  O268  1  0.13506016  0.49166492  0.75283162  1
  O  O269  1  0.13071117  0.99586139  0.24293842  1
  O  O270  1  0.12337195  1.00032691  0.73523777  1
  O  O271  1  0.63291379  0.49390299  0.24787832  1
  O  O272  1  0.63633230  0.49971557  0.75711330  1
  O  O273  1  0.63229639  0.99029337  0.24175953  1
  O  O274  1  0.64324591  1.00054056  0.75297150  1
  O  O275  1  0.36366205  0.00472778  0.25008029  1
  O  O276  1  0.37468687  -0.00486090  0.75858496  1
  O  O277  1  0.37068546  0.50266812  0.25482823  1
  O  O278  1  0.36376167  0.49760326  0.75743225  1
  O  O279  1  0.86837636  0.00813121  0.24995414  1
  O  O280  1  0.86293617  -0.00093135  0.75989940  1
  O  O281  1  0.86527608  0.49376529  0.26202879  1
  O  O282  1  0.86440108  0.49901108  0.76493899  1
  O  O283  1  0.12029369  0.37263897  0.36425898  1
  O  O284  1  0.11895334  0.36826255  0.87164854  1
  O  O285  1  0.11309395  0.87682612  0.36907932  1
  O  O286  1  0.11922535  0.86182226  0.87480109  1
  O  O287  1  0.61382288  0.37813150  0.36672509  1
  O  O288  1  0.61273773  0.36606136  0.88587753  1
  O  O289  1  0.61651093  0.87713871  0.36034756  1
  O  O290  1  0.61167187  0.87490905  0.87757782  1
  O  O291  1  0.37846625  0.12735408  0.12908449  1
  O  O292  1  0.37732860  0.13659623  0.61834780  1
  O  O293  1  0.37633031  0.63286968  0.13068409  1
  O  O294  1  0.36709121  0.63731323  0.62476430  1
  O  O295  1  0.88778589  0.12929920  0.13395956  1
  O  O296  1  0.88615949  0.13887567  0.62291677  1
  O  O297  1  0.89282857  0.62470964  0.11980135  1
  O  O298  1  0.88405774  0.62733795  0.62946796  1
  O  O299  1  0.25551764  0.25598477  0.12453464  1
  O  O300  1  0.25458742  0.25968043  0.63401366  1
  O  O301  1  0.25412464  0.75463586  0.11950918  1
  O  O302  1  0.25616992  0.75880548  0.62851439  1
  O  O303  1  0.75444142  0.25738485  0.12256131  1
  O  O304  1  0.75475620  0.25817735  0.62356460  1
  O  O305  1  0.75472570  0.75210882  0.11170167  1
  O  O306  1  0.75485447  0.76702655  0.61837090  1
  O  O307  1  0.24024386  0.24038842  0.37181862  1
  O  O308  1  0.24101216  0.24212430  0.87738455  1
  O  O309  1  0.24245812  0.74055790  0.34684358  1
  O  O310  1  0.24214166  0.74538905  0.87830126  1
  O  O311  1  0.75358897  0.25421887  0.38842943  1
  O  O312  1  0.74176563  0.24955107  0.88603940  1
  O  O313  1  0.75357777  0.76140844  0.38676051  1
  O  O314  1  0.74960679  0.74391774  0.88256497  1
  O  O315  1  -0.00337549  0.11644010  0.00950005  1
  O  O316  1  -0.00359109  0.11929325  0.50868510  1
  O  O317  1  0.00454997  0.62953488  0.00854337  1
  O  O318  1  -0.00387544  0.61677352  0.51224713  1
  O  O319  1  0.49544385  0.12901774  0.01456344  1
  O  O320  1  0.49275168  0.10715165  0.49281688  1
  O  O321  1  0.50878820  0.62819717  -0.00476211  1
  O  O322  1  0.49856767  0.60489458  0.50187916  1
  O  O323  1  0.49244526  0.37760871  0.49229123  1
  O  O324  1  0.48978295  0.37205755  0.99619322  1
  O  O325  1  0.49411901  0.87852921  0.49226754  1
  O  O326  1  0.49105260  0.86513276  0.98166717  1
  O  O327  1  0.98380866  0.37849880  0.49831155  1
  O  O328  1  0.98509514  0.37150897  0.99733126  1
  O  O329  1  0.99452519  0.88430803  0.49437278  1
  O  O330  1  0.99571892  0.88197165  0.99286702  1
  O  O331  1  0.48934434  0.48874887  0.37388992  1
  O  O332  1  0.49385057  0.49073630  0.87565531  1
  O  O333  1  0.49649280  0.98728698  0.38109054  1
  O  O334  1  0.49505451  0.98772940  0.86854708  1
  O  O335  1  0.99096033  0.49491996  0.38131424  1
  O  O336  1  0.99221575  0.49115010  0.87130403  1
  O  O337  1  1.00106356  0.99608858  0.38277757  1
  O  O338  1  0.99708218  0.99626736  0.87946895  1
  O  O339  1  0.00497747  0.00738367  0.11707921  1
  O  O340  1  0.00445355  0.00953655  0.61981553  1
  O  O341  1  0.00821404  0.51404532  0.12802786  1
  O  O342  1  -0.00675983  0.50519509  0.62045665  1
  O  O343  1  0.51319606  0.00466899  0.12777644  1
  O  O344  1  0.49808887  -0.00364405  0.60994867  1
  O  O345  1  0.50403020  0.50511275  0.11973442  1
  O  O346  1  0.49249353  0.49133747  0.61666140  1
  O  O347  1  0.24358175  0.38117833  0.24399727  1
  O  O348  1  0.24360005  0.37910744  0.74835928  1
  O  O349  1  0.24648039  0.88612658  0.24206068  1
  O  O350  1  0.25432936  0.87725317  0.73329778  1
  O  O351  1  0.74525561  0.38490016  0.24297441  1
  O  O352  1  0.74956087  0.37793057  0.73997448  1
  O  O353  1  0.74319633  0.87986020  0.24513466  1
  O  O354  1  0.75308203  0.88333857  0.73973331  1
  O  O355  1  0.25391046  0.11496297  0.25082602  1
  O  O356  1  0.24547499  0.12083893  0.76611504  1
  O  O357  1  0.25773609  0.61019327  0.24430529  1
  O  O358  1  0.25055441  0.61438773  0.75810968  1
  O  O359  1  0.76472127  0.11578953  0.24352133  1
  O  O360  1  0.75121909  0.11670953  0.75292522  1
  O  O361  1  0.74666762  0.61566591  0.24988828  1
  O  O362  1  0.75052295  0.61811407  0.76298549  1
  O  O363  1  0.36306100  0.12200494  0.36465745  1
  O  O364  1  0.36794408  0.11198338  0.87913933  1
  O  O365  1  0.37355324  0.61448622  0.36974134  1
  O  O366  1  0.36543818  0.61849868  0.87162445  1
  O  O367  1  0.88465121  0.12560057  0.36184328  1
  O  O368  1  0.87522846  0.11297698  0.88099101  1
  O  O369  1  0.87438271  0.61553855  0.37613783  1
  O  O370  1  0.86936566  0.61637401  0.87715900  1
  O  O371  1  0.12786379  0.38230977  0.13689166  1
  O  O372  1  0.13075416  0.37479813  0.63531619  1
  O  O373  1  0.12962730  0.88181218  0.12954128  1
  O  O374  1  0.13807647  0.88096854  0.62012550  1
  O  O375  1  0.63692660  0.38225224  0.12592380  1
  O  O376  1  0.63794960  0.37018495  0.62413097  1
  O  O377  1  0.62416973  0.88467059  0.13279045  1
  O  O378  1  0.64217671  0.88608160  0.62108480  1
  O  O379  1  0.11887030  0.26074069  0.25495960  1
  O  O380  1  0.11563410  0.25523496  0.76193350  1
  O  O381  1  0.10820325  0.75967376  0.24839880  1
  O  O382  1  0.12929662  0.74999422  0.75882638  1
  O  O383  1  0.62712213  0.27512378  0.23310521  1
  O  O384  1  0.61601566  0.25113437  0.76400005  1
  O  O385  1  0.61362809  0.75708306  0.24130003  1
  O  O386  1  0.61310207  0.74784893  0.74697325  1
  O  O387  1  0.37084867  0.23889834  0.24381138  1
  O  O388  1  0.38255780  0.25350647  0.74048547  1
  O  O389  1  0.38807167  0.74770481  0.24099049  1
  O  O390  1  0.38531782  0.74747572  0.74002883  1
  O  O391  1  0.88004719  0.24599228  0.24511717  1
  O  O392  1  0.88211073  0.25497607  0.74364940  1
  O  O393  1  0.89024399  0.75825811  0.24459344  1
  O  O394  1  0.87616607  0.74695025  0.75154413  1
  O  O395  1  0.38551782  0.48647270  0.49293556  1
  O  O396  1  0.37583789  0.49048808  0.99376343  1
  O  O397  1  0.38539285  0.98660911  0.49703396  1
  O  O398  1  0.37225780  0.98490991  0.99023055  1
  O  O399  1  0.87895003  0.49263781  0.49384359  1
  O  O400  1  0.86718076  0.49045917  0.98686610  1
  O  O401  1  0.88507084  0.99475011  0.50037619  1
  O  O402  1  0.88555830  0.99450319  0.99538232  1
  O  O403  1  0.11344013  -0.00542145  0.00236687  1
  O  O404  1  0.11265985  -0.00359925  0.51107895  1
  O  O405  1  0.13064531  0.49298010  0.01534106  1
  O  O406  1  0.09959487  0.48748606  0.50616781  1
  O  O407  1  0.63238394  -0.00453280  0.01548097  1
  O  O408  1  0.60862719  -0.00543207  0.49634081  1
  O  O409  1  0.62385505  0.51215226  -0.00168631  1
  O  O410  1  0.60502924  0.48841020  0.50110333  1
  O  O411  1  0.37323346  0.36789319  0.12024136  1
  O  O412  1  0.36617648  0.36458806  0.61832854  1
  O  O413  1  0.37166599  0.87132072  0.11526778  1
  O  O414  1  0.36496309  0.86454864  0.61726975  1
  O  O415  1  0.86677766  0.37374023  0.12083516  1
  O  O416  1  0.87063047  0.36268698  0.61882979  1
  O  O417  1  0.87603007  0.87456016  0.11058459  1
  O  O418  1  0.86525537  0.87978629  0.61840410  1
  O  O419  1  0.13302965  0.13837713  0.36962772  1
  O  O420  1  0.12974976  0.13370673  0.87524252  1
  O  O421  1  0.13013654  0.62517526  0.38145395  1
  O  O422  1  0.13225389  0.63909042  0.87287449  1
  O  O423  1  0.60736264  0.15328658  0.30536473  1
  O  O424  1  0.62683186  0.13618762  0.87977105  1
  O  O425  1  0.63324476  0.61988901  0.39128938  1
  O  O426  1  0.63327282  0.62977169  0.88235128  1
