# generated using pymatgen
data_V85Zn86O256
_symmetry_space_group_name_H-M   'P 1'
_cell_length_a   16.93596559
_cell_length_b   16.93479862
_cell_length_c   16.94667115
_cell_angle_alpha   89.93082728
_cell_angle_beta   90.06323043
_cell_angle_gamma   89.99480379
_symmetry_Int_Tables_number   1
_chemical_formula_structural   V85Zn86O256
_chemical_formula_sum   'V85 Zn86 O256'
_cell_volume   4860.42021789
_cell_formula_units_Z   1
loop_
 _symmetry_equiv_pos_site_id
 _symmetry_equiv_pos_as_xyz
  1  'x, y, z'
loop_
 _atom_site_type_symbol
 _atom_site_label
 _atom_site_symmetry_multiplicity
 _atom_site_fract_x
 _atom_site_fract_y
 _atom_site_fract_z
 _atom_site_occupancy
  V  V0  1  0.37291553  0.25496076  0.62367095  1
  V  V1  1  0.37839729  -0.00230121  0.87333902  1
  V  V2  1  0.87772076  0.62301921  0.74860288  1
  V  V3  1  0.50329430  0.61497535  0.12553143  1
  V  V4  1  0.12655658  0.62335881  -0.00043679  1
  V  V5  1  0.62147015  0.24065694  0.38717095  1
  V  V6  1  0.88265644  0.49514269  0.38159924  1
  V  V7  1  0.61642103  0.01316284  0.10890919  1
  V  V8  1  0.76595655  0.11951197  0.37294166  1
  V  V9  1  -0.00380370  -0.00605781  0.50442213  1
  V  V10  1  0.23574862  0.24807618  -0.00406432  1
  V  V11  1  0.50412693  0.00392957  0.49849434  1
  V  V12  1  0.00136017  0.24661868  0.75843109  1
  V  V13  1  -0.00451790  0.12802040  0.62517101  1
  V  V14  1  0.38633198  0.21480380  0.09763105  1
  V  V15  1  0.12748719  0.36814902  0.75362348  1
  V  V16  1  0.00055586  0.49701120  0.00390784  1
  V  V17  1  0.23809954  0.12593229  0.87754514  1
  V  V18  1  -0.00114895  0.87994482  0.35897111  1
  V  V19  1  0.24648573  0.87888555  0.13012873  1
  V  V20  1  0.25656748  0.50182562  0.25674694  1
  V  V21  1  0.01074243  0.12645163  0.12411786  1
  V  V22  1  0.87131856  0.36770733  0.00413174  1
  V  V23  1  0.50132936  0.12664054  0.62098113  1
  V  V24  1  0.49344813  0.24853964  0.25808757  1
  V  V25  1  0.50203806  0.87312882  0.37461802  1
  V  V26  1  0.24308681  0.50023733  0.74571787  1
  V  V27  1  0.62826004  0.61745258  0.00488406  1
  V  V28  1  0.87916820  0.49379860  0.87382956  1
  V  V29  1  0.75246180  0.49583300  0.74655058  1
  V  V30  1  0.87230691  0.00247555  0.87753470  1
  V  V31  1  -0.00476512  0.24660376  0.25105753  1
  V  V32  1  0.37499236  0.12404213  0.25870970  1
  V  V33  1  0.49892002  0.39058125  0.38203920  1
  V  V34  1  0.37805391  0.37814666  -0.00292353  1
  V  V35  1  0.24145086  0.12413722  0.37740083  1
  V  V36  1  0.86799297  0.23811679  0.12779505  1
  V  V37  1  0.12692020  0.75268707  0.87069741  1
  V  V38  1  0.12368509  0.37401507  0.25228994  1
  V  V39  1  0.38055926  0.87508531  0.00048430  1
  V  V40  1  0.26035130  0.62884041  0.38232689  1
  V  V41  1  0.11544203  0.62198722  0.49146018  1
  V  V42  1  0.25258647  0.74955274  0.00240733  1
  V  V43  1  0.63109456  0.87371158  0.75087178  1
  V  V44  1  0.62369730  0.37926667  0.25064735  1
  V  V45  1  0.24606827  0.87325199  0.61787651  1
  V  V46  1  0.75348110  0.62626090  0.88046979  1
  V  V47  1  0.37620065  0.38990457  0.49731898  1
  V  V48  1  0.75083583  0.87624113  0.62592472  1
  V  V49  1  0.62628393  0.74852421  0.88311201  1
  V  V50  1  0.50130656  0.62155247  0.62107844  1
  V  V51  1  0.86947031  0.13128733  0.74608435  1
  V  V52  1  0.62604154  0.00524274  0.62378238  1
  V  V53  1  0.74956089  0.50128820  0.24178852  1
  V  V54  1  0.50215608  0.74954853  0.24718861  1
  V  V55  1  0.76195496  0.37144218  0.61854872  1
  V  V56  1  0.00468373  0.61112420  0.62191660  1
  V  V57  1  0.12398348  0.12041407  0.51021685  1
  V  V58  1  0.37323253  -0.00245868  0.37748737  1
  V  V59  1  0.76279055  0.24901010  0.50195532  1
  V  V60  1  0.62351877  0.49737194  0.61815364  1
  V  V61  1  0.50088527  0.25426237  0.75250959  1
  V  V62  1  0.62430214  0.62290794  0.49915857  1
  V  V63  1  0.37158400  0.74832150  0.61829732  1
  V  V64  1  0.75263432  0.75120344  0.49838015  1
  V  V65  1  0.25249777  0.62361323  0.87447284  1
  V  V66  1  0.12304168  0.87850000  0.74349019  1
  V  V67  1  0.62337358  0.37273278  0.75245475  1
  V  V68  1  0.75335952  0.86662563  0.11527329  1
  V  V69  1  0.37517291  0.62389993  0.74811979  1
  V  V70  1  0.87622171  0.63332705  0.24431360  1
  V  V71  1  0.75439476  0.62476354  0.37375303  1
  V  V72  1  0.24709123  0.25454605  0.50064262  1
  V  V73  1  0.62951416  0.88230450  0.24710625  1
  V  V74  1  0.37376163  0.87212806  0.50008745  1
  V  V75  1  0.00903856  0.00462074  -0.00221767  1
  V  V76  1  0.50148942  0.87612438  0.87638831  1
  V  V77  1  -0.00264210  0.63762251  0.12146769  1
  V  V78  1  0.37254224  0.12506813  0.74644560  1
  V  V79  1  0.50110772  0.74891518  0.74784768  1
  V  V80  1  0.24783588  0.00020724  0.74270682  1
  V  V81  1  0.73672328  0.13269752  0.88243673  1
  V  V82  1  0.87866979  0.75321228  0.62741079  1
  V  V83  1  0.38495383  0.49655637  0.87242609  1
  V  V84  1  0.25640979  0.37414746  0.12541490  1
  Zn  Zn85  1  0.50865756  0.49152283  0.00144090  1
  Zn  Zn86  1  0.12669074  0.75572535  0.37063016  1
  Zn  Zn87  1  0.37692705  0.74744755  0.12666895  1
  Zn  Zn88  1  -0.00533471  0.37575360  0.38665588  1
  Zn  Zn89  1  0.87121278  0.88359540  0.49370417  1
  Zn  Zn90  1  0.00796576  0.36221805  0.88321024  1
  Zn  Zn91  1  0.74373770  0.37358497  0.12438456  1
  Zn  Zn92  1  0.12365510  -0.00077916  0.13166123  1
  Zn  Zn93  1  0.37938211  0.61984036  0.25215602  1
  Zn  Zn94  1  0.75680388  0.00805475  0.24380488  1
  Zn  Zn95  1  -0.00055542  0.87641937  0.87446343  1
  Zn  Zn96  1  0.87911167  0.86503709  0.00819169  1
  Zn  Zn97  1  0.12753331  0.50102513  0.12601580  1
  Zn  Zn98  1  0.11902865  0.25359449  0.38038364  1
  Zn  Zn99  1  0.72669743  0.24578554  0.00443828  1
  Zn  Zn100  1  0.00213202  0.75084719  0.74675792  1
  Zn  Zn101  1  0.24179376  0.38329047  0.61939466  1
  Zn  Zn102  1  0.56213979  0.31172765  0.91883287  1
  Zn  Zn103  1  0.62963928  0.75201006  0.37337578  1
  Zn  Zn104  1  0.00353878  0.75785896  0.24260643  1
  Zn  Zn105  1  0.24046473  -0.00873504  0.26002400  1
  Zn  Zn106  1  0.74985301  0.00448470  0.75093022  1
  Zn  Zn107  1  0.19016954  0.18966498  0.18771059  1
  Zn  Zn108  1  0.18487993  0.19087140  0.68786600  1
  Zn  Zn109  1  0.18441942  0.68881290  0.19105497  1
  Zn  Zn110  1  0.18670844  0.68787533  0.68268573  1
  Zn  Zn111  1  0.68184713  0.18794615  0.19174057  1
  Zn  Zn112  1  0.68727948  0.18979254  0.68652143  1
  Zn  Zn113  1  0.68738928  0.69114186  0.18598016  1
  Zn  Zn114  1  0.69149388  0.68654753  0.69016462  1
  Zn  Zn115  1  0.31157693  0.31556747  0.31897374  1
  Zn  Zn116  1  0.31082596  0.31231271  0.81482516  1
  Zn  Zn117  1  0.31463754  0.80688652  0.31158464  1
  Zn  Zn118  1  0.31166879  0.81212832  0.80821398  1
  Zn  Zn119  1  0.81041034  0.31151049  0.31258249  1
  Zn  Zn120  1  0.81220675  0.30927969  0.81307750  1
  Zn  Zn121  1  0.81835593  0.81998477  0.30971926  1
  Zn  Zn122  1  0.82841949  0.79884383  0.84010535  1
  Zn  Zn123  1  0.17855914  0.44342367  0.43884948  1
  Zn  Zn124  1  0.18953209  0.43676091  0.93424101  1
  Zn  Zn125  1  0.17879925  0.93878676  0.44001673  1
  Zn  Zn126  1  0.19024306  0.93801311  0.93616567  1
  Zn  Zn127  1  0.69249004  0.43612619  0.43245596  1
  Zn  Zn128  1  0.69413535  0.43858128  0.93746022  1
  Zn  Zn129  1  0.68685489  0.93923690  0.43703456  1
  Zn  Zn130  1  0.68735837  0.94450294  0.94061979  1
  Zn  Zn131  1  0.32101432  0.06185088  0.05641492  1
  Zn  Zn132  1  0.31330399  0.06201070  0.56152439  1
  Zn  Zn133  1  0.31624348  0.56037046  0.06659654  1
  Zn  Zn134  1  0.30510269  0.56561963  0.56053628  1
  Zn  Zn135  1  0.80874739  0.05681340  0.06227254  1
  Zn  Zn136  1  0.81188636  0.06881234  0.55978593  1
  Zn  Zn137  1  0.81492955  0.56151047  0.06256980  1
  Zn  Zn138  1  0.81387538  0.56248179  0.56192604  1
  Zn  Zn139  1  0.43720175  0.43497921  0.18946269  1
  Zn  Zn140  1  0.43788953  0.43806241  0.68417014  1
  Zn  Zn141  1  0.43646318  0.93957039  0.18749243  1
  Zn  Zn142  1  0.43903751  0.93550113  0.68706443  1
  Zn  Zn143  1  0.93424583  0.43717830  0.18906928  1
  Zn  Zn144  1  0.94324663  0.43017199  0.68605078  1
  Zn  Zn145  1  0.92596710  0.95154232  0.18707776  1
  Zn  Zn146  1  0.93767538  0.94341281  0.68760175  1
  Zn  Zn147  1  0.05781012  0.05994369  0.31334711  1
  Zn  Zn148  1  0.06112553  0.05979621  0.80871160  1
  Zn  Zn149  1  0.06381355  0.56349056  0.30666866  1
  Zn  Zn150  1  0.06301931  0.56076370  0.81166534  1
  Zn  Zn151  1  0.56439759  0.06257795  0.30894113  1
  Zn  Zn152  1  0.56052187  0.06290108  0.80915897  1
  Zn  Zn153  1  0.56704185  0.56466394  0.31351248  1
  Zn  Zn154  1  0.56554416  0.56093154  0.80930380  1
  Zn  Zn155  1  0.43502616  0.18985113  0.43925919  1
  Zn  Zn156  1  0.42670179  0.18457823  0.93115687  1
  Zn  Zn157  1  0.44056034  0.68689270  0.43604857  1
  Zn  Zn158  1  0.44126204  0.68470270  0.93913272  1
  Zn  Zn159  1  0.94067586  0.19337543  0.44003042  1
  Zn  Zn160  1  0.93282724  0.18262527  0.93879123  1
  Zn  Zn161  1  0.93831361  0.69170380  0.43415302  1
  Zn  Zn162  1  0.93986563  0.68853365  0.93866110  1
  Zn  Zn163  1  0.06143377  0.31370849  0.06939872  1
  Zn  Zn164  1  0.05971347  0.31502446  0.57116524  1
  Zn  Zn165  1  0.06519833  0.81743315  0.05696622  1
  Zn  Zn166  1  0.06607650  0.80471323  0.55685541  1
  Zn  Zn167  1  0.55783190  0.30582580  0.07953898  1
  Zn  Zn168  1  0.56252640  0.31629105  0.56308344  1
  Zn  Zn169  1  0.56589996  0.81264746  0.06582042  1
  Zn  Zn170  1  0.56326530  0.81251514  0.56183709  1
  O  O171  1  0.11367684  0.12947706  0.12233163  1
  O  O172  1  0.12023479  0.12688164  0.61603319  1
  O  O173  1  0.11766466  0.62231401  0.11465974  1
  O  O174  1  0.10906692  0.63195539  0.61842506  1
  O  O175  1  0.62438084  0.11239204  0.12898890  1
  O  O176  1  0.61960908  0.11168720  0.63031559  1
  O  O177  1  0.62023604  0.62945289  0.11422221  1
  O  O178  1  0.62458438  0.61755670  0.61896634  1
  O  O179  1  0.38652706  0.37257725  0.38573852  1
  O  O180  1  0.36999832  0.38583826  0.88242734  1
  O  O181  1  0.37911289  0.87749695  0.38127424  1
  O  O182  1  0.37934194  0.87846030  0.87752113  1
  O  O183  1  0.87419418  0.39130246  0.36728726  1
  O  O184  1  0.87817957  0.37976962  0.88265806  1
  O  O185  1  0.89156698  0.87471525  0.37986755  1
  O  O186  1  0.88069459  0.89938158  0.85558348  1
  O  O187  1  0.25413705  0.00705899  0.38069846  1
  O  O188  1  0.25938267  0.00148190  0.86353124  1
  O  O189  1  0.24456790  0.51509183  0.36751923  1
  O  O190  1  0.26029235  0.50669535  0.86605874  1
  O  O191  1  0.74733212  0.01840154  0.38329419  1
  O  O192  1  0.75558663  0.01020879  0.87236629  1
  O  O193  1  0.75813269  0.50741071  0.36494137  1
  O  O194  1  0.76267233  0.50512264  0.86857292  1
  O  O195  1  0.24861994  0.49016409  0.13113031  1
  O  O196  1  0.25694006  0.49994262  0.64162650  1
  O  O197  1  0.25297135  0.98453410  0.11919803  1
  O  O198  1  0.25703422  0.99176836  0.63572677  1
  O  O199  1  0.75388476  0.49716762  0.13772266  1
  O  O200  1  0.74533659  0.49260307  0.62808112  1
  O  O201  1  0.73519513  0.99325045  0.12506041  1
  O  O202  1  0.74144738  0.99640947  0.62437799  1
  O  O203  1  0.00922005  0.36658271  0.24687601  1
  O  O204  1  0.00915982  0.36498676  0.75433952  1
  O  O205  1  -0.00427427  0.88062320  0.25674432  1
  O  O206  1  0.01077414  0.87416735  0.74897749  1
  O  O207  1  0.50198301  0.36942003  0.26225415  1
  O  O208  1  0.50814834  0.36610010  0.74305414  1
  O  O209  1  0.50656957  0.86877237  0.25480336  1
  O  O210  1  0.51059056  0.86934025  0.75482314  1
  O  O211  1  0.48719588  0.13365120  0.26044052  1
  O  O212  1  0.49210303  0.13161147  0.74081245  1
  O  O213  1  0.50399192  0.63144032  0.24389084  1
  O  O214  1  0.49505346  0.62899023  0.74201696  1
  O  O215  1  1.00302556  0.13922678  0.24172295  1
  O  O216  1  0.99412301  0.12814760  0.74420104  1
  O  O217  1  0.99238711  0.62178626  0.23486979  1
  O  O218  1  0.99721353  0.62637727  0.73830166  1
  O  O219  1  0.36473819  0.26693308  -0.00399031  1
  O  O220  1  0.36406757  0.25568945  0.50694385  1
  O  O221  1  0.36452831  0.75385843  -0.00338103  1
  O  O222  1  0.38107592  0.75492842  0.51077622  1
  O  O223  1  0.87598395  0.25901203  0.00748327  1
  O  O224  1  0.86136051  0.25370825  0.49885473  1
  O  O225  1  0.86710446  0.76964649  -0.05172118  1
  O  O226  1  0.86462945  0.74997442  0.50860741  1
  O  O227  1  0.13769950  0.24330532  0.50446147  1
  O  O228  1  0.13693617  0.25890383  1.00244988  1
  O  O229  1  0.12570342  0.73068258  0.49460998  1
  O  O230  1  0.13717822  0.74709006  0.99116995  1
  O  O231  1  0.62693698  0.25302335  0.48897457  1
  O  O232  1  0.61361363  0.25468170  0.99950830  1
  O  O233  1  0.63838622  0.74410104  0.50266844  1
  O  O234  1  0.62107695  0.74057057  0.98702398  1
  O  O235  1  0.47666199  0.25399855  0.14254567  1
  O  O236  1  0.49265195  0.24618566  0.63010967  1
  O  O237  1  0.50124005  0.74057325  0.13208311  1
  O  O238  1  0.49411880  0.74389656  0.62934030  1
  O  O239  1  0.99222212  0.24296122  0.12963783  1
  O  O240  1  1.00777300  0.23583301  0.64098540  1
  O  O241  1  1.00106717  0.74118762  0.11644301  1
  O  O242  1  0.98704033  0.74456018  0.62352019  1
  O  O243  1  0.00039400  0.25418328  0.36456756  1
  O  O244  1  -0.00281497  0.24424270  0.86421454  1
  O  O245  1  0.00013082  0.76797228  0.37511302  1
  O  O246  1  0.01854852  0.74905296  0.87017882  1
  O  O247  1  0.50822595  0.25632525  0.37587253  1
  O  O248  1  0.48963416  0.24529958  0.85824360  1
  O  O249  1  0.50513281  0.75565227  0.36724420  1
  O  O250  1  0.50816270  0.75304609  0.86725544  1
  O  O251  1  0.24417150  0.12973930  0.49553961  1
  O  O252  1  0.25366337  0.13427427  0.99001695  1
  O  O253  1  0.24510825  0.62820361  0.48612452  1
  O  O254  1  0.24775010  0.63100357  0.99664651  1
  O  O255  1  0.75003344  0.14019065  0.49109326  1
  O  O256  1  0.75247145  0.12725268  0.98594249  1
  O  O257  1  0.74289771  0.63281912  0.49729472  1
  O  O258  1  0.74621374  0.61936984  0.98790698  1
  O  O259  1  0.25485820  0.37209922  0.00764860  1
  O  O260  1  0.25366282  0.37005025  0.49975073  1
  O  O261  1  0.25939822  0.86644231  0.00378389  1
  O  O262  1  0.25436405  0.88235715  0.51198039  1
  O  O263  1  0.75733991  0.37043850  0.00348714  1
  O  O264  1  0.74361835  0.36220820  0.50593880  1
  O  O265  1  0.74933729  0.87820423  0.01164872  1
  O  O266  1  0.75130132  0.86831550  0.50607508  1
  O  O267  1  0.13563157  0.49219066  0.24620131  1
  O  O268  1  0.13397911  0.49085485  0.75479913  1
  O  O269  1  0.13083218  1.01013678  0.24472467  1
  O  O270  1  0.13409488  0.98792470  0.75109856  1
  O  O271  1  0.63662126  0.49210391  0.25865768  1
  O  O272  1  0.63239146  0.49518157  0.73869777  1
  O  O273  1  0.63164961  0.98951000  0.25150516  1
  O  O274  1  0.62448000  0.99042386  0.74126649  1
  O  O275  1  0.36960452  0.00525494  0.26172403  1
  O  O276  1  0.36790150  0.00211598  0.75270494  1
  O  O277  1  0.36108229  0.49835821  0.24847966  1
  O  O278  1  0.37095766  0.50469510  0.75582967  1
  O  O279  1  0.86692501  0.01030117  0.25655925  1
  O  O280  1  0.87286948  0.01649632  0.75311910  1
  O  O281  1  0.86718797  0.51037120  0.25451543  1
  O  O282  1  0.87461342  0.50058955  0.75757446  1
  O  O283  1  0.12708945  0.37463499  0.36160311  1
  O  O284  1  0.12234424  0.37944760  0.86188642  1
  O  O285  1  0.10552556  0.87382508  0.38300464  1
  O  O286  1  0.12756316  0.86793755  0.86520554  1
  O  O287  1  0.61729989  0.36684355  0.37008706  1
  O  O288  1  0.62633354  0.38564186  0.85811903  1
  O  O289  1  0.62049874  0.87369504  0.36704168  1
  O  O290  1  0.62317449  0.86798045  0.86975731  1
  O  O291  1  0.34816630  0.12453704  0.15530938  1
  O  O292  1  0.37802203  0.13621329  0.62765469  1
  O  O293  1  0.38716128  0.62782784  0.12744151  1
  O  O294  1  0.37876368  0.63183134  0.62672682  1
  O  O295  1  0.88118197  0.13574825  0.11696122  1
  O  O296  1  0.88178994  0.12616184  0.63335586  1
  O  O297  1  0.88446122  0.62274029  0.12974308  1
  O  O298  1  0.88397522  0.63021369  0.62845583  1
  O  O299  1  0.26533752  0.25261298  0.11460803  1
  O  O300  1  0.25793177  0.25331823  0.61907404  1
  O  O301  1  0.25347209  0.75723340  0.11662164  1
  O  O302  1  0.26177046  0.75883126  0.62927483  1
  O  O303  1  0.75444417  0.25052558  0.12485024  1
  O  O304  1  0.74253976  0.25606829  0.60918365  1
  O  O305  1  0.74448382  0.76700011  0.12265520  1
  O  O306  1  0.76016118  0.75307894  0.62043052  1
  O  O307  1  0.24668151  0.24336061  0.38654379  1
  O  O308  1  0.25441824  0.23829042  0.88280116  1
  O  O309  1  0.24752496  0.73273751  0.36717951  1
  O  O310  1  0.24397733  0.74516804  0.87926811  1
  O  O311  1  0.73965011  0.24669743  0.38438399  1
  O  O312  1  0.75019728  0.23686644  0.87808239  1
  O  O313  1  0.75289461  0.74576277  0.38362309  1
  O  O314  1  0.73518382  0.73377529  0.85850131  1
  O  O315  1  -0.00339511  0.11283489  0.00684776  1
  O  O316  1  0.00567858  0.12265550  0.50682635  1
  O  O317  1  0.00389646  0.61803214  0.00319053  1
  O  O318  1  0.00574445  0.62482630  0.50767114  1
  O  O319  1  0.42414485  0.13707811  0.03351145  1
  O  O320  1  0.49337336  0.11500132  0.50690564  1
  O  O321  1  0.50992014  0.62155778  0.00806650  1
  O  O322  1  0.51695584  0.63112054  0.50397451  1
  O  O323  1  0.49052141  0.37276972  0.49287079  1
  O  O324  1  0.49137824  0.37472643  1.00014830  1
  O  O325  1  0.49495302  0.88054430  0.49454873  1
  O  O326  1  0.48834431  0.86312516  0.99225425  1
  O  O327  1  1.01003612  0.37218417  0.49557277  1
  O  O328  1  0.99402102  0.38127518  1.00041932  1
  O  O329  1  0.99803973  0.88908227  0.51178264  1
  O  O330  1  0.99719003  0.88772420  0.99573177  1
  O  O331  1  0.50502670  0.48972745  0.37539877  1
  O  O332  1  0.48818248  0.50617031  0.87568358  1
  O  O333  1  0.49618948  0.99479522  0.38243001  1
  O  O334  1  0.48681166  0.99336490  0.86613455  1
  O  O335  1  0.98594112  0.49948106  0.36581216  1
  O  O336  1  0.99032709  0.50137498  0.88529298  1
  O  O337  1  1.00232046  0.98940638  0.38998960  1
  O  O338  1  0.99407270  1.00457722  0.88519235  1
  O  O339  1  0.00062377  0.00769220  0.11414393  1
  O  O340  1  -0.00007188  0.01480530  0.61713074  1
  O  O341  1  0.00035079  0.50474928  0.11255164  1
  O  O342  1  -0.00377645  0.51311395  0.62711157  1
  O  O343  1  0.51826531  -0.00609993  0.13258005  1
  O  O344  1  0.50544985  0.00385969  0.61831786  1
  O  O345  1  0.49879854  0.51077281  0.12538916  1
  O  O346  1  0.51222731  0.50758572  0.62763819  1
  O  O347  1  0.24686884  0.37806744  0.24451710  1
  O  O348  1  0.24137089  0.38129311  0.75172295  1
  O  O349  1  0.26031702  0.87415822  0.23349211  1
  O  O350  1  0.24623069  0.88167968  0.73931041  1
  O  O351  1  0.74029173  0.38282954  0.25185693  1
  O  O352  1  0.74335431  0.37627185  0.74213556  1
  O  O353  1  0.74233161  0.87505535  0.24211958  1
  O  O354  1  0.73789797  0.87565637  0.74638235  1
  O  O355  1  0.25084063  0.13064576  0.27053900  1
  O  O356  1  0.25377447  0.11734762  0.75122469  1
  O  O357  1  0.25358008  0.61647392  0.25634616  1
  O  O358  1  0.25446721  0.61928187  0.75336921  1
  O  O359  1  0.74197111  0.12885773  0.27075166  1
  O  O360  1  0.75548583  0.12760207  0.75622719  1
  O  O361  1  0.75566163  0.62114495  0.25222823  1
  O  O362  1  0.75732812  0.61416488  0.75594797  1
  O  O363  1  0.36506184  0.11871271  0.37468577  1
  O  O364  1  0.36612052  0.11313530  0.86293803  1
  O  O365  1  0.36475233  0.62514042  0.37479409  1
  O  O366  1  0.37085232  0.62042548  0.86832279  1
  O  O367  1  0.86412275  0.13160386  0.37758719  1
  O  O368  1  0.86590106  0.11743724  0.86737868  1
  O  O369  1  0.87227678  0.61939295  0.36582232  1
  O  O370  1  0.86991423  0.61496041  0.86907259  1
  O  O371  1  0.13843007  0.37405794  0.13535808  1
  O  O372  1  0.12816795  0.37177123  0.64643346  1
  O  O373  1  0.14354101  0.87543695  0.11822408  1
  O  O374  1  0.13488974  0.86591300  0.63098224  1
  O  O375  1  0.62211852  0.37334092  0.14598641  1
  O  O376  1  0.63108729  0.38303926  0.63150558  1
  O  O377  1  0.63303571  0.88082715  0.13088102  1
  O  O378  1  0.62892339  0.88237658  0.63196720  1
  O  O379  1  0.11826781  0.25806369  0.25114367  1
  O  O380  1  0.12066263  0.25899233  0.75559376  1
  O  O381  1  0.11481332  0.74436182  0.25575872  1
  O  O382  1  0.12873704  0.75973548  0.75526052  1
  O  O383  1  0.61095300  0.25562479  0.26141476  1
  O  O384  1  0.61430046  0.26020287  0.74381592  1
  O  O385  1  0.61692941  0.76086666  0.25047589  1
  O  O386  1  0.61926507  0.75559174  0.75369436  1
  O  O387  1  0.38423685  0.24211422  0.26536655  1
  O  O388  1  0.37835595  0.24840057  0.74035430  1
  O  O389  1  0.39164525  0.74705256  0.24874651  1
  O  O390  1  0.38069919  0.74402989  0.74064881  1
  O  O391  1  0.88227660  0.25678116  0.23925156  1
  O  O392  1  0.88319090  0.23954835  0.75313557  1
  O  O393  1  0.88101162  0.73698720  0.25269684  1
  O  O394  1  0.87715448  0.74141275  0.74438307  1
  O  O395  1  0.37104993  0.48870593  0.50757689  1
  O  O396  1  0.37623275  0.49191972  0.99149069  1
  O  O397  1  0.38523168  0.99283200  0.49755724  1
  O  O398  1  0.37038854  0.98489194  0.98535444  1
  O  O399  1  0.86908710  0.50681063  0.47995045  1
  O  O400  1  0.88028935  0.48909166  0.99402881  1
  O  O401  1  0.89085731  1.00276772  0.50542672  1
  O  O402  1  0.88247598  0.99646415  0.99074779  1
  O  O403  1  0.11210029  -0.00401573  0.00097436  1
  O  O404  1  0.11112431  0.01016632  0.50272416  1
  O  O405  1  0.11690499  0.50444408  -0.00085664  1
  O  O406  1  0.13745683  0.52320096  0.50920229  1
  O  O407  1  0.61700623  0.00280241  0.00814433  1
  O  O408  1  0.61178387  -0.00645474  0.50906286  1
  O  O409  1  0.62529907  0.51216051  -0.00641454  1
  O  O410  1  0.63477559  0.50807693  0.50933531  1
  O  O411  1  0.36564433  0.37719301  0.11624273  1
  O  O412  1  0.37311092  0.36588061  0.61834920  1
  O  O413  1  0.36960974  0.87162006  0.11489291  1
  O  O414  1  0.37013078  0.86667386  0.62068396  1
  O  O415  1  0.87227497  0.36645715  0.11727256  1
  O  O416  1  0.86093393  0.37682235  0.62933717  1
  O  O417  1  0.85923031  0.87853375  0.12368898  1
  O  O418  1  0.86765619  0.86834481  0.62696818  1
  O  O419  1  0.12798820  0.12859084  0.38998889  1
  O  O420  1  0.13954858  0.11626209  0.86966289  1
  O  O421  1  0.12748539  0.62330259  0.38322518  1
  O  O422  1  0.13263354  0.63122333  0.87897924  1
  O  O423  1  0.62235115  0.13967701  0.37662227  1
  O  O424  1  0.63823291  0.12061388  0.86835953  1
  O  O425  1  0.63464298  0.62885041  0.38386840  1
  O  O426  1  0.63237309  0.62908432  0.87913403  1
