# generated using pymatgen
data_V85Zn86O256
_symmetry_space_group_name_H-M   'P 1'
_cell_length_a   16.92367130
_cell_length_b   16.92155252
_cell_length_c   16.92334522
_cell_angle_alpha   89.92179342
_cell_angle_beta   89.97141399
_cell_angle_gamma   89.98818166
_symmetry_Int_Tables_number   1
_chemical_formula_structural   V85Zn86O256
_chemical_formula_sum   'V85 Zn86 O256'
_cell_volume   4846.41426045
_cell_formula_units_Z   1
loop_
 _symmetry_equiv_pos_site_id
 _symmetry_equiv_pos_as_xyz
  1  'x, y, z'
loop_
 _atom_site_type_symbol
 _atom_site_label
 _atom_site_symmetry_multiplicity
 _atom_site_fract_x
 _atom_site_fract_y
 _atom_site_fract_z
 _atom_site_occupancy
  V  V0  1  0.25445121  0.74046598  0.49253537  1
  V  V1  1  0.11852565  0.37129639  0.74634812  1
  V  V2  1  0.74675169  -0.01773367  0.25010828  1
  V  V3  1  0.74694040  0.50552406  0.24267078  1
  V  V4  1  0.37137137  0.24641300  0.12949426  1
  V  V5  1  0.62250787  0.62383598  0.01142778  1
  V  V6  1  0.76107258  0.49938078  0.75205777  1
  V  V7  1  0.62219316  0.37867066  0.23855183  1
  V  V8  1  0.50125689  0.25453736  0.75028285  1
  V  V9  1  0.74996042  0.24525196  0.49690669  1
  V  V10  1  0.11886899  0.37645059  0.25445949  1
  V  V11  1  0.76106520  0.36900039  0.12652659  1
  V  V12  1  0.62662912  0.24722912  0.37421044  1
  V  V13  1  0.37574572  0.25451029  0.62509675  1
  V  V14  1  0.25306161  0.12731751  0.37132710  1
  V  V15  1  0.87147653  -0.00154601  0.87622885  1
  V  V16  1  0.00520349  0.62160033  0.62255758  1
  V  V17  1  0.50152701  0.12315641  0.62504030  1
  V  V18  1  0.87610459  0.37547783  -0.01168277  1
  V  V19  1  0.74917797  0.87177981  0.62569255  1
  V  V20  1  0.74689081  0.62319104  0.37914387  1
  V  V21  1  0.25130285  0.62866766  0.86913848  1
  V  V22  1  0.24475884  -0.00647536  0.74946391  1
  V  V23  1  0.12732079  0.62500719  0.48321598  1
  V  V24  1  0.37741271  0.50588352  0.87257961  1
  V  V25  1  0.49425706  0.24752958  0.25039360  1
  V  V26  1  0.74202684  -0.00860974  0.75304256  1
  V  V27  1  0.88387191  0.75328590  0.13171232  1
  V  V28  1  -0.00185951  0.00081419  0.00230835  1
  V  V29  1  0.25762861  0.87240452  0.12165865  1
  V  V30  1  0.37498140  0.37837449  0.49758328  1
  V  V31  1  0.62944322  0.75307951  0.86505621  1
  V  V32  1  0.62874403  0.12060397  0.49907037  1
  V  V33  1  0.00099483  0.12725199  0.62809929  1
  V  V34  1  0.87460843  0.87405807  0.00224753  1
  V  V35  1  0.12610151  0.12327055  0.50067383  1
  V  V36  1  0.37532537  0.12530793  0.75033156  1
  V  V37  1  0.52104349  0.50413320  0.50194408  1
  V  V38  1  0.49992256  -0.00497952  0.50122753  1
  V  V39  1  0.87253944  0.00180564  0.37719117  1
  V  V40  1  0.50409584  0.87521381  0.87134207  1
  V  V41  1  0.62506682  0.25300189  0.87354490  1
  V  V42  1  -0.00616298  0.25242798  0.25095530  1
  V  V43  1  0.24923214  0.49901831  0.74824396  1
  V  V44  1  0.00057244  0.86284741  0.37594395  1
  V  V45  1  0.87441201  0.25022769  0.62834121  1
  V  V46  1  -0.00813384  0.12970521  0.12793145  1
  V  V47  1  0.37452252  0.00157729  0.37383178  1
  V  V48  1  0.50073840  0.37540444  0.37177786  1
  V  V49  1  0.12476000  0.63082082  -0.00448300  1
  V  V50  1  0.12431551  -0.01095031  0.62749658  1
  V  V51  1  0.62144730  0.38843734  0.74617184  1
  V  V52  1  0.01043114  0.75756293  0.74690153  1
  V  V53  1  0.62781972  0.75371933  0.37476275  1
  V  V54  1  -0.00415568  -0.00459296  0.49851181  1
  V  V55  1  0.62164003  0.12580076  0.00328700  1
  V  V56  1  0.49413734  0.12296681  0.13131503  1
  V  V57  1  0.11846322  0.25294893  0.37870105  1
  V  V58  1  0.24737172  0.50895721  0.25285519  1
  V  V59  1  0.88145874  0.49441158  0.37524571  1
  V  V60  1  0.37553730  0.86773190  0.50772971  1
  V  V61  1  0.75440170  0.75166058  0.49944530  1
  V  V62  1  0.37294397  0.50900204  0.37483916  1
  V  V63  1  0.24638563  -0.00002065  0.25309597  1
  V  V64  1  0.75624657  0.62100676  0.87644343  1
  V  V65  1  0.50497462  0.87502798  0.37130480  1
  V  V66  1  0.24725808  0.25114886  -0.00054119  1
  V  V67  1  0.49390848  -0.00798282  0.00470999  1
  V  V68  1  0.74792332  0.12245074  0.87579623  1
  V  V69  1  0.50340291  0.74389421  0.24400892  1
  V  V70  1  0.24892871  0.12664236  0.87583119  1
  V  V71  1  0.48091099  0.74508129  0.74805549  1
  V  V72  1  0.12145987  0.12798031  0.00329795  1
  V  V73  1  0.87681466  0.12482121  0.75131476  1
  V  V74  1  0.86316709  0.12746403  0.25312158  1
  V  V75  1  0.12206250  0.85983085  0.25345840  1
  V  V76  1  0.24597143  0.37500410  0.12461640  1
  V  V77  1  0.11968669  0.50128200  0.12001325  1
  V  V78  1  0.11119362  0.25101003  0.87094804  1
  V  V79  1  0.37572334  0.37647583  -0.00096082  1
  V  V80  1  0.74711050  0.38287774  0.62079099  1
  V  V81  1  0.50258225  0.50483536  0.01239264  1
  V  V82  1  0.87851208  0.75249361  0.62075856  1
  V  V83  1  0.75089896  0.75080758  0.00667857  1
  V  V84  1  0.37277013  -0.00391994  0.87861665  1
  Zn  Zn85  1  0.88277209  0.62308569  0.75345609  1
  Zn  Zn86  1  0.00257625  0.63193277  0.12599842  1
  Zn  Zn87  1  0.50184817  0.38009396  0.87499408  1
  Zn  Zn88  1  0.88030693  0.62935953  0.25115040  1
  Zn  Zn89  1  0.25017632  0.37496852  0.62417838  1
  Zn  Zn90  1  0.25023460  0.25065614  0.49994373  1
  Zn  Zn91  1  0.00548704  0.87895343  0.86844118  1
  Zn  Zn92  1  0.62110126  -0.01406508  0.62901111  1
  Zn  Zn93  1  0.12277697  -0.00059499  0.12967191  1
  Zn  Zn94  1  0.12869521  0.76045900  0.87014144  1
  Zn  Zn95  1  -0.00747825  0.38405047  0.86349228  1
  Zn  Zn96  1  -0.00919727  0.50742764  -0.01088209  1
  Zn  Zn97  1  0.25092027  0.86076814  0.62923491  1
  Zn  Zn98  1  0.12594716  0.49758473  0.62183650  1
  Zn  Zn99  1  0.37484426  0.62725565  0.24567575  1
  Zn  Zn100  1  0.88129755  0.37024534  0.49477324  1
  Zn  Zn101  1  0.50199995  0.62479995  0.62775714  1
  Zn  Zn102  1  0.62377962  -0.00883860  0.13912909  1
  Zn  Zn103  1  0.25735156  0.75621229  -0.00515702  1
  Zn  Zn104  1  0.75233970  0.24675190  0.00673184  1
  Zn  Zn105  1  0.00801029  0.48980138  0.49473892  1
  Zn  Zn106  1  0.38435937  0.74183136  0.11306920  1
  Zn  Zn107  1  0.18238371  0.18629230  0.19020786  1
  Zn  Zn108  1  0.18838232  0.18565367  0.68882230  1
  Zn  Zn109  1  0.18858081  0.68744970  0.18467718  1
  Zn  Zn110  1  0.19169625  0.68484775  0.68076307  1
  Zn  Zn111  1  0.68260287  0.18676285  0.18691580  1
  Zn  Zn112  1  0.68854358  0.18728317  0.68624362  1
  Zn  Zn113  1  0.68997992  0.69484867  0.19072835  1
  Zn  Zn114  1  0.68595847  0.67764229  0.68746127  1
  Zn  Zn115  1  0.30839881  0.31651116  0.31262582  1
  Zn  Zn116  1  0.30914155  0.31567364  0.81315076  1
  Zn  Zn117  1  0.31625357  0.81218747  0.31392219  1
  Zn  Zn118  1  0.31218902  0.81665583  0.81756279  1
  Zn  Zn119  1  0.80956880  0.31265194  0.31183371  1
  Zn  Zn120  1  0.80733511  0.31031692  0.81019971  1
  Zn  Zn121  1  0.81798897  0.81575341  0.31692184  1
  Zn  Zn122  1  0.81898499  0.80950698  0.81223619  1
  Zn  Zn123  1  0.18909848  0.43753192  0.43723637  1
  Zn  Zn124  1  0.18262880  0.43966424  0.93372136  1
  Zn  Zn125  1  0.18673136  0.93073683  0.43929424  1
  Zn  Zn126  1  0.18149624  0.93860507  0.93869730  1
  Zn  Zn127  1  0.69448577  0.43100447  0.42852664  1
  Zn  Zn128  1  0.68894948  0.44044088  0.93939949  1
  Zn  Zn129  1  0.69046053  0.93385643  0.43938015  1
  Zn  Zn130  1  0.67082149  0.92281941  0.97367716  1
  Zn  Zn131  1  0.31045956  0.06151081  0.06604289  1
  Zn  Zn132  1  0.31220029  0.06132186  0.56138780  1
  Zn  Zn133  1  0.31061291  0.56770788  0.06184867  1
  Zn  Zn134  1  0.31827876  0.57013299  0.56524708  1
  Zn  Zn135  1  0.81058961  0.06218106  0.06795359  1
  Zn  Zn136  1  0.81156833  0.05842904  0.56433689  1
  Zn  Zn137  1  0.81242777  0.56243918  0.06421395  1
  Zn  Zn138  1  0.81421181  0.56515441  0.56092091  1
  Zn  Zn139  1  0.43323217  0.43877596  0.18677395  1
  Zn  Zn140  1  0.42576344  0.46956150  0.66990478  1
  Zn  Zn141  1  0.43587877  0.93632153  0.19429598  1
  Zn  Zn142  1  0.43758493  0.93452778  0.69070320  1
  Zn  Zn143  1  0.93737430  0.44281541  0.18886941  1
  Zn  Zn144  1  0.93897112  0.43621682  0.68091265  1
  Zn  Zn145  1  0.93567056  0.93566661  0.18933482  1
  Zn  Zn146  1  0.93145568  0.93640661  0.68458575  1
  Zn  Zn147  1  0.06174985  0.06281150  0.31382857  1
  Zn  Zn148  1  0.06183304  0.06218703  0.81384572  1
  Zn  Zn149  1  0.05799665  0.56778620  0.30539661  1
  Zn  Zn150  1  0.06305504  0.56290369  0.81162268  1
  Zn  Zn151  1  0.56472469  0.06259427  0.31522748  1
  Zn  Zn152  1  0.56203386  0.06289177  0.81433547  1
  Zn  Zn153  1  0.56549578  0.56312003  0.31520086  1
  Zn  Zn154  1  0.56483340  0.56708045  0.81947897  1
  Zn  Zn155  1  0.43826022  0.18618049  0.43843753  1
  Zn  Zn156  1  0.43746257  0.18723639  0.93985511  1
  Zn  Zn157  1  0.44074827  0.68654473  0.43741254  1
  Zn  Zn158  1  0.43699188  0.68996215  0.93872461  1
  Zn  Zn159  1  0.93755539  0.18439616  0.43862024  1
  Zn  Zn160  1  0.93180474  0.19309396  0.94140762  1
  Zn  Zn161  1  0.93513157  0.68013016  0.43827389  1
  Zn  Zn162  1  0.94052212  0.68856153  0.93576003  1
  Zn  Zn163  1  0.05603777  0.31350467  0.06343763  1
  Zn  Zn164  1  0.06010420  0.31259806  0.56290785  1
  Zn  Zn165  1  0.06765634  0.81660669  0.06138588  1
  Zn  Zn166  1  0.06777879  0.80650399  0.55574873  1
  Zn  Zn167  1  0.56088640  0.31309210  0.06303540  1
  Zn  Zn168  1  0.56225869  0.31661839  0.56220901  1
  Zn  Zn169  1  0.56515267  0.81283765  0.06151770  1
  Zn  Zn170  1  0.58483299  0.77326571  0.58337266  1
  O  O171  1  0.11212081  0.12274242  0.12186151  1
  O  O172  1  0.11665140  0.11990934  0.62121259  1
  O  O173  1  0.12775299  0.61768366  0.11467024  1
  O  O174  1  0.11538499  0.62265672  0.61586831  1
  O  O175  1  0.61587560  0.11955331  0.11788932  1
  O  O176  1  0.61680344  0.12596799  0.61552595  1
  O  O177  1  0.63165003  0.63089217  0.10994549  1
  O  O178  1  0.60821758  0.66159607  0.61199208  1
  O  O179  1  0.38150599  0.37891560  0.38058211  1
  O  O180  1  0.37520142  0.37720076  0.88892510  1
  O  O181  1  0.38072519  0.88335988  0.38470561  1
  O  O182  1  0.38034571  0.89098129  0.87503011  1
  O  O183  1  0.86627035  0.39047298  0.37479758  1
  O  O184  1  0.87139943  0.37176104  0.88399115  1
  O  O185  1  0.89242822  0.88740044  0.36850195  1
  O  O186  1  0.88473870  0.88236083  0.88086591  1
  O  O187  1  0.25447351  0.00537079  0.37300159  1
  O  O188  1  0.25452586  0.00629217  0.87041667  1
  O  O189  1  0.26075140  0.49018283  0.36358294  1
  O  O190  1  0.25486233  0.50544978  0.86694132  1
  O  O191  1  0.76192841  -0.00661062  0.36723707  1
  O  O192  1  0.75530784  0.00535331  0.86921335  1
  O  O193  1  0.75526462  0.50717190  0.36457383  1
  O  O194  1  0.74659954  0.50854211  0.86534268  1
  O  O195  1  0.23852512  0.49326560  0.13118600  1
  O  O196  1  0.25064117  0.49921425  0.63912991  1
  O  O197  1  0.24879698  0.99300161  0.13701684  1
  O  O198  1  0.23980202  1.00382112  0.63322605  1
  O  O199  1  0.75222735  0.48961597  0.13658451  1
  O  O200  1  0.75317729  0.48975327  0.62917424  1
  O  O201  1  0.75060785  1.00636151  0.14744492  1
  O  O202  1  0.74912684  0.98909447  0.63340816  1
  O  O203  1  0.01000173  0.36796002  0.24491392  1
  O  O204  1  0.01284651  0.37457338  0.74569029  1
  O  O205  1  0.01359503  0.88113166  0.26004561  1
  O  O206  1  -0.00382436  0.86136075  0.74483591  1
  O  O207  1  0.50577755  0.37101951  0.25170796  1
  O  O208  1  0.50929978  0.37016745  0.75128856  1
  O  O209  1  0.49699304  0.86801495  0.26463468  1
  O  O210  1  0.49609843  0.86733269  0.76452191  1
  O  O211  1  0.50370588  0.12818498  0.23872601  1
  O  O212  1  0.49535943  0.13259385  0.74487732  1
  O  O213  1  0.50316489  0.64077116  0.25479919  1
  O  O214  1  0.50678110  0.64330876  0.75534756  1
  O  O215  1  0.99286800  0.13122333  0.24513921  1
  O  O216  1  0.98565493  0.11791513  0.74335401  1
  O  O217  1  0.99323285  0.62518625  0.23891104  1
  O  O218  1  1.00182307  0.63453610  0.73858532  1
  O  O219  1  0.36924924  0.25732474  0.00703404  1
  O  O220  1  0.37808901  0.26080944  0.50690487  1
  O  O221  1  0.37125447  0.75353639  0.00045719  1
  O  O222  1  0.36869043  0.75483082  0.49694001  1
  O  O223  1  0.86809061  0.26674230  0.00179053  1
  O  O224  1  0.86677404  0.24457647  0.50953064  1
  O  O225  1  0.87157219  0.75701222  0.00459905  1
  O  O226  1  0.87207894  0.74584618  0.51179749  1
  O  O227  1  0.12707294  0.24264628  0.49370032  1
  O  O228  1  0.12705093  0.24716006  0.99318531  1
  O  O229  1  0.13592831  0.73348578  0.49699253  1
  O  O230  1  0.13205288  0.74158084  0.99997357  1
  O  O231  1  0.63099086  0.24364737  0.49654327  1
  O  O232  1  0.62354068  0.24125357  0.99338647  1
  O  O233  1  0.63826887  0.75474787  0.48182438  1
  O  O234  1  0.63258408  0.74012785  0.99301751  1
  O  O235  1  0.49318048  0.24258564  0.13003991  1
  O  O236  1  0.49099705  0.24609603  0.62849189  1
  O  O237  1  0.50240835  0.76059141  0.14068376  1
  O  O238  1  0.48807483  0.76150663  0.64641576  1
  O  O239  1  1.00314558  0.24154750  0.13803217  1
  O  O240  1  0.99054608  0.23437669  0.62170426  1
  O  O241  1  0.98682648  0.75472929  0.11948702  1
  O  O242  1  0.99714856  0.74617806  0.62836924  1
  O  O243  1  0.01184118  0.24288659  0.36911925  1
  O  O244  1  0.00875591  0.25274685  0.87601478  1
  O  O245  1  -0.00846690  0.76444036  0.37948271  1
  O  O246  1  0.00041206  0.74921319  0.85552155  1
  O  O247  1  0.50375629  0.25457702  0.36888150  1
  O  O248  1  0.51001998  0.25198249  0.87118801  1
  O  O249  1  0.50966084  0.75606525  0.37131443  1
  O  O250  1  0.50783654  0.75830112  0.86966082  1
  O  O251  1  0.24442830  0.12662872  0.48968737  1
  O  O252  1  0.24137839  0.13005108  0.99698634  1
  O  O253  1  0.24425759  0.62993828  0.50035225  1
  O  O254  1  0.24072272  0.62269716  0.98530427  1
  O  O255  1  0.73999459  0.13118106  0.50782092  1
  O  O256  1  0.73993183  0.12533219  0.99742569  1
  O  O257  1  0.75505835  0.63788746  0.49173198  1
  O  O258  1  0.74311337  0.62883964  0.99456822  1
  O  O259  1  0.25507135  0.37131526  0.00459892  1
  O  O260  1  0.26093024  0.37070447  0.50198106  1
  O  O261  1  0.24373086  0.88208256  0.01944805  1
  O  O262  1  0.25776091  0.86494533  0.50213154  1
  O  O263  1  0.75481577  0.37554808  0.01214197  1
  O  O264  1  0.75273113  0.36579802  0.50686066  1
  O  O265  1  0.76855080  0.86450101  -0.01155536  1
  O  O266  1  0.75386225  0.86128779  0.50612593  1
  O  O267  1  0.12862797  0.49236584  0.24466048  1
  O  O268  1  0.13372060  0.49002605  0.74776572  1
  O  O269  1  0.13596784  0.99589460  0.25255706  1
  O  O270  1  0.13308070  1.00758443  0.74097086  1
  O  O271  1  0.63364208  0.49015153  0.25556330  1
  O  O272  1  0.63132687  0.49140274  0.75421068  1
  O  O273  1  0.64217489  1.00366907  0.25587798  1
  O  O274  1  0.63789072  1.00613964  0.74843500  1
  O  O275  1  0.36216301  -0.00511458  0.26543338  1
  O  O276  1  0.36893738  0.00760852  0.75748858  1
  O  O277  1  0.36456686  0.49733728  0.25710881  1
  O  O278  1  0.36527098  0.48173811  0.76877451  1
  O  O279  1  0.86596624  0.00641945  0.25697437  1
  O  O280  1  0.86693786  0.00668574  0.75566814  1
  O  O281  1  0.86509667  0.50052880  0.25860726  1
  O  O282  1  0.86435728  0.50041442  0.74557131  1
  O  O283  1  0.12917048  0.36541055  0.36608234  1
  O  O284  1  0.12414078  0.36488476  0.86708139  1
  O  O285  1  0.11446404  0.87768205  0.36397788  1
  O  O286  1  0.11827400  0.87427415  0.87589801  1
  O  O287  1  0.62090361  0.36583476  0.36236012  1
  O  O288  1  0.62629262  0.36836036  0.86756882  1
  O  O289  1  0.61547693  0.86962424  0.37808962  1
  O  O290  1  0.61512704  0.86673903  0.88509922  1
  O  O291  1  0.38118737  0.13402981  0.12357578  1
  O  O292  1  0.38227165  0.13219793  0.62864029  1
  O  O293  1  0.36864970  0.62896269  0.13231763  1
  O  O294  1  0.39853071  0.58014284  0.63983492  1
  O  O295  1  0.88425303  0.12391452  0.13551319  1
  O  O296  1  0.87998011  0.12767721  0.63264727  1
  O  O297  1  0.87454788  0.64223250  0.12103742  1
  O  O298  1  0.88911747  0.63108224  0.62366924  1
  O  O299  1  0.25111262  0.25360089  0.12050782  1
  O  O300  1  0.26575346  0.24754192  0.62432724  1
  O  O301  1  0.25018671  0.76584191  0.12633659  1
  O  O302  1  0.24985869  0.74849878  0.60737036  1
  O  O303  1  0.74427778  0.26494303  0.12605878  1
  O  O304  1  0.75576691  0.25553264  0.61592707  1
  O  O305  1  0.75800058  0.74952457  0.11105162  1
  O  O306  1  0.75990904  0.75187481  0.61959199  1
  O  O307  1  0.23987587  0.24262534  0.37366235  1
  O  O308  1  0.24419473  0.24394931  0.88253497  1
  O  O309  1  0.25341180  0.75431067  0.39161478  1
  O  O310  1  0.24717538  0.74263494  0.87374015  1
  O  O311  1  0.74488129  0.25335202  0.38900502  1
  O  O312  1  0.73789552  0.24305123  0.87697363  1
  O  O313  1  0.75002540  0.74585905  0.37932408  1
  O  O314  1  0.74631522  0.74559172  0.88330962  1
  O  O315  1  -0.00126248  0.12252333  0.00914676  1
  O  O316  1  0.00569659  0.11546299  0.50822119  1
  O  O317  1  0.01014798  0.62570041  0.00327726  1
  O  O318  1  0.01353903  0.62165287  0.50188430  1
  O  O319  1  0.50247658  0.12153576  0.01294122  1
  O  O320  1  0.50486422  0.11617571  0.50635065  1
  O  O321  1  0.51514640  0.62059514  -0.00510780  1
  O  O322  1  0.49786461  0.60596490  0.49709303  1
  O  O323  1  0.49576707  0.38125469  0.48995455  1
  O  O324  1  0.49238813  0.38219867  0.99878977  1
  O  O325  1  0.49181357  0.88144615  0.48986169  1
  O  O326  1  0.49599422  0.88820687  0.99060051  1
  O  O327  1  0.99424112  0.37697063  0.50179689  1
  O  O328  1  0.98354187  0.37427634  0.99831980  1
  O  O329  1  1.00950558  0.88209233  0.48597543  1
  O  O330  1  0.99237199  0.88608590  1.00113588  1
  O  O331  1  0.49311086  0.49243577  0.37786947  1
  O  O332  1  0.49186214  0.50020787  0.88310674  1
  O  O333  1  0.49256247  0.99509391  0.37827109  1
  O  O334  1  0.49208732  0.99568775  0.87941655  1
  O  O335  1  0.98416851  0.50320414  0.37262774  1
  O  O336  1  1.00207929  0.49649950  0.87658740  1
  O  O337  1  0.99558864  0.99552557  0.38343580  1
  O  O338  1  0.99116077  1.00641711  0.88881411  1
  O  O339  1  -0.00272227  0.00754825  0.11671921  1
  O  O340  1  0.00399057  0.00573839  0.61949109  1
  O  O341  1  0.01236926  0.49848659  0.11945155  1
  O  O342  1  0.00258056  0.50887600  0.61945998  1
  O  O343  1  0.49753826  0.00485451  0.12138920  1
  O  O344  1  0.50287889  0.00374882  0.62171682  1
  O  O345  1  0.49629204  0.49766634  0.11183708  1
  O  O346  1  0.52053826  0.48534866  0.60314588  1
  O  O347  1  0.23662020  0.37893238  0.24233151  1
  O  O348  1  0.23965796  0.38144423  0.74934433  1
  O  O349  1  0.23968635  0.88012166  0.24825931  1
  O  O350  1  0.25640182  0.88956524  0.74613678  1
  O  O351  1  0.74329909  0.37918501  0.24063334  1
  O  O352  1  0.74371011  0.38223291  0.74272110  1
  O  O353  1  0.75057332  0.88360462  0.25040077  1
  O  O354  1  0.75785137  0.88338214  0.74438013  1
  O  O355  1  0.24417430  0.11748150  0.26280857  1
  O  O356  1  0.25652202  0.11703336  0.75671597  1
  O  O357  1  0.24557346  0.61166422  0.25071255  1
  O  O358  1  0.24310393  0.61560733  0.76074736  1
  O  O359  1  0.76171008  0.13178334  0.25101049  1
  O  O360  1  0.75912204  0.11761356  0.75297001  1
  O  O361  1  0.75365068  0.61867938  0.25427762  1
  O  O362  1  0.75186786  0.61541780  0.75623305  1
  O  O363  1  0.36520446  0.11676004  0.38078827  1
  O  O364  1  0.37058747  0.11918521  0.87015791  1
  O  O365  1  0.37892531  0.61153907  0.36977663  1
  O  O366  1  0.36653510  0.61410911  0.87906058  1
  O  O367  1  0.88172174  0.11161167  0.36689902  1
  O  O368  1  0.86853524  0.12255324  0.86936742  1
  O  O369  1  0.86435424  0.61602931  0.37187851  1
  O  O370  1  0.86095607  0.63170569  0.87383595  1
  O  O371  1  0.12763401  0.38047430  0.12966023  1
  O  O372  1  0.13104385  0.37255521  0.63223595  1
  O  O373  1  0.13092024  0.87891249  0.13962533  1
  O  O374  1  0.12703097  0.88670491  0.61931946  1
  O  O375  1  0.63157289  0.37292426  0.13439784  1
  O  O376  1  0.63700772  0.36505611  0.63554465  1
  O  O377  1  0.63495057  0.89555686  0.08217985  1
  O  O378  1  0.64284826  0.86842313  0.62214194  1
  O  O379  1  0.11537402  0.25623429  0.25771411  1
  O  O380  1  0.13125706  0.25616683  0.76011422  1
  O  O381  1  0.12702328  0.76130781  0.25088208  1
  O  O382  1  0.11287352  0.74909831  0.74333435  1
  O  O383  1  0.61513604  0.25559070  0.25390804  1
  O  O384  1  0.62167689  0.25586619  0.75717069  1
  O  O385  1  0.61620223  0.75228027  0.25948317  1
  O  O386  1  0.62818501  0.75241037  0.76429589  1
  O  O387  1  0.38163915  0.25845012  0.24170792  1
  O  O388  1  0.38048830  0.24802534  0.74447542  1
  O  O389  1  0.39230209  0.74902662  0.25374579  1
  O  O390  1  0.38239649  0.74698765  0.75935117  1
  O  O391  1  0.88671877  0.24383246  0.26143577  1
  O  O392  1  0.86668175  0.24101173  0.73707134  1
  O  O393  1  0.86816896  0.75329060  0.23376363  1
  O  O394  1  0.88480521  0.74546980  0.73688989  1
  O  O395  1  0.37822315  0.48883719  0.49106761  1
  O  O396  1  0.37930507  0.49345451  0.99295124  1
  O  O397  1  0.37906852  0.99477213  0.49085228  1
  O  O398  1  0.38346663  1.01083471  0.99145789  1
  O  O399  1  0.87165474  0.49971512  0.48331863  1
  O  O400  1  0.87299272  0.48129220  1.00832554  1
  O  O401  1  0.88698039  1.00445091  0.49404464  1
  O  O402  1  0.87771344  0.99449291  0.99796617  1
  O  O403  1  0.11355848  0.01008547  0.00458398  1
  O  O404  1  0.11745588  0.00468836  0.50683886  1
  O  O405  1  0.12533423  0.50853276  0.00667129  1
  O  O406  1  0.12911757  0.51106266  0.50144056  1
  O  O407  1  0.60772969  0.02002117  -0.01301923  1
  O  O408  1  0.62044344  0.00567562  0.50292001  1
  O  O409  1  0.61796764  0.51391450  -0.00392216  1
  O  O410  1  0.61854915  0.49753954  0.48286725  1
  O  O411  1  0.36749706  0.36939688  0.11511687  1
  O  O412  1  0.37649918  0.37055955  0.61611462  1
  O  O413  1  0.35929619  0.87502194  0.13399520  1
  O  O414  1  0.37173816  0.88562416  0.61001740  1
  O  O415  1  0.86296850  0.37369333  0.12623065  1
  O  O416  1  0.86528591  0.36429514  0.62431120  1
  O  O417  1  0.87637754  0.86553402  0.11692279  1
  O  O418  1  0.86436774  0.86531759  0.62467178  1
  O  O419  1  0.13112633  0.13138596  0.38095658  1
  O  O420  1  0.12795599  0.13284144  0.88107722  1
  O  O421  1  0.12455886  0.61888114  0.38470041  1
  O  O422  1  0.13203826  0.63110517  0.88054628  1
  O  O423  1  0.61894404  0.13185803  0.39076853  1
  O  O424  1  0.62801535  0.13462037  0.87987276  1
  O  O425  1  0.64018083  0.63448417  0.36955316  1
  O  O426  1  0.63752036  0.63504311  0.88265512  1
