# generated using pymatgen
data_V85Zn86O256
_symmetry_space_group_name_H-M   'P 1'
_cell_length_a   16.94979816
_cell_length_b   16.94560373
_cell_length_c   16.94506937
_cell_angle_alpha   89.98692144
_cell_angle_beta   90.03690341
_cell_angle_gamma   89.97561290
_symmetry_Int_Tables_number   1
_chemical_formula_structural   V85Zn86O256
_chemical_formula_sum   'V85 Zn86 O256'
_cell_volume   4867.03856715
_cell_formula_units_Z   1
loop_
 _symmetry_equiv_pos_site_id
 _symmetry_equiv_pos_as_xyz
  1  'x, y, z'
loop_
 _atom_site_type_symbol
 _atom_site_label
 _atom_site_symmetry_multiplicity
 _atom_site_fract_x
 _atom_site_fract_y
 _atom_site_fract_z
 _atom_site_occupancy
  V  V0  1  0.62233594  0.38414504  0.24589939  1
  V  V1  1  0.74567726  0.12126725  0.37887761  1
  V  V2  1  0.25818510  0.49746263  0.75606560  1
  V  V3  1  0.13526256  0.12479029  0.49800503  1
  V  V4  1  0.62414742  0.37363028  0.75007613  1
  V  V5  1  0.50484907  0.86831811  0.37500671  1
  V  V6  1  0.74300331  0.24689051  0.50170728  1
  V  V7  1  0.36827628  -0.00316518  0.87546299  1
  V  V8  1  0.00339979  0.12511113  0.62650920  1
  V  V9  1  0.12207378  0.37353068  0.25348916  1
  V  V10  1  0.00219374  -0.00009714  0.00397786  1
  V  V11  1  0.62844648  -0.00155018  0.12912550  1
  V  V12  1  0.00293334  0.87052592  0.87795088  1
  V  V13  1  0.35692426  0.86762587  0.00366412  1
  V  V14  1  0.62536672  0.62020217  -0.00266310  1
  V  V15  1  0.76015870  0.53331468  0.21475780  1
  V  V16  1  0.61907220  0.24353522  0.37544318  1
  V  V17  1  0.49481738  0.38473791  0.87606223  1
  V  V18  1  0.12605349  0.63046821  0.50119226  1
  V  V19  1  0.61932324  0.24765885  0.87497941  1
  V  V20  1  0.37873776  0.62021722  0.76117017  1
  V  V21  1  0.24915770  0.62778812  0.37124945  1
  V  V22  1  0.37238521  0.49593549  0.38114579  1
  V  V23  1  0.88244470  0.25215877  0.12559547  1
  V  V24  1  -0.04201539  0.31204789  0.31052633  1
  V  V25  1  -0.01180207  0.70951329  0.22039689  1
  V  V26  1  0.13310625  0.63989678  -0.00121960  1
  V  V27  1  0.74893260  0.24592402  -0.00044144  1
  V  V28  1  0.87565960  0.25130392  0.62351125  1
  V  V29  1  0.50060653  0.62563885  0.62455004  1
  V  V30  1  0.13145744  0.37509173  0.74418331  1
  V  V31  1  0.62338183  0.12219202  0.00208030  1
  V  V32  1  0.63114357  0.86245952  0.25393394  1
  V  V33  1  0.12672499  0.25000508  0.87508858  1
  V  V34  1  0.00575083  0.86885916  0.36858729  1
  V  V35  1  0.62048032  0.62809681  0.49234106  1
  V  V36  1  0.87716955  -0.00182345  0.37766011  1
  V  V37  1  0.24885874  0.50178648  0.24495695  1
  V  V38  1  0.87438391  -0.00118150  0.87143974  1
  V  V39  1  0.50312295  0.00825961  0.49820152  1
  V  V40  1  0.76325725  0.61018457  0.38467234  1
  V  V41  1  0.74528865  0.75356166  0.49408663  1
  V  V42  1  0.87921726  0.12796897  0.25352152  1
  V  V43  1  0.62876035  0.87627861  0.75393802  1
  V  V44  1  0.00133839  0.75342324  0.74952060  1
  V  V45  1  0.36584779  0.74487862  0.12609134  1
  V  V46  1  0.50797412  0.74946172  0.75863478  1
  V  V47  1  0.87569453  0.63174117  0.74313961  1
  V  V48  1  0.00506165  0.12308212  0.13071333  1
  V  V49  1  0.25004007  0.75043644  0.50245932  1
  V  V50  1  0.87335391  0.37551462  -0.00138331  1
  V  V51  1  0.87270861  0.50201605  0.86885423  1
  V  V52  1  0.00064967  0.51087214  0.00184849  1
  V  V53  1  0.00280626  0.63006276  0.62485781  1
  V  V54  1  0.73911677  0.36924807  0.12304605  1
  V  V55  1  0.12854869  0.12689945  0.00140020  1
  V  V56  1  0.25297492  0.26678931  0.49796195  1
  V  V57  1  0.76048766  0.86856178  0.12789117  1
  V  V58  1  0.00011802  0.25029448  0.74817930  1
  V  V59  1  -0.00365446  0.49500854  0.49168499  1
  V  V60  1  0.63016742  0.00751621  0.62460925  1
  V  V61  1  0.37184750  0.26260613  0.62391486  1
  V  V62  1  0.49435901  0.37461173  0.37930684  1
  V  V63  1  0.37186690  0.00383458  0.36112230  1
  V  V64  1  0.37894465  0.75077170  0.62578119  1
  V  V65  1  0.25396497  0.87855524  0.62937849  1
  V  V66  1  0.17856531  0.92658487  0.19271402  1
  V  V67  1  0.75258232  0.87343030  0.62875679  1
  V  V68  1  0.00412363  -0.00143356  0.50269739  1
  V  V69  1  0.48833530  0.11992822  0.12847860  1
  V  V70  1  0.13505212  0.00180504  0.63126710  1
  V  V71  1  0.13339936  0.87809119  0.75855570  1
  V  V72  1  0.13232704  0.50103506  0.62551192  1
  V  V73  1  0.49860764  -0.01090836  0.00042942  1
  V  V74  1  0.74847451  0.75491798  -0.01386121  1
  V  V75  1  0.49201101  0.24497660  0.24855486  1
  V  V76  1  0.37143681  0.38323329  0.00202900  1
  V  V77  1  0.62417800  0.49980512  0.62370961  1
  V  V78  1  0.37737413  0.87787365  0.49890100  1
  V  V79  1  0.75091968  0.37405059  0.62245295  1
  V  V80  1  0.87825842  0.86711292  0.50607306  1
  V  V81  1  0.37055130  0.11798266  0.74628316  1
  V  V82  1  0.75187603  0.50088500  0.74611698  1
  V  V83  1  0.74863630  0.11873661  0.86785492  1
  V  V84  1  -0.00139254  0.37537250  0.87298608  1
  Zn  Zn85  1  0.51205837  0.62179481  0.13257921  1
  Zn  Zn86  1  0.49970795  0.12679028  0.62317701  1
  Zn  Zn87  1  0.25135983  0.12575916  0.36189893  1
  Zn  Zn88  1  0.24341640  0.37591023  0.12185366  1
  Zn  Zn89  1  0.12393833  0.24972611  0.37224023  1
  Zn  Zn90  1  0.49401329  0.49515215  0.50217057  1
  Zn  Zn91  1  0.38291921  0.62304762  0.24917805  1
  Zn  Zn92  1  0.49607697  0.24783015  0.74879198  1
  Zn  Zn93  1  0.11286091  0.50536236  0.12930153  1
  Zn  Zn94  1  0.24737260  0.11874652  0.87161927  1
  Zn  Zn95  1  0.88082396  0.86677135  0.00556237  1
  Zn  Zn96  1  0.50506666  0.49901623  0.01254424  1
  Zn  Zn97  1  0.50548976  0.87142537  0.87839360  1
  Zn  Zn98  1  0.25314188  0.25148681  -0.00095188  1
  Zn  Zn99  1  0.87711444  0.37648449  0.48537573  1
  Zn  Zn100  1  0.87188259  0.12147456  0.74719267  1
  Zn  Zn101  1  0.50433866  0.74593889  0.24895241  1
  Zn  Zn102  1  0.13345463  0.76412105  0.34916957  1
  Zn  Zn103  1  0.25002188  0.63465478  0.88101739  1
  Zn  Zn104  1  0.36558699  0.24643376  0.12535836  1
  Zn  Zn105  1  0.75274175  -0.00151100  0.25029982  1
  Zn  Zn106  1  0.74302412  0.63759461  0.86341531  1
  Zn  Zn107  1  0.18487751  0.19510565  0.18711024  1
  Zn  Zn108  1  0.19490669  0.18888701  0.68679989  1
  Zn  Zn109  1  0.17990218  0.68814967  0.18108719  1
  Zn  Zn110  1  0.20522169  0.70547613  0.72027071  1
  Zn  Zn111  1  0.68384760  0.18704503  0.19171543  1
  Zn  Zn112  1  0.68585902  0.18635464  0.68956613  1
  Zn  Zn113  1  0.70025740  0.68691139  0.18178894  1
  Zn  Zn114  1  0.68881824  0.69267238  0.68023469  1
  Zn  Zn115  1  0.30952836  0.31319852  0.31133971  1
  Zn  Zn116  1  0.31328457  0.31138579  0.81327482  1
  Zn  Zn117  1  0.31464497  0.81506859  0.30774925  1
  Zn  Zn118  1  0.31755355  0.81107931  0.81672576  1
  Zn  Zn119  1  0.79587910  0.31210932  0.31237247  1
  Zn  Zn120  1  0.81010390  0.30937234  0.81092199  1
  Zn  Zn121  1  0.82071950  0.80470178  0.31376020  1
  Zn  Zn122  1  0.81834645  0.81781705  0.80891750  1
  Zn  Zn123  1  0.18024937  0.44151668  0.43140313  1
  Zn  Zn124  1  0.18647322  0.44250205  0.93242721  1
  Zn  Zn125  1  0.19147733  0.93863733  0.43673158  1
  Zn  Zn126  1  0.18484654  0.93959447  0.94592577  1
  Zn  Zn127  1  0.68026960  0.43365478  0.44051487  1
  Zn  Zn128  1  0.68733462  0.43738526  0.93485962  1
  Zn  Zn129  1  0.68655309  0.93794978  0.44026728  1
  Zn  Zn130  1  0.68891423  0.93738194  0.94015751  1
  Zn  Zn131  1  0.30637265  0.05792823  0.18883613  1
  Zn  Zn132  1  0.31569237  0.06450348  0.55988797  1
  Zn  Zn133  1  0.31358630  0.56339980  0.06151387  1
  Zn  Zn134  1  0.31192971  0.56101371  0.56605148  1
  Zn  Zn135  1  0.81558161  0.06095471  0.06088353  1
  Zn  Zn136  1  0.81183341  0.06171972  0.56155868  1
  Zn  Zn137  1  0.80421697  0.56351900  0.04928161  1
  Zn  Zn138  1  0.81537849  0.56323471  0.56088702  1
  Zn  Zn139  1  0.43654800  0.44235896  0.18654844  1
  Zn  Zn140  1  0.44023987  0.43651754  0.68962324  1
  Zn  Zn141  1  0.44190814  0.92490390  0.18326656  1
  Zn  Zn142  1  0.44308763  0.93928617  0.68851362  1
  Zn  Zn143  1  0.92724755  0.45002888  0.18513457  1
  Zn  Zn144  1  0.94237344  0.43853919  0.68113739  1
  Zn  Zn145  1  0.94235700  0.94013024  0.19141972  1
  Zn  Zn146  1  0.93965141  0.93978482  0.68888933  1
  Zn  Zn147  1  0.06630478  0.06107543  0.31303638  1
  Zn  Zn148  1  0.06043554  0.06095137  0.81348331  1
  Zn  Zn149  1  0.06344584  0.56701376  0.31189636  1
  Zn  Zn150  1  0.06517141  0.56425999  0.81509855  1
  Zn  Zn151  1  0.56091519  0.05816221  0.31042592  1
  Zn  Zn152  1  0.55570789  0.06001046  0.81004781  1
  Zn  Zn153  1  0.56738464  0.55731638  0.30764448  1
  Zn  Zn154  1  0.56759029  0.56493317  0.81632071  1
  Zn  Zn155  1  0.43213661  0.18639759  0.43896505  1
  Zn  Zn156  1  0.43356624  0.18496123  0.94154449  1
  Zn  Zn157  1  0.43539510  0.68681667  0.43577212  1
  Zn  Zn158  1  0.44145073  0.68853473  0.94153580  1
  Zn  Zn159  1  0.93556969  0.18198712  0.44650300  1
  Zn  Zn160  1  0.93823156  0.18579833  0.93831719  1
  Zn  Zn161  1  0.93818348  0.68950470  0.43786132  1
  Zn  Zn162  1  0.93227118  0.68993832  0.93586356  1
  Zn  Zn163  1  0.06269112  0.31859908  0.06306436  1
  Zn  Zn164  1  0.06642962  0.31388528  0.56000487  1
  Zn  Zn165  1  0.05618978  0.80456196  0.06961447  1
  Zn  Zn166  1  0.06488720  0.81295174  0.56673473  1
  Zn  Zn167  1  0.55399128  0.30912976  0.06127614  1
  Zn  Zn168  1  0.56009068  0.30972977  0.56218263  1
  Zn  Zn169  1  0.56756467  0.80345696  0.06870185  1
  Zn  Zn170  1  0.56526619  0.81538045  0.56388135  1
  O  O171  1  0.10931169  0.13776735  0.11654760  1
  O  O172  1  0.12530514  0.11906853  0.62119917  1
  O  O173  1  0.12457271  0.61819045  0.10496896  1
  O  O174  1  0.11977953  0.61839532  0.61921821  1
  O  O175  1  0.62094035  0.11564138  0.12188267  1
  O  O176  1  0.62355028  0.11178994  0.62811434  1
  O  O177  1  0.63205322  0.63269654  0.10402984  1
  O  O178  1  0.61570769  0.62043204  0.61941133  1
  O  O179  1  0.38243162  0.38298606  0.37091138  1
  O  O180  1  0.38514733  0.36814899  0.88526098  1
  O  O181  1  0.38273587  0.88448648  0.37851262  1
  O  O182  1  0.38055014  0.87597642  0.88618345  1
  O  O183  1  0.88251353  0.36097160  0.36812388  1
  O  O184  1  0.87723907  0.38093397  0.87766302  1
  O  O185  1  0.88454045  0.88121626  0.38504154  1
  O  O186  1  0.88453794  0.88331908  0.87854107  1
  O  O187  1  0.26881562  -0.00020391  0.37824471  1
  O  O188  1  0.26443555  -0.00188221  0.88238965  1
  O  O189  1  0.25353731  0.50743114  0.36788132  1
  O  O190  1  0.24659841  0.50847952  0.85826532  1
  O  O191  1  0.75752764  0.00615754  0.37673245  1
  O  O192  1  0.75998313  0.00845309  0.88288059  1
  O  O193  1  0.75332948  0.51084268  0.39589200  1
  O  O194  1  0.76156181  0.49850630  0.86512139  1
  O  O195  1  0.25112748  0.49880543  0.13760201  1
  O  O196  1  0.23761558  0.49958194  0.63001051  1
  O  O197  1  0.24824044  0.97744106  0.13669595  1
  O  O198  1  0.24147877  0.99576551  0.62004679  1
  O  O199  1  0.74523659  0.47747798  0.11863204  1
  O  O200  1  0.74543356  0.49452399  0.62751038  1
  O  O201  1  0.74413437  0.99323770  0.12575387  1
  O  O202  1  0.73723324  0.99354784  0.61807158  1
  O  O203  1  0.00293858  0.38554815  0.24801713  1
  O  O204  1  0.00672780  0.36986889  0.75412119  1
  O  O205  1  -0.00140972  0.87872001  0.26950882  1
  O  O206  1  0.00526245  0.87061677  0.75670149  1
  O  O207  1  0.50740600  0.36931895  0.25823957  1
  O  O208  1  0.50602050  0.36961745  0.75871187  1
  O  O209  1  0.51381788  0.87262042  0.25748369  1
  O  O210  1  0.51002685  0.86536426  0.74989428  1
  O  O211  1  0.50591015  0.13245412  0.24094853  1
  O  O212  1  0.48696186  0.12908161  0.74767386  1
  O  O213  1  0.50102206  0.62896598  0.25354245  1
  O  O214  1  0.49847241  0.62883924  0.74357943  1
  O  O215  1  0.99290493  0.12061645  0.24204647  1
  O  O216  1  0.99948449  0.13321058  0.74286791  1
  O  O217  1  0.98717062  0.60869239  0.23771749  1
  O  O218  1  0.99771275  0.63295155  0.74548165  1
  O  O219  1  0.37398756  0.26112503  0.00284848  1
  O  O220  1  0.36263330  0.24749544  0.50913668  1
  O  O221  1  0.37922131  0.76040884  0.00692530  1
  O  O222  1  0.37062296  0.75740974  0.50575735  1
  O  O223  1  0.86931771  0.25400647  0.00647942  1
  O  O224  1  0.86468865  0.25258697  0.50722157  1
  O  O225  1  0.85701898  0.75011416  -0.00255539  1
  O  O226  1  0.87035832  0.76325647  0.50111958  1
  O  O227  1  0.13791521  0.24381019  0.50127136  1
  O  O228  1  0.11869009  0.24635683  0.98897715  1
  O  O229  1  0.13183930  0.73878861  0.50667610  1
  O  O230  1  0.12028101  0.73810512  0.99925893  1
  O  O231  1  0.63491888  0.25187294  0.49270142  1
  O  O232  1  0.62756035  0.24185348  0.99339542  1
  O  O233  1  0.63274417  0.74141835  0.50493009  1
  O  O234  1  0.64186881  0.74599030  0.99976613  1
  O  O235  1  0.49853185  0.23653662  0.13244257  1
  O  O236  1  0.48619685  0.24640935  0.62199538  1
  O  O237  1  0.49210700  0.74391063  0.12851764  1
  O  O238  1  0.49818686  0.74285546  0.63030116  1
  O  O239  1  0.98672202  0.24524060  0.11773254  1
  O  O240  1  0.99336833  0.24577400  0.62610235  1
  O  O241  1  0.98454030  0.73247039  0.12197940  1
  O  O242  1  1.00149374  0.73770462  0.63028892  1
  O  O243  1  0.00291130  0.24677954  0.37788880  1
  O  O244  1  0.00710058  0.25467691  0.86821808  1
  O  O245  1  0.00606774  0.76576082  0.38655093  1
  O  O246  1  -0.00396981  0.76353457  0.86807916  1
  O  O247  1  0.50293211  0.25182119  0.37047983  1
  O  O248  1  0.51105518  0.25268847  0.87732745  1
  O  O249  1  0.49468732  0.76518290  0.37504508  1
  O  O250  1  0.50112162  0.75106618  0.86191243  1
  O  O251  1  0.24186274  0.12964914  0.49715936  1
  O  O252  1  0.23053101  0.12749905  0.99511505  1
  O  O253  1  0.24351600  0.62956404  0.49556861  1
  O  O254  1  0.23892658  0.62294663  0.99659126  1
  O  O255  1  0.75389817  0.13197030  0.48750836  1
  O  O256  1  0.74376445  0.12864759  0.99232474  1
  O  O257  1  0.74371700  0.63290495  0.49813423  1
  O  O258  1  0.74453293  0.63819418  0.98701319  1
  O  O259  1  0.26097797  0.37914879  -0.00458704  1
  O  O260  1  0.24236708  0.36490885  0.49651698  1
  O  O261  1  0.25912778  0.86826691  -0.00351496  1
  O  O262  1  0.25656341  0.86973792  0.50834367  1
  O  O263  1  0.75315681  0.36538057  0.00229387  1
  O  O264  1  0.75341814  0.36520814  0.50467077  1
  O  O265  1  0.75204335  0.86850792  0.00838913  1
  O  O266  1  0.75693491  0.87026826  0.50455350  1
  O  O267  1  0.13152684  0.49457739  0.25015865  1
  O  O268  1  0.13105552  0.49427125  0.74380155  1
  O  O269  1  0.12425114  0.99646451  0.24326942  1
  O  O270  1  0.12070530  0.99205327  0.74117530  1
  O  O271  1  0.64685062  0.48775237  0.25175792  1
  O  O272  1  0.63233754  0.49509348  0.74380136  1
  O  O273  1  0.63023662  0.99335068  0.24001232  1
  O  O274  1  0.61700042  0.99242994  0.73312239  1
  O  O275  1  0.38223534  -0.00719941  0.25795233  1
  O  O276  1  0.38231440  0.00532477  0.76135413  1
  O  O277  1  0.36445737  0.50131190  0.26157652  1
  O  O278  1  0.36992909  0.50608723  0.74611001  1
  O  O279  1  0.87383012  0.00510247  0.26515147  1
  O  O280  1  0.88192378  0.00403055  0.76547304  1
  O  O281  1  0.84144713  0.49008650  0.25123193  1
  O  O282  1  0.87248535  0.50568500  0.75171174  1
  O  O283  1  0.11952829  0.37395978  0.36119101  1
  O  O284  1  0.11882242  0.36972527  0.86490743  1
  O  O285  1  0.11028245  0.87528698  0.38723275  1
  O  O286  1  0.11828519  0.88387987  0.86565413  1
  O  O287  1  0.62011694  0.36427814  0.36610249  1
  O  O288  1  0.62005862  0.36507742  0.87078655  1
  O  O289  1  0.61836034  0.88323445  0.36541547  1
  O  O290  1  0.62720802  0.88628570  0.85765703  1
  O  O291  1  0.38632953  0.12043426  0.12432722  1
  O  O292  1  0.37691041  0.12990024  0.63181012  1
  O  O293  1  0.37830077  0.63641495  0.12415728  1
  O  O294  1  0.38920316  0.62773154  0.62749514  1
  O  O295  1  0.87951028  0.13393717  0.13273432  1
  O  O296  1  0.88014933  0.13417777  0.62421214  1
  O  O297  1  0.79942632  0.60879303  0.15365550  1
  O  O298  1  0.88549397  0.61943520  0.63620588  1
  O  O299  1  0.24887100  0.25884077  0.11662045  1
  O  O300  1  0.26156925  0.24938658  0.61253091  1
  O  O301  1  0.26598029  0.74546865  0.12885084  1
  O  O302  1  0.25985405  0.75769010  0.62357706  1
  O  O303  1  0.75800717  0.25151914  0.11954156  1
  O  O304  1  0.75463370  0.25055276  0.61846183  1
  O  O305  1  0.75196379  0.76666214  0.11541326  1
  O  O306  1  0.75034904  0.76313866  0.61147361  1
  O  O307  1  0.25085502  0.24803126  0.38818134  1
  O  O308  1  0.23558625  0.24885075  0.87622904  1
  O  O309  1  0.24739972  0.74378803  0.38171119  1
  O  O310  1  0.24047143  0.73447226  0.82897004  1
  O  O311  1  0.73904082  0.24177046  0.38281292  1
  O  O312  1  0.73840529  0.24314895  0.87957850  1
  O  O313  1  0.75519195  0.74256055  0.38926972  1
  O  O314  1  0.75072139  0.75868462  0.88215431  1
  O  O315  1  0.00446725  0.11847707  0.00644454  1
  O  O316  1  0.01333501  0.11962595  0.50794832  1
  O  O317  1  0.00100203  0.61298067  -0.01050593  1
  O  O318  1  0.00669350  0.62110331  0.50764733  1
  O  O319  1  0.50495859  0.11187218  0.00843547  1
  O  O320  1  0.49842968  0.11189950  0.49885563  1
  O  O321  1  0.51571110  0.62283515  -0.00294288  1
  O  O322  1  0.50500480  0.62496080  0.50741679  1
  O  O323  1  0.50681068  0.37512102  0.48353235  1
  O  O324  1  0.49154343  0.37704865  0.99303555  1
  O  O325  1  0.49731387  0.88309088  0.49331100  1
  O  O326  1  0.51223365  0.88328566  0.99998467  1
  O  O327  1  1.00089125  0.38998895  0.50379847  1
  O  O328  1  0.99043894  0.38356995  0.99113214  1
  O  O329  1  0.99332209  0.88145569  0.50259786  1
  O  O330  1  1.00002794  0.88073763  0.99426210  1
  O  O331  1  0.49160763  0.49072891  0.37416304  1
  O  O332  1  0.50730528  0.48604979  0.87685297  1
  O  O333  1  0.49265919  0.99215764  0.37981856  1
  O  O334  1  0.49238502  0.99673019  0.88588922  1
  O  O335  1  1.00490678  0.50769308  0.39409010  1
  O  O336  1  0.98781709  0.49537862  0.87770349  1
  O  O337  1  0.99465980  0.99309212  0.38441455  1
  O  O338  1  0.99469771  0.99129189  0.88200870  1
  O  O339  1  -0.00883107  0.01234675  0.11639268  1
  O  O340  1  0.01123108  0.00586265  0.62097495  1
  O  O341  1  -0.01019147  0.49987244  0.10445476  1
  O  O342  1  0.01189799  0.51115486  0.62051693  1
  O  O343  1  0.50849867  0.00191218  0.12102796  1
  O  O344  1  0.51058410  0.00047502  0.61471819  1
  O  O345  1  0.50395322  0.50656983  0.12669967  1
  O  O346  1  0.50555564  0.50705138  0.62361061  1
  O  O347  1  0.23791135  0.38340302  0.25024909  1
  O  O348  1  0.24199245  0.38191947  0.75330989  1
  O  O349  1  0.22444869  0.86222804  0.26093447  1
  O  O350  1  0.24262194  0.87589039  0.74204037  1
  O  O351  1  0.73393763  0.36128233  0.23525085  1
  O  O352  1  0.74400186  0.37868858  0.74216978  1
  O  O353  1  0.75081701  0.87362626  0.24396809  1
  O  O354  1  0.74552732  0.87175025  0.73754892  1
  O  O355  1  0.25255333  0.13339128  0.24960892  1
  O  O356  1  0.26405917  0.12617990  0.75383460  1
  O  O357  1  0.24744291  0.61938955  0.25749509  1
  O  O358  1  0.26925417  0.61054273  0.73423843  1
  O  O359  1  0.75803776  0.12681678  0.26355653  1
  O  O360  1  0.75105270  0.12757343  0.76398148  1
  O  O361  1  0.73004980  0.61819144  0.27968652  1
  O  O362  1  0.75863261  0.62322978  0.74494437  1
  O  O363  1  0.37757362  0.10696251  0.37497722  1
  O  O364  1  0.37373407  0.11459267  0.87008675  1
  O  O365  1  0.36212379  0.62051787  0.37358790  1
  O  O366  1  0.37643773  0.62847204  0.86377494  1
  O  O367  1  0.86973137  0.11759687  0.37355448  1
  O  O368  1  0.86580026  0.11967474  0.87508177  1
  O  O369  1  0.86217214  0.62242486  0.38460583  1
  O  O370  1  0.87254671  0.61817609  0.85920050  1
  O  O371  1  0.12158031  0.38491948  0.13600641  1
  O  O372  1  0.11873087  0.38349120  0.63732392  1
  O  O373  1  0.11777939  0.87567043  0.12890897  1
  O  O374  1  0.13228908  0.88434924  0.63282766  1
  O  O375  1  0.62874269  0.36238883  0.13233386  1
  O  O376  1  0.62961870  0.37859359  0.62938533  1
  O  O377  1  0.63766977  0.88130535  0.13362428  1
  O  O378  1  0.63412371  0.88376097  0.63130391  1
  O  O379  1  0.11781210  0.26788933  0.25110469  1
  O  O380  1  0.12238675  0.25701177  0.75295048  1
  O  O381  1  0.09355360  0.73081177  0.24608855  1
  O  O382  1  0.10869439  0.76650302  0.74001602  1
  O  O383  1  0.61373784  0.25559985  0.25878598  1
  O  O384  1  0.62209363  0.25486250  0.75781686  1
  O  O385  1  0.63096296  0.76028026  0.24581258  1
  O  O386  1  0.61866885  0.76141079  0.74083351  1
  O  O387  1  0.38880518  0.25789995  0.24679580  1
  O  O388  1  0.37271546  0.24439367  0.73673411  1
  O  O389  1  0.37936139  0.75081861  0.23701264  1
  O  O390  1  0.38971902  0.74132421  0.74143920  1
  O  O391  1  0.88394628  0.25230539  0.24707993  1
  O  O392  1  0.88033246  0.24715342  0.74092410  1
  O  O393  1  0.90083793  0.74601996  0.25990117  1
  O  O394  1  0.88790713  0.74423058  0.75013022  1
  O  O395  1  0.37430955  0.50460201  0.48633399  1
  O  O396  1  0.37951842  0.48719607  0.99973066  1
  O  O397  1  0.38474971  0.99300925  0.49530699  1
  O  O398  1  0.38553596  0.97888669  0.99477952  1
  O  O399  1  0.89158951  0.49546291  0.50793158  1
  O  O400  1  0.87840318  0.49873587  0.98822950  1
  O  O401  1  0.88042521  0.99444651  0.49191553  1
  O  O402  1  0.88703827  1.00044443  0.98992202  1
  O  O403  1  0.11053269  0.01087120  -0.00425315  1
  O  O404  1  0.12440483  0.00735651  0.50833791  1
  O  O405  1  0.10627221  0.49603039  -0.00139481  1
  O  O406  1  0.11976318  0.51015389  0.50675975  1
  O  O407  1  0.62109083  0.00299319  0.01139883  1
  O  O408  1  0.61697654  -0.00525943  0.51321086  1
  O  O409  1  0.63048884  0.51485706  -0.00471435  1
  O  O410  1  0.62011139  0.50687879  0.50982767  1
  O  O411  1  0.37411843  0.37329938  0.11109598  1
  O  O412  1  0.37806001  0.36149859  0.62650368  1
  O  O413  1  0.37966390  0.86249075  0.11012623  1
  O  O414  1  0.37287648  0.87291565  0.62027090  1
  O  O415  1  0.86528024  0.36754601  0.11871219  1
  O  O416  1  0.87026701  0.36285663  0.62509850  1
  O  O417  1  0.86331781  0.88632259  0.12457491  1
  O  O418  1  0.86489177  0.88795811  0.61731952  1
  O  O419  1  0.12834116  0.12715339  0.38481007  1
  O  O420  1  0.12172639  0.13408183  0.87991764  1
  O  O421  1  0.13555698  0.62811026  0.38391965  1
  O  O422  1  0.12523545  0.61797944  0.89343832  1
  O  O423  1  0.63081117  0.13409629  0.36958994  1
  O  O424  1  0.62914350  0.12781094  0.87878407  1
  O  O425  1  0.62661567  0.61752272  0.39173057  1
  O  O426  1  0.62986801  0.62835178  0.88579845  1
