# generated using pymatgen
data_V85Zn86O256
_symmetry_space_group_name_H-M   'P 1'
_cell_length_a   16.94357563
_cell_length_b   16.95062047
_cell_length_c   16.92909799
_cell_angle_alpha   89.96976425
_cell_angle_beta   90.02506334
_cell_angle_gamma   89.94551395
_symmetry_Int_Tables_number   1
_chemical_formula_structural   V85Zn86O256
_chemical_formula_sum   'V85 Zn86 O256'
_cell_volume   4862.10334757
_cell_formula_units_Z   1
loop_
 _symmetry_equiv_pos_site_id
 _symmetry_equiv_pos_as_xyz
  1  'x, y, z'
loop_
 _atom_site_type_symbol
 _atom_site_label
 _atom_site_symmetry_multiplicity
 _atom_site_fract_x
 _atom_site_fract_y
 _atom_site_fract_z
 _atom_site_occupancy
  V  V0  1  0.62503262  0.62438116  0.49760535  1
  V  V1  1  0.38280997  0.12436525  0.24612449  1
  V  V2  1  0.50091851  0.74858767  0.76581118  1
  V  V3  1  0.49710669  0.24907457  0.74685924  1
  V  V4  1  0.62939455  0.25016871  0.87843925  1
  V  V5  1  0.12408086  0.50005157  0.12820094  1
  V  V6  1  0.12706323  0.12422288  0.48611558  1
  V  V7  1  0.50307774  0.37753716  0.36669688  1
  V  V8  1  0.87286445  0.50025835  0.87719315  1
  V  V9  1  0.50205419  0.50009542  0.49901826  1
  V  V10  1  0.38303829  0.87362340  -0.00395993  1
  V  V11  1  0.62474525  0.50102233  0.62420873  1
  V  V12  1  0.00347470  0.37412573  0.87195565  1
  V  V13  1  0.61613184  0.87582190  0.77400889  1
  V  V14  1  0.75397932  0.24268973  0.49883378  1
  V  V15  1  0.61821058  0.74695036  0.36204735  1
  V  V16  1  0.87366551  0.75758677  0.11114064  1
  V  V17  1  0.00430123  0.36816621  0.37887118  1
  V  V18  1  0.12683324  0.36817641  0.25687570  1
  V  V19  1  0.00456721  0.12878359  0.11578421  1
  V  V20  1  -0.00156702  0.49689237  0.00113017  1
  V  V21  1  0.37778113  0.24716367  0.12080940  1
  V  V22  1  0.01618724  0.11545934  0.63145417  1
  V  V23  1  0.62259916  0.37818499  0.75097481  1
  V  V24  1  0.37766972  0.50656501  0.36937397  1
  V  V25  1  0.37984549  0.00296859  0.38074971  1
  V  V26  1  0.25207035  0.62820893  0.38001063  1
  V  V27  1  0.00255954  0.74638417  0.74998399  1
  V  V28  1  -0.01500572  -0.00420499  -0.00408889  1
  V  V29  1  0.62086414  0.87389837  0.24361582  1
  V  V30  1  0.73565559  0.87206255  0.63200531  1
  V  V31  1  0.87608814  -0.00070060  0.38051759  1
  V  V32  1  0.87951819  0.12517233  0.25122047  1
  V  V33  1  0.86773222  0.62618797  0.24656329  1
  V  V34  1  0.12653097  0.87751206  0.74755197  1
  V  V35  1  0.24383105  0.24627785  0.00077218  1
  V  V36  1  0.87737370  0.62460276  0.74932395  1
  V  V37  1  0.12805486  0.00239572  0.11325968  1
  V  V38  1  0.37024459  0.87352121  0.49996878  1
  V  V39  1  0.62774313  0.48614700  0.12502045  1
  V  V40  1  0.24827206  -0.00225749  0.74027729  1
  V  V41  1  0.63003283  0.13259275  0.01034663  1
  V  V42  1  0.74633956  0.74777417  0.49697775  1
  V  V43  1  0.86627638  0.25265943  0.12208325  1
  V  V44  1  -0.00115870  0.74914142  0.25029338  1
  V  V45  1  0.49690238  0.01383316  0.00193616  1
  V  V46  1  0.50544585  0.62811518  0.14024679  1
  V  V47  1  0.00747559  0.25118042  0.74376791  1
  V  V48  1  0.12384476  0.62670879  -0.00038190  1
  V  V49  1  0.25088965  0.00223080  0.25040332  1
  V  V50  1  0.37871329  0.74324147  0.13957274  1
  V  V51  1  0.75316321  0.37592766  0.62570691  1
  V  V52  1  0.87536759  0.74430771  0.62597678  1
  V  V53  1  0.24932808  0.37531261  0.12467589  1
  V  V54  1  0.87664569  0.37167988  0.50428301  1
  V  V55  1  0.37331475  0.74568720  0.61949265  1
  V  V56  1  0.12853747  0.74996731  0.38175457  1
  V  V57  1  0.12582626  0.87583338  0.24985477  1
  V  V58  1  0.12460030  0.62603137  0.50861588  1
  V  V59  1  0.86129915  0.37038966  0.00345550  1
  V  V60  1  0.24766318  0.12044402  0.87687904  1
  V  V61  1  0.49656133  0.50810540  -0.00103894  1
  V  V62  1  0.87369535  0.87338841  0.50239284  1
  V  V63  1  0.75131577  -0.00209906  0.25091699  1
  V  V64  1  0.74197969  0.64199300  0.88764454  1
  V  V65  1  0.61461840  0.11807646  0.49634324  1
  V  V66  1  0.49194863  0.38000612  0.87535417  1
  V  V67  1  0.83210949  0.19373343  0.68010424  1
  V  V68  1  0.25272029  0.75275768  0.00219113  1
  V  V69  1  0.00027053  0.87341648  0.37731435  1
  V  V70  1  0.75452851  0.88038639  0.10939754  1
  V  V71  1  0.62683978  0.25552158  0.37264521  1
  V  V72  1  0.12687654  0.25176652  0.87259608  1
  V  V73  1  -0.00188578  0.62614398  0.12618596  1
  V  V74  1  0.26223043  0.61716343  0.87925027  1
  V  V75  1  0.75008094  0.62387834  0.36954496  1
  V  V76  1  0.50621075  0.25063456  0.24215551  1
  V  V77  1  0.37293822  0.37395195  0.50034576  1
  V  V78  1  0.37686416  0.12121360  0.74901108  1
  V  V79  1  0.24112987  0.37602419  0.63075255  1
  V  V80  1  -0.00051449  0.50438932  0.50654800  1
  V  V81  1  0.25242452  0.50616580  0.24962238  1
  V  V82  1  0.50117133  0.87704491  0.37553228  1
  V  V83  1  0.74844619  0.48410474  0.24698442  1
  V  V84  1  0.74885020  0.50419347  0.75299119  1
  Zn  Zn85  1  0.24984710  0.13764220  0.36988107  1
  Zn  Zn86  1  0.37197161  0.37852775  -0.00351357  1
  Zn  Zn87  1  0.37991667  -0.00920696  0.87153831  1
  Zn  Zn88  1  0.75607767  0.12961479  0.87812342  1
  Zn  Zn89  1  0.00487045  0.24733246  0.25286928  1
  Zn  Zn90  1  0.61643445  0.00743089  0.12987018  1
  Zn  Zn91  1  0.12362259  0.75186293  0.87690600  1
  Zn  Zn92  1  0.12090297  0.50169636  0.63570954  1
  Zn  Zn93  1  0.25412379  0.87550553  0.12547110  1
  Zn  Zn94  1  0.23947463  0.25640838  0.49246176  1
  Zn  Zn95  1  0.25063913  0.49469481  0.75678687  1
  Zn  Zn96  1  0.50100597  0.62580984  0.62730798  1
  Zn  Zn97  1  0.37856993  0.61911890  0.75235021  1
  Zn  Zn98  1  0.75170543  0.12416606  0.37623011  1
  Zn  Zn99  1  0.37253870  0.25025674  0.62226712  1
  Zn  Zn100  1  0.49094859  0.11171429  0.61608012  1
  Zn  Zn101  1  0.84945214  0.00918168  0.82845514  1
  Zn  Zn102  1  0.61406844  -0.00680150  0.62536708  1
  Zn  Zn103  1  -0.00943280  0.87571379  0.87799457  1
  Zn  Zn104  1  0.87690260  0.49993070  0.37315837  1
  Zn  Zn105  1  0.01039161  -0.00697906  0.50755151  1
  Zn  Zn106  1  0.24596060  0.87103153  0.61811764  1
  Zn  Zn107  1  0.18921026  0.18570702  0.18762838  1
  Zn  Zn108  1  0.19075462  0.19178235  0.68580941  1
  Zn  Zn109  1  0.18904778  0.68817277  0.18976287  1
  Zn  Zn110  1  0.19149711  0.68795637  0.69224435  1
  Zn  Zn111  1  0.69115455  0.18888424  0.18975095  1
  Zn  Zn112  1  0.66546790  0.18993992  0.68058108  1
  Zn  Zn113  1  0.66436897  0.71182445  0.14062510  1
  Zn  Zn114  1  0.68435226  0.68937766  0.69282027  1
  Zn  Zn115  1  0.31513476  0.31513190  0.31174784  1
  Zn  Zn116  1  0.31348394  0.31099879  0.81084585  1
  Zn  Zn117  1  0.30971057  0.81542372  0.31526845  1
  Zn  Zn118  1  0.31376988  0.80756202  0.81270146  1
  Zn  Zn119  1  0.82098142  0.30895124  0.31732112  1
  Zn  Zn120  1  0.81093087  0.31749218  0.81913147  1
  Zn  Zn121  1  0.80964783  0.81118701  0.30856402  1
  Zn  Zn122  1  0.81241754  0.81956464  0.81639086  1
  Zn  Zn123  1  0.18772363  0.44073942  0.44006655  1
  Zn  Zn124  1  0.18483093  0.43606348  0.93950938  1
  Zn  Zn125  1  0.18997176  0.94310034  0.43700906  1
  Zn  Zn126  1  0.18909918  0.93330535  0.93126228  1
  Zn  Zn127  1  0.69114668  0.43596439  0.43502260  1
  Zn  Zn128  1  0.68137404  0.44431675  0.93835294  1
  Zn  Zn129  1  0.68950650  0.93520522  0.43583789  1
  Zn  Zn130  1  0.68939953  0.95374271  0.93501112  1
  Zn  Zn131  1  0.31396515  0.06406874  0.06229268  1
  Zn  Zn132  1  0.30965333  0.06334314  0.56118518  1
  Zn  Zn133  1  0.31601792  0.56438376  0.06374091  1
  Zn  Zn134  1  0.31216015  0.55965174  0.56287239  1
  Zn  Zn135  1  0.81183685  0.06756993  0.06328823  1
  Zn  Zn136  1  0.83349243  0.03170861  0.60693525  1
  Zn  Zn137  1  0.80960270  0.56075731  0.06400810  1
  Zn  Zn138  1  0.81262857  0.56140836  0.56168863  1
  Zn  Zn139  1  0.43660062  0.43693625  0.18481246  1
  Zn  Zn140  1  0.43090238  0.44227762  0.68794513  1
  Zn  Zn141  1  0.43909720  0.93522343  0.18231366  1
  Zn  Zn142  1  0.44169118  0.93431419  0.68604611  1
  Zn  Zn143  1  0.93708327  0.43557941  0.18906642  1
  Zn  Zn144  1  0.93918960  0.43619093  0.68793934  1
  Zn  Zn145  1  0.93949811  0.93945893  0.18527367  1
  Zn  Zn146  1  0.93696549  0.92929144  0.69934037  1
  Zn  Zn147  1  0.06034701  0.05765914  0.31157964  1
  Zn  Zn148  1  0.06610901  0.06400065  0.81437966  1
  Zn  Zn149  1  0.06144428  0.55927006  0.31770280  1
  Zn  Zn150  1  0.06627714  0.56148504  0.81250393  1
  Zn  Zn151  1  0.56268439  0.06424783  0.31348377  1
  Zn  Zn152  1  0.56633938  0.05977527  0.81843830  1
  Zn  Zn153  1  0.56747040  0.56001987  0.30377150  1
  Zn  Zn154  1  0.56304625  0.56716308  0.81616311  1
  Zn  Zn155  1  0.43459344  0.19258196  0.43028792  1
  Zn  Zn156  1  0.43721377  0.18848232  0.93388508  1
  Zn  Zn157  1  0.43995835  0.68882487  0.43533308  1
  Zn  Zn158  1  0.44192502  0.68758327  0.94791682  1
  Zn  Zn159  1  0.94182980  0.18549624  0.44402760  1
  Zn  Zn160  1  0.93229056  0.18244468  0.93321624  1
  Zn  Zn161  1  0.93838485  0.68590786  0.43707239  1
  Zn  Zn162  1  0.93498874  0.68590702  0.93306612  1
  Zn  Zn163  1  0.06047055  0.31144378  0.06218869  1
  Zn  Zn164  1  0.06329573  0.30780852  0.56162964  1
  Zn  Zn165  1  0.06243864  0.81657638  0.06302314  1
  Zn  Zn166  1  0.06190285  0.80884551  0.56799331  1
  Zn  Zn167  1  0.56122843  0.31581400  0.05956903  1
  Zn  Zn168  1  0.56192942  0.31270808  0.56027434  1
  Zn  Zn169  1  0.56752694  0.81980840  0.03497084  1
  Zn  Zn170  1  0.55317503  0.80606684  0.55687920  1
  O  O171  1  0.11551589  0.11500402  0.13342174  1
  O  O172  1  0.11790814  0.12516292  0.62062768  1
  O  O173  1  0.12045081  0.62133374  0.11782597  1
  O  O174  1  0.13402518  0.62898776  0.61127621  1
  O  O175  1  0.62537932  0.12882767  0.11459300  1
  O  O176  1  0.61798224  0.12051376  0.60754740  1
  O  O177  1  0.60891056  0.60936870  0.14005886  1
  O  O178  1  0.62535836  0.61868077  0.61794565  1
  O  O179  1  0.38409067  0.38732168  0.37934182  1
  O  O180  1  0.38830536  0.37115992  0.87495579  1
  O  O181  1  0.38236970  0.88105952  0.37680861  1
  O  O182  1  0.36953101  0.87229309  0.89192166  1
  O  O183  1  0.88305260  0.37881430  0.38753243  1
  O  O184  1  0.88294236  0.38029737  0.88363331  1
  O  O185  1  0.87791930  0.87662299  0.38430329  1
  O  O186  1  0.88177718  0.89845720  0.84812233  1
  O  O187  1  0.25897871  0.00347174  0.36120791  1
  O  O188  1  0.25481771  0.00834816  0.86851125  1
  O  O189  1  0.25879103  0.50547570  0.36881056  1
  O  O190  1  0.24775253  0.51435724  0.88374233  1
  O  O191  1  0.75837692  0.00197401  0.36860977  1
  O  O192  1  0.73897869  0.01786500  0.86217320  1
  O  O193  1  0.75065284  0.50704069  0.36497323  1
  O  O194  1  0.75612703  0.50106269  0.86707294  1
  O  O195  1  0.24600295  0.49798720  0.13240491  1
  O  O196  1  0.24720736  0.48506842  0.62105001  1
  O  O197  1  0.24560358  1.00147992  0.13424430  1
  O  O198  1  0.25599019  0.99412191  0.63723475  1
  O  O199  1  0.73560400  0.50256066  0.13070637  1
  O  O200  1  0.74443532  0.49598143  0.63206377  1
  O  O201  1  0.75260714  0.99316714  0.13381009  1
  O  O202  1  0.73281622  0.97506657  0.61522776  1
  O  O203  1  0.00926843  0.37629587  0.26045467  1
  O  O204  1  -0.00508885  0.36726399  0.76327993  1
  O  O205  1  0.00560760  0.87071303  0.25659616  1
  O  O206  1  0.01101510  0.86391079  0.74862592  1
  O  O207  1  0.49599701  0.36820149  0.26031080  1
  O  O208  1  0.50393467  0.37152797  0.75545958  1
  O  O209  1  0.51405816  0.88036055  0.25565233  1
  O  O210  1  0.50714202  0.86198926  0.75481594  1
  O  O211  1  0.49060564  0.13456636  0.25241817  1
  O  O212  1  0.49299950  0.13235712  0.75152923  1
  O  O213  1  0.49084106  0.61621014  0.23818376  1
  O  O214  1  0.49945549  0.63563004  0.74888457  1
  O  O215  1  0.99094736  0.12170008  0.24248177  1
  O  O216  1  1.00775896  0.13206576  0.73880987  1
  O  O217  1  0.99101269  0.62734420  0.24617757  1
  O  O218  1  0.98543066  0.62956685  0.75676023  1
  O  O219  1  0.36774947  0.25266347  0.00635870  1
  O  O220  1  0.38131535  0.26603375  0.50024536  1
  O  O221  1  0.37118943  0.75597876  0.01049085  1
  O  O222  1  0.37948967  0.75608140  0.51027653  1
  O  O223  1  0.88223340  0.25876495  0.00883306  1
  O  O224  1  0.86604538  0.25853264  0.49420684  1
  O  O225  1  0.88354972  0.75055065  0.01235514  1
  O  O226  1  0.87040057  0.75533360  0.50540570  1
  O  O227  1  0.12275895  0.23041417  0.50221855  1
  O  O228  1  0.13738448  0.25199438  0.99495062  1
  O  O229  1  0.11861078  0.74373151  0.48847135  1
  O  O230  1  0.13324125  0.74352958  1.00405488  1
  O  O231  1  0.63160834  0.24523667  0.49266944  1
  O  O232  1  0.61579526  0.24039102  0.99349122  1
  O  O233  1  0.62657180  0.74193693  0.48664154  1
  O  O234  1  0.61921890  0.72953506  1.03925805  1
  O  O235  1  0.49294596  0.25820943  0.13484534  1
  O  O236  1  0.50126304  0.24973419  0.63831696  1
  O  O237  1  0.48762660  0.73607153  0.13171698  1
  O  O238  1  0.48751862  0.74748816  0.63185617  1
  O  O239  1  0.99732973  0.24078581  0.12926319  1
  O  O240  1  1.00399068  0.24345772  0.63822388  1
  O  O241  1  0.99476797  0.74639651  0.13162543  1
  O  O242  1  0.98789706  0.75019017  0.63759462  1
  O  O243  1  -0.00348155  0.26360939  0.37445934  1
  O  O244  1  0.00824551  0.25342596  0.86745647  1
  O  O245  1  0.00683090  0.75447053  0.36917077  1
  O  O246  1  -0.00205706  0.75238591  0.86287981  1
  O  O247  1  0.50649391  0.25909289  0.36419189  1
  O  O248  1  0.50595303  0.25877049  0.86467786  1
  O  O249  1  0.51140324  0.75544109  0.37042719  1
  O  O250  1  0.49610553  0.74438975  0.86533256  1
  O  O251  1  0.23760855  0.12567326  0.49570533  1
  O  O252  1  0.25719577  0.13410770  0.98940853  1
  O  O253  1  0.24185682  0.61773736  0.48649422  1
  O  O254  1  0.24383241  0.63013029  0.99676721  1
  O  O255  1  0.74037682  0.13877969  0.49956046  1
  O  O256  1  0.73308109  0.12625448  1.00248969  1
  O  O257  1  0.74497545  0.62836206  0.49049925  1
  O  O258  1  0.75846698  0.62365210  0.98584880  1
  O  O259  1  0.25205141  0.36811836  0.00711508  1
  O  O260  1  0.25869046  0.37664354  0.50546867  1
  O  O261  1  0.25632787  0.86675357  0.00469323  1
  O  O262  1  0.26485158  0.87700982  0.49624857  1
  O  O263  1  0.76247253  0.38004735  -0.00621247  1
  O  O264  1  0.75635009  0.36598581  0.50521185  1
  O  O265  1  0.74635698  0.88590838  0.01124803  1
  O  O266  1  0.75514599  0.86455232  0.50324475  1
  O  O267  1  0.13115756  0.49270606  0.24649251  1
  O  O268  1  0.13638835  0.50739466  0.74753149  1
  O  O269  1  0.13405996  0.99584431  0.24483124  1
  O  O270  1  0.13537159  0.99058992  0.75504438  1
  O  O271  1  0.63605301  0.49430436  0.24063732  1
  O  O272  1  0.62883631  0.49605602  0.74524852  1
  O  O273  1  0.63463724  0.99796674  0.24934046  1
  O  O274  1  0.61294170  0.97787274  0.74887164  1
  O  O275  1  0.37094035  0.00697511  0.25168775  1
  O  O276  1  0.37060749  0.00544141  0.75325990  1
  O  O277  1  0.36507987  0.49480267  0.25798629  1
  O  O278  1  0.36487145  0.50694515  0.74854876  1
  O  O279  1  0.87103937  0.00548993  0.25643984  1
  O  O280  1  0.86563262  0.00944972  0.71398655  1
  O  O281  1  0.86881339  0.50863736  0.24833942  1
  O  O282  1  0.87020102  0.50709779  0.75349578  1
  O  O283  1  0.11794176  0.38181373  0.36819468  1
  O  O284  1  0.11764402  0.36276160  0.88014292  1
  O  O285  1  0.12247465  0.86764036  0.37208357  1
  O  O286  1  0.12075343  0.86964971  0.86362808  1
  O  O287  1  0.61784908  0.36402929  0.37956329  1
  O  O288  1  0.61452262  0.37077362  0.87103823  1
  O  O289  1  0.61887306  0.86794624  0.36823662  1
  O  O290  1  0.62591625  0.87429528  0.87204099  1
  O  O291  1  0.37203757  0.13881273  0.13169885  1
  O  O292  1  0.37401284  0.12908905  0.63434392  1
  O  O293  1  0.38184469  0.63633825  0.12435908  1
  O  O294  1  0.37725719  0.63482956  0.62206855  1
  O  O295  1  0.88392799  0.13098831  0.13193303  1
  O  O296  1  0.88928792  0.13681973  0.61598412  1
  O  O297  1  0.87796551  0.63382105  0.13017769  1
  O  O298  1  0.86721035  0.63619950  0.63168263  1
  O  O299  1  0.25554877  0.25288221  0.11771644  1
  O  O300  1  0.25210787  0.26249000  0.61644829  1
  O  O301  1  0.25935247  0.74674459  0.11738951  1
  O  O302  1  0.26920729  0.75217148  0.63380509  1
  O  O303  1  0.76680812  0.24808116  0.12927887  1
  O  O304  1  0.75914836  0.25250098  0.62182359  1
  O  O305  1  0.76208506  0.77259241  0.13215666  1
  O  O306  1  0.75190744  0.75426458  0.61706468  1
  O  O307  1  0.25800775  0.25030725  0.37988990  1
  O  O308  1  0.24440178  0.24716132  0.88080778  1
  O  O309  1  0.24113257  0.74017772  0.37008326  1
  O  O310  1  0.24971959  0.74092795  0.89070167  1
  O  O311  1  0.74333203  0.24895318  0.38113019  1
  O  O312  1  0.73369514  0.24974092  0.86985602  1
  O  O313  1  0.74018237  0.74376558  0.37683167  1
  O  O314  1  0.75542364  0.74087771  0.87414336  1
  O  O315  1  -0.00057557  0.11647726  0.01169257  1
  O  O316  1  0.01126215  0.12165226  0.51128584  1
  O  O317  1  0.00630572  0.61999931  0.00500409  1
  O  O318  1  0.00943944  0.61585237  0.49415298  1
  O  O319  1  0.50407136  0.12086905  0.00137905  1
  O  O320  1  0.51174590  0.13460547  0.49609861  1
  O  O321  1  0.49608083  0.61124185  0.01431332  1
  O  O322  1  0.50795222  0.61643985  0.49814493  1
  O  O323  1  0.49615322  0.38132908  0.48877471  1
  O  O324  1  0.49703789  0.38492631  0.99193239  1
  O  O325  1  0.48915147  0.86971897  0.48257950  1
  O  O326  1  0.49307395  0.89144392  1.00256841  1
  O  O327  1  0.99427722  0.37813723  0.49718746  1
  O  O328  1  0.99706547  0.37927654  0.98921721  1
  O  O329  1  0.99156130  0.87233449  0.49774795  1
  O  O330  1  1.00236239  0.89093755  0.99911049  1
  O  O331  1  0.49661171  0.49524266  0.37562045  1
  O  O332  1  0.50740649  0.49623813  0.89066785  1
  O  O333  1  0.49116184  0.99086448  0.36832005  1
  O  O334  1  0.49496984  1.00624831  0.89389884  1
  O  O335  1  0.99826555  0.48917044  0.38706120  1
  O  O336  1  0.99462582  0.49201759  0.87979982  1
  O  O337  1  0.99343700  0.99011504  0.38068572  1
  O  O338  1  1.00838396  1.00599421  0.89467618  1
  O  O339  1  0.00814935  0.00556596  0.11525502  1
  O  O340  1  0.00253673  0.01388556  0.62598886  1
  O  O341  1  0.00442186  0.50726923  0.12178852  1
  O  O342  1  0.00245938  0.49469631  0.61190847  1
  O  O343  1  0.49980861  0.00135586  0.11081397  1
  O  O344  1  0.50145186  -0.00121720  0.61882872  1
  O  O345  1  0.50667817  0.50416548  0.12131284  1
  O  O346  1  0.50764989  0.49978402  0.61622601  1
  O  O347  1  0.24397231  0.38582807  0.24553808  1
  O  O348  1  0.25349481  0.37185604  0.73415280  1
  O  O349  1  0.24471940  0.88485004  0.24761328  1
  O  O350  1  0.24552927  0.88170366  0.75291891  1
  O  O351  1  0.76212543  0.38595967  0.25541569  1
  O  O352  1  0.74495752  0.38269813  0.74505478  1
  O  O353  1  0.74228185  0.88729664  0.25066644  1
  O  O354  1  0.72813490  0.86093470  0.73787435  1
  O  O355  1  0.26248541  0.11933988  0.24991127  1
  O  O356  1  0.25631011  0.11792971  0.75360117  1
  O  O357  1  0.24227008  0.61245544  0.26109323  1
  O  O358  1  0.25350515  0.63247662  0.77344036  1
  O  O359  1  0.76192842  0.11478107  0.25109815  1
  O  O360  1  0.76123410  0.14122629  0.72829586  1
  O  O361  1  0.76229406  0.61841954  0.25127442  1
  O  O362  1  0.75978782  0.62167748  0.75578894  1
  O  O363  1  0.37627374  0.11714461  0.36555369  1
  O  O364  1  0.36421928  0.12824307  0.86231628  1
  O  O365  1  0.36869425  0.61476662  0.37999715  1
  O  O366  1  0.36346928  0.62603480  0.88490688  1
  O  O367  1  0.87753368  0.11766318  0.36992041  1
  O  O368  1  0.86948332  0.11825455  0.87093007  1
  O  O369  1  0.86907901  0.62434446  0.36549844  1
  O  O370  1  0.86739681  0.61729014  0.86719219  1
  O  O371  1  0.12956416  0.38164526  0.13185981  1
  O  O372  1  0.13836672  0.37632118  0.61717132  1
  O  O373  1  0.12787718  0.88397924  0.13369657  1
  O  O374  1  0.13071885  0.86595674  0.63939824  1
  O  O375  1  0.62122150  0.38690791  0.12715165  1
  O  O376  1  0.63250385  0.37945682  0.62970977  1
  O  O377  1  0.63874666  0.88368011  0.13155734  1
  O  O378  1  0.63199287  0.86585321  0.61592939  1
  O  O379  1  0.12613685  0.26447381  0.24560271  1
  O  O380  1  0.11931818  0.25027600  0.75916057  1
  O  O381  1  0.11945961  0.75405816  0.25908892  1
  O  O382  1  0.11637533  0.75085379  0.75352587  1
  O  O383  1  0.61726799  0.24425883  0.25827457  1
  O  O384  1  0.61623816  0.25817117  0.75702619  1
  O  O385  1  0.63316156  0.76127327  0.25136855  1
  O  O386  1  0.60845881  0.75912737  0.74751085  1
  O  O387  1  0.38400112  0.24363854  0.24275547  1
  O  O388  1  0.38199396  0.24159549  0.74713072  1
  O  O389  1  0.36702775  0.75280289  0.23749428  1
  O  O390  1  0.38690359  0.74689241  0.74331521  1
  O  O391  1  0.88062501  0.23992714  0.24559756  1
  O  O392  1  0.88201878  0.25343652  0.74819776  1
  O  O393  1  0.88070324  0.74332970  0.24424103  1
  O  O394  1  0.87841477  0.74285508  0.74296384  1
  O  O395  1  0.38218538  0.49153738  0.49157318  1
  O  O396  1  0.39165970  0.49525479  1.00941300  1
  O  O397  1  0.37042888  0.99547889  0.48604330  1
  O  O398  1  0.38241185  0.99401223  1.00144313  1
  O  O399  1  0.88120749  0.49349131  0.49783409  1
  O  O400  1  0.88164912  0.49244315  0.99866262  1
  O  O401  1  0.87534083  0.98347613  0.50428745  1
  O  O402  1  0.88626817  1.00156146  1.00456222  1
  O  O403  1  0.13002551  -0.00313545  0.01198453  1
  O  O404  1  0.12548043  0.01449787  0.49856968  1
  O  O405  1  0.11861827  0.50702361  0.00817014  1
  O  O406  1  0.11690548  0.51029438  0.50203240  1
  O  O407  1  0.61396038  0.01725473  0.00386904  1
  O  O408  1  0.62791749  0.01761133  0.48836886  1
  O  O409  1  0.61326297  0.49763129  0.01542308  1
  O  O410  1  0.62258563  0.50437319  0.50248364  1
  O  O411  1  0.36627957  0.36269613  0.12669100  1
  O  O412  1  0.36771784  0.37412839  0.61437416  1
  O  O413  1  0.37557329  0.86112014  0.11795168  1
  O  O414  1  0.37476167  0.86470016  0.61499588  1
  O  O415  1  0.88444548  0.36495093  0.11532580  1
  O  O416  1  0.86924076  0.37884918  0.61309789  1
  O  O417  1  0.86451980  0.87202167  0.12850799  1
  O  O418  1  0.86017596  0.86063472  0.62054754  1
  O  O419  1  0.12388866  0.12355765  0.38225299  1
  O  O420  1  0.13933879  0.13716261  0.87165555  1
  O  O421  1  0.13153646  0.63198036  0.38136513  1
  O  O422  1  0.12950286  0.62849243  0.89096271  1
  O  O423  1  0.62673354  0.13695846  0.38189346  1
  O  O424  1  0.62203908  0.13720773  0.88580167  1
  O  O425  1  0.62951509  0.63142104  0.37289010  1
  O  O426  1  0.64392401  0.62344638  0.87173543  1
