# generated using pymatgen
data_V85Zn86O256
_symmetry_space_group_name_H-M   'P 1'
_cell_length_a   16.99178752
_cell_length_b   16.98168953
_cell_length_c   16.98781367
_cell_angle_alpha   89.95085805
_cell_angle_beta   89.97742665
_cell_angle_gamma   89.93957551
_symmetry_Int_Tables_number   1
_chemical_formula_structural   V85Zn86O256
_chemical_formula_sum   'V85 Zn86 O256'
_cell_volume   4901.81616059
_cell_formula_units_Z   1
loop_
 _symmetry_equiv_pos_site_id
 _symmetry_equiv_pos_as_xyz
  1  'x, y, z'
loop_
 _atom_site_type_symbol
 _atom_site_label
 _atom_site_symmetry_multiplicity
 _atom_site_fract_x
 _atom_site_fract_y
 _atom_site_fract_z
 _atom_site_occupancy
  V  V0  1  0.11081301  0.62406606  0.00172235  1
  V  V1  1  0.24128540  0.62153703  0.37476935  1
  V  V2  1  0.38089422  0.62592657  0.75297891  1
  V  V3  1  0.24858836  0.62574038  0.87869672  1
  V  V4  1  0.87752190  0.25176533  0.11641470  1
  V  V5  1  0.12325220  0.25254758  0.37769884  1
  V  V6  1  0.37086400  0.12450852  0.76246669  1
  V  V7  1  0.50372397  0.62738288  0.61390256  1
  V  V8  1  0.88627921  0.37818101  0.48486656  1
  V  V9  1  0.49640384  0.12799508  0.62417738  1
  V  V10  1  0.49098853  0.88001755  0.87858114  1
  V  V11  1  0.75240581  0.49806197  0.75055513  1
  V  V12  1  0.37579081  0.87773624  0.49968998  1
  V  V13  1  0.87045026  -0.00298104  0.87778019  1
  V  V14  1  0.49309673  0.62744308  0.12450002  1
  V  V15  1  0.36570874  0.37945601  0.00650589  1
  V  V16  1  0.75243938  0.75008574  0.00193354  1
  V  V17  1  0.14765829  0.88303436  0.24862577  1
  V  V18  1  0.68155620  0.57842992  0.43842440  1
  V  V19  1  0.61891147  0.00356990  0.12792560  1
  V  V20  1  0.37083729  0.49373836  0.38236470  1
  V  V21  1  0.49858272  0.25265740  0.75032739  1
  V  V22  1  0.36930433  0.26098365  0.61922962  1
  V  V23  1  0.49654968  0.75351937  0.25449573  1
  V  V24  1  -0.01317493  0.59348519  0.15846384  1
  V  V25  1  -0.00168102  0.47684434  -0.00739391  1
  V  V26  1  0.13153908  0.49123184  0.12266062  1
  V  V27  1  0.50029846  0.00028582  0.49899040  1
  V  V28  1  0.87626064  0.63262878  0.73990265  1
  V  V29  1  0.14691781  -0.00005298  0.12508595  1
  V  V30  1  0.87360288  0.12549216  0.75132671  1
  V  V31  1  0.75585867  0.12366546  0.37164052  1
  V  V32  1  0.62369039  0.75131142  0.87801548  1
  V  V33  1  0.24840825  0.88867392  0.62286092  1
  V  V34  1  0.75618624  0.86669958  0.62866094  1
  V  V35  1  0.75023869  0.87554189  0.12700765  1
  V  V36  1  0.01245704  0.75971618  0.23016618  1
  V  V37  1  0.04636170  0.69111129  0.69399844  1
  V  V38  1  0.24513790  0.76087027  0.00142919  1
  V  V39  1  0.74672286  0.12583338  0.87899523  1
  V  V40  1  0.11871185  0.74969197  0.87356162  1
  V  V41  1  0.62607511  0.50305038  0.62458678  1
  V  V42  1  0.74618368  0.00234975  0.75054690  1
  V  V43  1  0.75926080  0.00152347  0.25035828  1
  V  V44  1  0.62178196  0.87770918  0.75282793  1
  V  V45  1  0.62412983  0.25178478  0.87799007  1
  V  V46  1  0.83122408  0.69408218  0.18373711  1
  V  V47  1  0.13010934  0.36737791  0.24579190  1
  V  V48  1  0.24751206  0.24473045  -0.01468083  1
  V  V49  1  0.50017469  0.37921203  0.87703229  1
  V  V50  1  0.75233197  0.62349245  0.87497564  1
  V  V51  1  0.36700754  0.62285117  0.24855154  1
  V  V52  1  0.37036747  0.25372400  0.12783877  1
  V  V53  1  0.01315542  0.12112066  0.62479727  1
  V  V54  1  0.74792872  0.24536678  0.49818934  1
  V  V55  1  0.36835928  0.00136324  0.36926505  1
  V  V56  1  0.25021730  0.75259294  0.49793147  1
  V  V57  1  0.87815812  0.24765224  0.62591461  1
  V  V58  1  0.62116500  0.12861940  0.00671543  1
  V  V59  1  -0.00689306  0.24520046  0.25550123  1
  V  V60  1  0.50044763  0.75131958  0.75185535  1
  V  V61  1  0.87379796  0.48644111  0.87780370  1
  V  V62  1  0.36568374  0.76189733  0.12433208  1
  V  V63  1  0.49632603  0.36666698  0.37569834  1
  V  V64  1  0.38310661  0.12341150  0.24435891  1
  V  V65  1  0.12138990  0.75182659  0.37360077  1
  V  V66  1  0.01185574  0.51123334  0.50458872  1
  V  V67  1  0.62653581  0.87605131  0.25644701  1
  V  V68  1  0.24975058  0.12704433  0.36847405  1
  V  V69  1  0.74157761  0.75234855  0.48905496  1
  V  V70  1  0.00602988  0.25387283  0.76580440  1
  V  V71  1  0.11997990  0.88626241  0.74364532  1
  V  V72  1  -0.00558442  0.11365155  0.12869246  1
  V  V73  1  0.75053383  0.37249111  0.62416780  1
  V  V74  1  0.24733099  0.50055115  0.74092573  1
  V  V75  1  0.49693908  0.50303103  0.00260886  1
  V  V76  1  0.25477541  0.00181457  0.76280029  1
  V  V77  1  0.62477582  0.00155190  0.62453608  1
  V  V78  1  0.62319598  0.62654542  0.00091975  1
  V  V79  1  0.50020215  0.87598015  0.37473549  1
  V  V80  1  0.49444675  0.00341974  0.00004351  1
  V  V81  1  0.37920991  0.75500447  0.62410292  1
  V  V82  1  0.62906008  0.49924693  0.13298011  1
  V  V83  1  -0.00459189  0.86958103  0.86750145  1
  V  V84  1  0.87697839  0.87163271  0.00602439  1
  Zn  Zn85  1  0.63437889  0.37283676  0.25110951  1
  Zn  Zn86  1  0.12363594  0.13455715  -0.01268793  1
  Zn  Zn87  1  0.25177514  0.25754222  0.49556567  1
  Zn  Zn88  1  0.50566517  0.25057035  0.23540028  1
  Zn  Zn89  1  0.24838838  0.49232959  0.24662150  1
  Zn  Zn90  1  0.75432088  0.26321376  -0.00084355  1
  Zn  Zn91  1  0.00505584  -0.00378549  0.49870951  1
  Zn  Zn92  1  0.12422564  0.36909556  0.75303983  1
  Zn  Zn93  1  0.13346708  0.12110282  0.50183200  1
  Zn  Zn94  1  0.49991594  0.49684287  0.49726293  1
  Zn  Zn95  1  0.23362429  0.39418927  0.60199090  1
  Zn  Zn96  1  0.87757695  -0.00394659  0.38023873  1
  Zn  Zn97  1  -0.00088738  0.88140953  0.37443998  1
  Zn  Zn98  1  0.36030138  0.88915030  -0.00131157  1
  Zn  Zn99  1  0.00535285  0.00110456  -0.00527704  1
  Zn  Zn100  1  0.62499976  0.12559384  0.49827183  1
  Zn  Zn101  1  0.62242199  0.37554066  0.74919870  1
  Zn  Zn102  1  0.88150321  0.86953036  0.50104572  1
  Zn  Zn103  1  0.76253408  0.38517767  0.12803581  1
  Zn  Zn104  1  0.12333639  0.62765511  0.51603057  1
  Zn  Zn105  1  0.37564196  0.50272806  0.87634480  1
  Zn  Zn106  1  0.62441842  0.24479520  0.36445100  1
  Zn  Zn107  1  0.19210188  0.18498528  0.18463760  1
  Zn  Zn108  1  0.18913963  0.19406011  0.69530930  1
  Zn  Zn109  1  0.18126830  0.68298793  0.18273689  1
  Zn  Zn110  1  0.20785716  0.69646613  0.69094918  1
  Zn  Zn111  1  0.69090822  0.18716242  0.18820708  1
  Zn  Zn112  1  0.68437887  0.18862540  0.68894075  1
  Zn  Zn113  1  0.66827389  0.68170283  0.19941285  1
  Zn  Zn114  1  0.68491956  0.68549200  0.68937185  1
  Zn  Zn115  1  0.31068719  0.31225968  0.31230355  1
  Zn  Zn116  1  0.31820302  0.31736072  0.81144193  1
  Zn  Zn117  1  0.31348041  0.81047611  0.31574806  1
  Zn  Zn118  1  0.30903220  0.81537007  0.81400369  1
  Zn  Zn119  1  0.80972769  0.31238409  0.30599988  1
  Zn  Zn120  1  0.81045023  0.30875876  0.81006530  1
  Zn  Zn121  1  0.84542199  0.77420173  0.34558812  1
  Zn  Zn122  1  0.80997104  0.81068340  0.81142097  1
  Zn  Zn123  1  0.17921036  0.43585176  0.43529610  1
  Zn  Zn124  1  0.18872496  0.43353423  0.93096283  1
  Zn  Zn125  1  0.18195139  0.94345037  0.43831204  1
  Zn  Zn126  1  0.17130421  0.96452083  0.92273488  1
  Zn  Zn127  1  0.68692077  0.41711412  0.43663525  1
  Zn  Zn128  1  0.68753444  0.43653382  0.94648343  1
  Zn  Zn129  1  0.69085834  0.93633235  0.43790632  1
  Zn  Zn130  1  0.68311361  0.93822475  0.94086002  1
  Zn  Zn131  1  0.31601417  0.07487023  0.05944233  1
  Zn  Zn132  1  0.31321225  0.06865030  0.56001983  1
  Zn  Zn133  1  0.30793830  0.56773692  0.06123959  1
  Zn  Zn134  1  0.31577339  0.56933770  0.56000531  1
  Zn  Zn135  1  0.81044844  0.06318554  0.06359400  1
  Zn  Zn136  1  0.81671429  0.05907404  0.56011493  1
  Zn  Zn137  1  0.81259228  0.55465313  0.05433022  1
  Zn  Zn138  1  0.81788204  0.55732726  0.56104628  1
  Zn  Zn139  1  0.43835827  0.43564501  0.19098024  1
  Zn  Zn140  1  0.43736028  0.44115532  0.68707471  1
  Zn  Zn141  1  0.43499690  0.94038888  0.18553041  1
  Zn  Zn142  1  0.43638142  0.94233490  0.68903679  1
  Zn  Zn143  1  0.94599860  0.42486574  0.19077824  1
  Zn  Zn144  1  0.93831043  0.43523357  0.68673907  1
  Zn  Zn145  1  0.93838058  0.93192541  0.19113044  1
  Zn  Zn146  1  0.93546412  0.94070860  0.68789606  1
  Zn  Zn147  1  0.06479221  0.06113970  0.31206580  1
  Zn  Zn148  1  0.05914244  0.06333557  0.81035711  1
  Zn  Zn149  1  0.04292419  0.55023212  0.31442284  1
  Zn  Zn150  1  0.07931631  0.52775911  0.82763118  1
  Zn  Zn151  1  0.56381879  0.06564084  0.31452654  1
  Zn  Zn152  1  0.55793173  0.06527744  0.81536359  1
  Zn  Zn153  1  0.55107989  0.55997118  0.31039328  1
  Zn  Zn154  1  0.56506368  0.56135222  0.81142345  1
  Zn  Zn155  1  0.43559540  0.18633024  0.43805261  1
  Zn  Zn156  1  0.43897128  0.19288828  0.94404769  1
  Zn  Zn157  1  0.43348733  0.68625531  0.43337877  1
  Zn  Zn158  1  0.43411214  0.69396008  0.93998501  1
  Zn  Zn159  1  0.93523956  0.18481566  0.44029026  1
  Zn  Zn160  1  0.93804509  0.17968109  0.94274170  1
  Zn  Zn161  1  0.92141521  0.67221733  0.45356011  1
  Zn  Zn162  1  0.93386535  0.68721310  0.93386756  1
  Zn  Zn163  1  0.06491664  0.30565742  0.06445517  1
  Zn  Zn164  1  0.06573771  0.31027740  0.56844090  1
  Zn  Zn165  1  0.07202972  0.82798624  0.05805286  1
  Zn  Zn166  1  0.06537595  0.81597798  0.55909857  1
  Zn  Zn167  1  0.55863432  0.31501469  0.06308312  1
  Zn  Zn168  1  0.56034954  0.31442781  0.55817083  1
  Zn  Zn169  1  0.55899091  0.81613215  0.06624395  1
  Zn  Zn170  1  0.56784540  0.81418771  0.56194914  1
  O  O171  1  0.12160448  0.10849565  0.12176095  1
  O  O172  1  0.11465140  0.13216350  0.62863777  1
  O  O173  1  0.10914942  0.61082757  0.11971643  1
  O  O174  1  0.11817748  0.64617402  0.63518313  1
  O  O175  1  0.62826968  0.11688927  0.11611320  1
  O  O176  1  0.61212776  0.12032371  0.62651187  1
  O  O177  1  0.61292328  0.61965417  0.12048345  1
  O  O178  1  0.61667189  0.61240546  0.63293451  1
  O  O179  1  0.38395136  0.38253140  0.36767254  1
  O  O180  1  0.38700928  0.38012185  0.88294604  1
  O  O181  1  0.37961079  0.88350717  0.37894933  1
  O  O182  1  0.38811868  0.86569519  0.88019477  1
  O  O183  1  0.87337067  0.36496798  0.38768642  1
  O  O184  1  0.86455913  0.38780583  0.87080374  1
  O  O185  1  0.87885002  0.87449907  0.37842788  1
  O  O186  1  0.87705502  0.87779681  0.87915329  1
  O  O187  1  0.26407388  0.00609708  0.37806694  1
  O  O188  1  0.26624448  -0.01866313  0.85948869  1
  O  O189  1  0.25242988  0.50706507  0.36951906  1
  O  O190  1  0.25541054  0.51619303  0.86684431  1
  O  O191  1  0.74985178  0.00494763  0.36622475  1
  O  O192  1  0.75131553  0.00380375  0.87069977  1
  O  O193  1  0.73383457  0.51156971  0.38715546  1
  O  O194  1  0.75234062  0.50711019  0.87282521  1
  O  O195  1  0.23446715  0.50658844  0.12542669  1
  O  O196  1  0.26616266  0.50190226  0.63701049  1
  O  O197  1  0.24484796  1.00449029  0.11857401  1
  O  O198  1  0.26075769  0.99056841  0.63189213  1
  O  O199  1  0.73203147  0.50881889  0.12160618  1
  O  O200  1  0.74412007  0.49203660  0.62777307  1
  O  O201  1  0.73933459  0.99717524  0.13135478  1
  O  O202  1  0.74057537  0.99520224  0.63183180  1
  O  O203  1  0.01154002  0.35050862  0.24826183  1
  O  O204  1  -0.00605096  0.35527209  0.74936872  1
  O  O205  1  0.01344809  0.86822714  0.25057801  1
  O  O206  1  0.00771523  0.88070163  0.75458827  1
  O  O207  1  0.50369408  0.37322396  0.26237855  1
  O  O208  1  0.49952481  0.37248162  0.75976262  1
  O  O209  1  0.50280063  0.87025669  0.25356808  1
  O  O210  1  0.50216584  0.87259540  0.75860133  1
  O  O211  1  0.48703182  0.13105309  0.25688266  1
  O  O212  1  0.49149022  0.13122101  0.74364846  1
  O  O213  1  0.48498224  0.63454535  0.24666486  1
  O  O214  1  0.49605925  0.63069001  0.74464720  1
  O  O215  1  1.00928427  0.13282733  0.23459519  1
  O  O216  1  0.99333062  0.13091096  0.74373774  1
  O  O217  1  1.02534982  0.64924988  0.24476414  1
  O  O218  1  0.99021442  0.62274399  0.74952985  1
  O  O219  1  0.36659114  0.25934096  0.00581860  1
  O  O220  1  0.37768332  0.24694064  0.51726595  1
  O  O221  1  0.36239837  0.75144001  0.00912808  1
  O  O222  1  0.37045922  0.75831174  0.50271827  1
  O  O223  1  0.87604515  0.24525469  0.01314055  1
  O  O224  1  0.86526397  0.25392100  0.50875534  1
  O  O225  1  0.86562779  0.76091793  -0.00692776  1
  O  O226  1  0.84952029  0.75291811  0.50906580  1
  O  O227  1  0.12374921  0.24105678  0.48886761  1
  O  O228  1  0.14200702  0.25061178  1.00061936  1
  O  O229  1  0.13268204  0.74737093  0.48965795  1
  O  O230  1  0.12760913  0.74448103  0.99371707  1
  O  O231  1  0.63961611  0.25028321  0.50189386  1
  O  O232  1  0.62393819  0.24308151  0.99738989  1
  O  O233  1  0.64322249  0.74293941  0.51921820  1
  O  O234  1  0.62983075  0.74534514  0.99865407  1
  O  O235  1  0.47877620  0.25476741  0.11873715  1
  O  O236  1  0.49472370  0.24559699  0.63005763  1
  O  O237  1  0.48843932  0.74688185  0.13318373  1
  O  O238  1  0.49850408  0.74514145  0.63164318  1
  O  O239  1  0.99396365  0.23655350  0.12951303  1
  O  O240  1  0.99092854  0.23847052  0.63583143  1
  O  O241  1  1.01407130  0.75554232  0.13022194  1
  O  O242  1  0.99731387  0.75211394  0.63434909  1
  O  O243  1  0.00670347  0.23289222  0.36091745  1
  O  O244  1  -0.00872624  0.24102192  0.86320117  1
  O  O245  1  0.01989009  0.75508330  0.36051355  1
  O  O246  1  0.00269817  0.76167042  0.87612997  1
  O  O247  1  0.49730710  0.25941004  0.37404259  1
  O  O248  1  0.50426050  0.26083196  0.87233349  1
  O  O249  1  0.48862300  0.75761661  0.36139522  1
  O  O250  1  0.50628504  0.75668620  0.87205605  1
  O  O251  1  0.25463807  0.13165776  0.48479865  1
  O  O252  1  0.25198929  0.14128868  0.99226366  1
  O  O253  1  0.24687235  0.63342019  0.49246632  1
  O  O254  1  0.23763333  0.63216944  0.99242073  1
  O  O255  1  0.74759882  0.13147802  0.49704230  1
  O  O256  1  0.73767000  0.12501696  0.99344873  1
  O  O257  1  0.74992092  0.63248866  0.49840359  1
  O  O258  1  0.74543097  0.63047736  0.99306887  1
  O  O259  1  0.26171714  0.37279757  -0.00594293  1
  O  O260  1  0.24974059  0.37196915  0.49445524  1
  O  O261  1  0.24552845  0.86185497  -0.01159483  1
  O  O262  1  0.25535207  0.87269979  0.50599488  1
  O  O263  1  0.74656425  0.37497360  0.01634850  1
  O  O264  1  0.75891946  0.36587632  0.51014328  1
  O  O265  1  0.75263029  0.86860013  0.00712106  1
  O  O266  1  0.74305175  0.86793685  0.51675590  1
  O  O267  1  0.11903078  0.48726151  0.23963138  1
  O  O268  1  0.14939631  0.52033634  0.73622661  1
  O  O269  1  0.13060302  0.99079181  0.23973201  1
  O  O270  1  0.13670289  0.99031445  0.74782783  1
  O  O271  1  0.61898537  0.50676627  0.23423809  1
  O  O272  1  0.63319891  0.49677736  0.74169219  1
  O  O273  1  0.62559545  0.99409848  0.24242729  1
  O  O274  1  0.62644948  0.99759808  0.74542236  1
  O  O275  1  0.38001923  0.00903167  0.25754708  1
  O  O276  1  0.37188990  0.01699566  0.74726712  1
  O  O277  1  0.37066643  0.50922703  0.25585224  1
  O  O278  1  0.37435275  0.51539201  0.75295671  1
  O  O279  1  0.86078975  -0.00560039  0.24838898  1
  O  O280  1  0.86526770  0.00626151  0.75839470  1
  O  O281  1  0.94796766  0.52770091  0.23521432  1
  O  O282  1  0.87020206  0.50616820  0.75804042  1
  O  O283  1  0.12331457  0.35829676  0.36474212  1
  O  O284  1  0.11314242  0.41808209  0.85373518  1
  O  O285  1  0.13189428  0.86961514  0.36167898  1
  O  O286  1  0.11405471  0.87119092  0.86246889  1
  O  O287  1  0.61161615  0.36753788  0.37054478  1
  O  O288  1  0.61304440  0.37317783  0.87780163  1
  O  O289  1  0.61601293  0.88433289  0.36291475  1
  O  O290  1  0.61600554  0.87027634  0.87131945  1
  O  O291  1  0.37515433  0.13814793  0.13350313  1
  O  O292  1  0.38610688  0.13176128  0.63213430  1
  O  O293  1  0.37500594  0.63329204  0.13213681  1
  O  O294  1  0.38485577  0.63414116  0.63295641  1
  O  O295  1  0.88978546  0.12784139  0.12157985  1
  O  O296  1  0.87302872  0.13573181  0.63229191  1
  O  O297  1  0.88423325  0.62793116  0.11961522  1
  O  O298  1  0.86773875  0.62150562  0.64162163  1
  O  O299  1  0.26400295  0.24699965  0.11278054  1
  O  O300  1  0.26582376  0.24567662  0.62544047  1
  O  O301  1  0.25406308  0.74348551  0.11372753  1
  O  O302  1  0.26255697  0.76327655  0.61837359  1
  O  O303  1  0.77328239  0.23802111  0.12505783  1
  O  O304  1  0.75425854  0.25508929  0.62119661  1
  O  O305  1  0.75857408  0.74996386  0.12645728  1
  O  O306  1  0.74513635  0.76706382  0.63773183  1
  O  O307  1  0.24197241  0.24269897  0.37360779  1
  O  O308  1  0.25600704  0.25726450  0.88665743  1
  O  O309  1  0.24376455  0.74253531  0.37837070  1
  O  O310  1  0.24080805  0.74110214  0.87715892  1
  O  O311  1  0.74923809  0.24200861  0.38244363  1
  O  O312  1  0.74232565  0.24452683  0.87876004  1
  O  O313  1  0.73389643  0.76558013  0.39161840  1
  O  O314  1  0.74169495  0.74288836  0.87977587  1
  O  O315  1  0.00662959  0.11944909  0.01378805  1
  O  O316  1  -0.00195169  0.12859509  0.51980710  1
  O  O317  1  0.00816141  0.62527662  -0.00190605  1
  O  O318  1  0.00131624  0.61774223  0.50832623  1
  O  O319  1  0.51193302  0.11782792  -0.00605844  1
  O  O320  1  0.50176594  0.11971493  0.50864331  1
  O  O321  1  0.50251747  0.62373813  0.00438947  1
  O  O322  1  0.49468231  0.62676373  0.51177661  1
  O  O323  1  0.50269571  0.37868360  0.48232940  1
  O  O324  1  0.48947350  0.38380478  0.99426766  1
  O  O325  1  0.49622672  0.87873724  0.49516854  1
  O  O326  1  0.49899341  0.88438011  0.99337147  1
  O  O327  1  0.98550591  0.36294831  0.50190669  1
  O  O328  1  1.00590702  0.37922162  0.99350124  1
  O  O329  1  0.99961325  0.87589695  0.49480029  1
  O  O330  1  0.98965303  0.87648004  0.99012410  1
  O  O331  1  0.48844372  0.49082004  0.37574288  1
  O  O332  1  0.49950354  0.49616119  0.88272405  1
  O  O333  1  0.49110093  0.99614304  0.38103796  1
  O  O334  1  0.50554289  0.99037947  0.88581929  1
  O  O335  1  1.00052210  0.49467216  0.40330937  1
  O  O336  1  0.98573767  0.50786877  0.88915204  1
  O  O337  1  0.99613596  1.00061632  0.37428886  1
  O  O338  1  0.98466749  0.98672290  0.87401068  1
  O  O339  1  0.00039020  0.00906679  0.12805440  1
  O  O340  1  -0.00448961  0.02002828  0.63189189  1
  O  O341  1  0.00794983  0.49448911  0.10499569  1
  O  O342  1  -0.00736143  0.48654275  0.60312205  1
  O  O343  1  0.51240991  -0.00553947  0.11730291  1
  O  O344  1  0.50450769  0.00874807  0.62065257  1
  O  O345  1  0.50140027  0.50964750  0.12018027  1
  O  O346  1  0.50747658  0.50754679  0.62004470  1
  O  O347  1  0.23520177  0.37404964  0.25062840  1
  O  O348  1  0.25635584  0.39727503  0.75547220  1
  O  O349  1  0.24584856  0.87647337  0.25041900  1
  O  O350  1  0.24463440  0.87933677  0.74119532  1
  O  O351  1  0.74855328  0.37611777  0.23952925  1
  O  O352  1  0.74685497  0.37794999  0.73723284  1
  O  O353  1  0.73704762  0.88402933  0.24196598  1
  O  O354  1  0.74255494  0.88214195  0.74571308  1
  O  O355  1  0.26512321  0.12988540  0.26073368  1
  O  O356  1  0.26288212  0.11817100  0.74910967  1
  O  O357  1  0.25559907  0.62486232  0.25469994  1
  O  O358  1  0.26408012  0.62327428  0.75733650  1
  O  O359  1  0.74430896  0.11232589  0.25892053  1
  O  O360  1  0.75235975  0.12137997  0.75854258  1
  O  O361  1  0.76724156  0.64206547  0.23910290  1
  O  O362  1  0.75612182  0.61830149  0.75727968  1
  O  O363  1  0.37128990  0.11876164  0.36835992  1
  O  O364  1  0.38396769  0.13284756  0.85995269  1
  O  O365  1  0.36230283  0.61989161  0.36636375  1
  O  O366  1  0.36809198  0.62932433  0.86914432  1
  O  O367  1  0.85943583  0.12151679  0.38105788  1
  O  O368  1  0.86644842  0.11599201  0.87388756  1
  O  O369  1  0.87542149  0.66756577  0.35616828  1
  O  O370  1  0.86224957  0.61749281  0.87131712  1
  O  O371  1  0.12051097  0.38024035  0.13122783  1
  O  O372  1  0.13414518  0.35926142  0.64073196  1
  O  O373  1  0.12989528  0.88528278  0.14102542  1
  O  O374  1  0.13760662  0.86696904  0.63471382  1
  O  O375  1  0.61429755  0.39489093  0.12578004  1
  O  O376  1  0.63025460  0.38698886  0.62201246  1
  O  O377  1  0.63003193  0.88283763  0.13186276  1
  O  O378  1  0.62857250  0.88442590  0.63565584  1
  O  O379  1  0.11956503  0.25059972  0.25083129  1
  O  O380  1  0.11086740  0.24528042  0.76181234  1
  O  O381  1  0.12850382  0.76458783  0.25011600  1
  O  O382  1  0.11671467  0.75040122  0.75338163  1
  O  O383  1  0.62051442  0.25223640  0.24617105  1
  O  O384  1  0.61630880  0.25382403  0.75821283  1
  O  O385  1  0.60846360  0.76349404  0.24498084  1
  O  O386  1  0.61734160  0.75605911  0.75775957  1
  O  O387  1  0.37516744  0.24734055  0.23825283  1
  O  O388  1  0.37912646  0.24214394  0.74198944  1
  O  O389  1  0.37568110  0.74456908  0.24198022  1
  O  O390  1  0.38053778  0.74331332  0.74640031  1
  O  O391  1  0.89066158  0.24629040  0.24305850  1
  O  O392  1  0.87860589  0.24176031  0.74427156  1
  O  O393  1  0.89456677  0.76072494  0.23114243  1
  O  O394  1  0.87124270  0.73123599  0.75702869  1
  O  O395  1  0.37661906  0.50826410  0.48437726  1
  O  O396  1  0.37831587  0.49679567  1.00097002  1
  O  O397  1  0.38168660  0.99540495  0.49345485  1
  O  O398  1  0.38936212  1.00264654  1.00719428  1
  O  O399  1  0.87614068  0.48135073  0.50032963  1
  O  O400  1  0.88924328  0.49708293  0.99418660  1
  O  O401  1  0.88116859  0.99102607  0.50084027  1
  O  O402  1  0.87146531  0.99017987  0.99155669  1
  O  O403  1  0.11865554  -0.02338814  0.02498521  1
  O  O404  1  0.12064630  0.00911927  0.50118194  1
  O  O405  1  0.11521665  0.50534905  0.00283425  1
  O  O406  1  0.11850655  0.50883773  0.50472921  1
  O  O407  1  0.61727269  0.00705395  0.00838553  1
  O  O408  1  0.61851141  -0.00035725  0.50965632  1
  O  O409  1  0.61480963  0.51040028  0.00804376  1
  O  O410  1  0.62726579  0.50872139  0.50336879  1
  O  O411  1  0.37372853  0.36916574  0.11817842  1
  O  O412  1  0.37558178  0.36164268  0.63136818  1
  O  O413  1  0.37509324  0.86464104  0.12078161  1
  O  O414  1  0.37224508  0.87253982  0.61991739  1
  O  O415  1  0.88279467  0.35577182  0.12686677  1
  O  O416  1  0.86567107  0.36125560  0.62448664  1
  O  O417  1  0.86799575  0.88119880  0.11256788  1
  O  O418  1  0.85741881  0.88010435  0.63059857  1
  O  O419  1  0.13686381  0.13330520  0.36848018  1
  O  O420  1  0.12760763  0.07066165  0.89532788  1
  O  O421  1  0.13527576  0.63138939  0.37063241  1
  O  O422  1  0.13048484  0.62704261  0.88199822  1
  O  O423  1  0.63588053  0.12671266  0.38004421  1
  O  O424  1  0.62842836  0.13172073  0.88214399  1
  O  O425  1  0.61959655  0.62600366  0.37575664  1
  O  O426  1  0.63492332  0.62904417  0.87930958  1
