# generated using pymatgen
data_V85Zn86O256
_symmetry_space_group_name_H-M   'P 1'
_cell_length_a   16.93457578
_cell_length_b   16.93085155
_cell_length_c   16.93318612
_cell_angle_alpha   89.96853869
_cell_angle_beta   90.01323315
_cell_angle_gamma   89.98263907
_symmetry_Int_Tables_number   1
_chemical_formula_structural   V85Zn86O256
_chemical_formula_sum   'V85 Zn86 O256'
_cell_volume   4855.02766132
_cell_formula_units_Z   1
loop_
 _symmetry_equiv_pos_site_id
 _symmetry_equiv_pos_as_xyz
  1  'x, y, z'
loop_
 _atom_site_type_symbol
 _atom_site_label
 _atom_site_symmetry_multiplicity
 _atom_site_fract_x
 _atom_site_fract_y
 _atom_site_fract_z
 _atom_site_occupancy
  V  V0  1  0.49685171  0.62196359  0.12449999  1
  V  V1  1  0.87983460  -0.00936385  0.89087078  1
  V  V2  1  0.24881227  0.87656878  0.12545560  1
  V  V3  1  0.11789712  0.12147311  -0.00112174  1
  V  V4  1  -0.00080629  0.76136119  0.74547289  1
  V  V5  1  0.00216629  0.25098534  0.74744228  1
  V  V6  1  0.50556565  0.35715008  0.87683757  1
  V  V7  1  0.62293389  0.36175752  0.75379414  1
  V  V8  1  0.75399292  -0.00033277  0.75732784  1
  V  V9  1  0.24960855  0.12301655  0.37590355  1
  V  V10  1  0.62067919  0.49928479  0.62759575  1
  V  V11  1  0.13042057  0.62521894  0.49419302  1
  V  V12  1  0.24534191  0.50317635  0.25457009  1
  V  V13  1  0.75283463  0.37609200  0.61660446  1
  V  V14  1  0.87648040  0.25300481  0.61310312  1
  V  V15  1  0.75880339  0.87127766  0.12019227  1
  V  V16  1  0.37214719  0.13130602  0.24581543  1
  V  V17  1  0.49139003  0.49793387  0.50294748  1
  V  V18  1  0.62297382  0.37551497  0.24946705  1
  V  V19  1  0.12495729  0.61864660  0.00896608  1
  V  V20  1  0.61712533  0.12672413  0.49818687  1
  V  V21  1  0.00066869  0.25087110  0.24813563  1
  V  V22  1  0.75328625  0.87208531  0.62801501  1
  V  V23  1  0.62577064  0.00165393  0.62129016  1
  V  V24  1  0.12636002  0.74994771  0.86766836  1
  V  V25  1  0.62310356  0.25376439  0.37210085  1
  V  V26  1  0.25075282  0.61976287  0.87386287  1
  V  V27  1  0.37112428  0.87875416  0.49756657  1
  V  V28  1  0.87601461  0.25736246  0.12277641  1
  V  V29  1  0.87616966  0.86904818  0.50396270  1
  V  V30  1  0.26440678  0.00192897  0.75167997  1
  V  V31  1  0.00185797  0.86596401  0.36914146  1
  V  V32  1  0.25470930  0.24886839  0.00484358  1
  V  V33  1  0.00130071  0.62938030  0.62469770  1
  V  V34  1  0.61998048  0.62746390  -0.00180605  1
  V  V35  1  0.36929903  0.62525070  0.26303307  1
  V  V36  1  0.62600355  0.87186980  0.25461994  1
  V  V37  1  0.49612247  0.12589168  0.63851193  1
  V  V38  1  0.87488202  0.00041304  0.37521614  1
  V  V39  1  0.87549298  0.63112643  0.74220849  1
  V  V40  1  0.74889843  0.62966086  0.37247232  1
  V  V41  1  0.25016019  0.74931443  -0.00045011  1
  V  V42  1  0.12646174  0.24939470  0.87452803  1
  V  V43  1  0.49243256  -0.00518072  -0.00617022  1
  V  V44  1  0.38948349  0.50022901  0.88017857  1
  V  V45  1  0.61054662  0.76018940  0.86993867  1
  V  V46  1  0.74614535  0.75267701  0.49799376  1
  V  V47  1  0.87097578  0.50267939  0.37608922  1
  V  V48  1  -0.00006215  -0.00027056  0.50063679  1
  V  V49  1  0.74714759  0.12793448  0.37247482  1
  V  V50  1  0.87027980  0.12690215  0.24711490  1
  V  V51  1  0.12015199  0.37808306  0.24411751  1
  V  V52  1  0.38308738  0.37607189  0.00851640  1
  V  V53  1  0.62154685  0.62982355  0.49793229  1
  V  V54  1  0.37482383  0.75006881  0.12573867  1
  V  V55  1  0.74907041  0.38147123  0.12184025  1
  V  V56  1  0.00331134  0.87444859  0.89484231  1
  V  V57  1  0.37946478  0.25445538  0.64018192  1
  V  V58  1  0.11613451  -0.00257436  0.12107096  1
  V  V59  1  0.62296734  0.50117851  0.11894227  1
  V  V60  1  0.12286566  -0.00099434  0.63721260  1
  V  V61  1  0.74697801  0.63116475  0.87449186  1
  V  V62  1  0.74975201  0.50147058  0.74801372  1
  V  V63  1  0.24166040  0.87279598  0.62758639  1
  V  V64  1  0.38133580  0.75310344  0.63143833  1
  V  V65  1  0.88048308  0.50453569  0.87339519  1
  V  V66  1  0.26280134  0.25647540  0.49898030  1
  V  V67  1  -0.01088669  0.37160919  0.38010915  1
  V  V68  1  0.12461489  0.24893872  0.37653568  1
  V  V69  1  -0.00557950  0.12555648  0.62676060  1
  V  V70  1  0.12574927  0.12433711  0.50171500  1
  V  V71  1  0.00676604  0.50122051  0.00942839  1
  V  V72  1  0.25316190  0.49425162  0.75106560  1
  V  V73  1  0.85831582  0.14289762  0.78190323  1
  V  V74  1  0.25004462  0.37604358  0.12629203  1
  V  V75  1  0.37814917  0.00145281  0.37554038  1
  V  V76  1  0.50316885  0.87740342  0.38056438  1
  V  V77  1  0.49973619  0.75049434  0.25826308  1
  V  V78  1  0.49646866  0.13172033  0.12518026  1
  V  V79  1  0.93616437  0.67979213  0.19235290  1
  V  V80  1  0.62038973  -0.00236955  0.12541591  1
  V  V81  1  -0.00511582  0.49587271  0.50402828  1
  V  V82  1  0.87034092  0.38108183  -0.00081174  1
  V  V83  1  0.26148934  0.12128427  0.87121573  1
  V  V84  1  0.48976468  0.37687491  0.37736984  1
  Zn  Zn85  1  0.44870383  -0.07924929  0.83499692  1
  Zn  Zn86  1  0.00346953  0.37781819  0.87333797  1
  Zn  Zn87  1  0.13006720  0.73659057  0.35894811  1
  Zn  Zn88  1  0.24624047  0.00055610  0.24872742  1
  Zn  Zn89  1  0.50313540  0.63308457  0.63105895  1
  Zn  Zn90  1  0.72275550  0.19925575  -0.07333520  1
  Zn  Zn91  1  0.12881146  0.37401023  0.74767278  1
  Zn  Zn92  1  0.12762138  0.49729814  0.62665565  1
  Zn  Zn93  1  0.25479163  0.37802420  0.61791145  1
  Zn  Zn94  1  0.74811896  0.50797852  0.25068605  1
  Zn  Zn95  1  0.49380364  0.25600654  0.24305856  1
  Zn  Zn96  1  0.37491101  0.87539085  -0.00434782  1
  Zn  Zn97  1  0.36515756  0.49965948  0.38381725  1
  Zn  Zn98  1  0.75860932  0.76155652  -0.00271768  1
  Zn  Zn99  1  0.38089110  0.62968684  0.75375555  1
  Zn  Zn100  1  0.75173379  0.25448748  0.49485238  1
  Zn  Zn101  1  0.24983492  0.74672521  0.49485860  1
  Zn  Zn102  1  0.74967007  -0.00248893  0.25005455  1
  Zn  Zn103  1  0.61974607  0.12575757  -0.00944256  1
  Zn  Zn104  1  0.12067221  0.87114539  0.24697493  1
  Zn  Zn105  1  -0.00279060  0.12308230  0.11943768  1
  Zn  Zn106  1  0.61494548  0.87543268  0.74971886  1
  Zn  Zn107  1  0.18730805  0.18712363  0.18479168  1
  Zn  Zn108  1  0.19194278  0.18549696  0.68673685  1
  Zn  Zn109  1  0.18453313  0.68917453  0.19000023  1
  Zn  Zn110  1  0.18918306  0.68423564  0.68577337  1
  Zn  Zn111  1  0.70464517  0.17654707  0.13420163  1
  Zn  Zn112  1  0.69026734  0.18749068  0.68539590  1
  Zn  Zn113  1  0.68556338  0.69204643  0.18803230  1
  Zn  Zn114  1  0.68464728  0.69125231  0.68713546  1
  Zn  Zn115  1  0.31004684  0.31219630  0.31222385  1
  Zn  Zn116  1  0.31631721  0.31243270  0.81818220  1
  Zn  Zn117  1  0.30629441  0.81118635  0.31291641  1
  Zn  Zn118  1  0.30467437  0.81559940  0.80913911  1
  Zn  Zn119  1  0.80944440  0.31686283  0.30736017  1
  Zn  Zn120  1  0.81647941  0.31947085  0.80432996  1
  Zn  Zn121  1  0.81488297  0.80968814  0.31115403  1
  Zn  Zn122  1  0.81533864  0.81347907  0.81311632  1
  Zn  Zn123  1  0.17990524  0.43662159  0.43559727  1
  Zn  Zn124  1  0.19120845  0.43500446  0.93595144  1
  Zn  Zn125  1  0.18655381  0.93738794  0.43934234  1
  Zn  Zn126  1  0.18898489  0.93677411  0.93579974  1
  Zn  Zn127  1  0.68052091  0.44163001  0.43885920  1
  Zn  Zn128  1  0.68475541  0.44327768  0.93708446  1
  Zn  Zn129  1  0.68781008  0.94096620  0.43749330  1
  Zn  Zn130  1  0.68480051  0.94589017  0.93888036  1
  Zn  Zn131  1  0.30991453  0.06287454  0.06232369  1
  Zn  Zn132  1  0.31389072  0.06354858  0.56382191  1
  Zn  Zn133  1  0.31125259  0.55830601  0.06586994  1
  Zn  Zn134  1  0.31263589  0.56520388  0.56722616  1
  Zn  Zn135  1  0.81211200  0.05581629  0.06358870  1
  Zn  Zn136  1  0.80893746  0.06402374  0.56090737  1
  Zn  Zn137  1  0.83156806  0.60292276  0.04628313  1
  Zn  Zn138  1  0.81269145  0.56359210  0.55996799  1
  Zn  Zn139  1  0.43457546  0.44154354  0.18969402  1
  Zn  Zn140  1  0.43827626  0.43578938  0.69400995  1
  Zn  Zn141  1  0.43447843  0.93983645  0.18816176  1
  Zn  Zn142  1  0.43964261  0.94251315  0.66911761  1
  Zn  Zn143  1  0.91402776  0.48597324  0.16962526  1
  Zn  Zn144  1  0.93764827  0.43717637  0.68623666  1
  Zn  Zn145  1  0.93660954  0.93865440  0.18678859  1
  Zn  Zn146  1  0.93247028  0.94293434  0.69098690  1
  Zn  Zn147  1  0.06115153  0.05919230  0.30911208  1
  Zn  Zn148  1  0.05655288  0.06481825  0.81673555  1
  Zn  Zn149  1  0.05956297  0.55648377  0.31266560  1
  Zn  Zn150  1  0.06461388  0.56388927  0.81087638  1
  Zn  Zn151  1  0.55955812  0.06230678  0.30896039  1
  Zn  Zn152  1  0.57614663  0.07182217  0.81467322  1
  Zn  Zn153  1  0.56131864  0.56134608  0.31434530  1
  Zn  Zn154  1  0.56067709  0.56512794  0.80884648  1
  Zn  Zn155  1  0.43956045  0.18823302  0.43648934  1
  Zn  Zn156  1  0.43674641  0.18563006  0.94277678  1
  Zn  Zn157  1  0.43693096  0.69134045  0.44309901  1
  Zn  Zn158  1  0.43675526  0.68928924  0.93845466  1
  Zn  Zn159  1  0.93676459  0.18516526  0.43693037  1
  Zn  Zn160  1  0.93081706  0.19572170  0.93694635  1
  Zn  Zn161  1  0.93511636  0.68667590  0.43823794  1
  Zn  Zn162  1  0.94137353  0.69075528  0.93733034  1
  Zn  Zn163  1  0.06141886  0.31551358  0.06012831  1
  Zn  Zn164  1  0.06985306  0.31439168  0.56333474  1
  Zn  Zn165  1  0.06335092  0.79902362  0.07144615  1
  Zn  Zn166  1  0.06201247  0.81066411  0.56062283  1
  Zn  Zn167  1  0.57119655  0.30723090  0.05309556  1
  Zn  Zn168  1  0.56024589  0.31199966  0.56181672  1
  Zn  Zn169  1  0.56482926  0.81148453  0.06195427  1
  Zn  Zn170  1  0.56327765  0.81761251  0.56166981  1
  O  O171  1  0.12406598  0.11700254  0.11660929  1
  O  O172  1  0.11648622  0.12065244  0.62005997  1
  O  O173  1  0.13454440  0.62276296  0.10706758  1
  O  O174  1  0.11685059  0.61905501  0.61777462  1
  O  O175  1  0.61223124  0.10826201  0.13615057  1
  O  O176  1  0.61888187  0.12417315  0.61789412  1
  O  O177  1  0.61917518  0.62132559  0.11882827  1
  O  O178  1  0.62572866  0.61755685  0.61708291  1
  O  O179  1  0.38636109  0.37643277  0.37115218  1
  O  O180  1  0.38846480  0.37951877  0.88329422  1
  O  O181  1  0.37880222  0.88251549  0.37930854  1
  O  O182  1  0.36177940  0.87509988  0.88280363  1
  O  O183  1  0.88448955  0.37563359  0.37725067  1
  O  O184  1  0.87268448  0.39121861  0.87992983  1
  O  O185  1  0.88307083  0.87957222  0.38192523  1
  O  O186  1  0.89270705  0.87692198  0.87327233  1
  O  O187  1  0.25949455  0.00502728  0.37462729  1
  O  O188  1  0.24076733  0.00886356  0.86273900  1
  O  O189  1  0.24980674  0.49110677  0.36086958  1
  O  O190  1  0.25933034  0.50494737  0.87087778  1
  O  O191  1  0.75624314  0.00858346  0.37055686  1
  O  O192  1  0.76524489  -0.01402535  0.86579411  1
  O  O193  1  0.75429915  0.50990494  0.38158025  1
  O  O194  1  0.75479766  0.51233344  0.86745736  1
  O  O195  1  0.25278842  0.48446243  0.13636137  1
  O  O196  1  0.25370001  0.49705318  0.63647014  1
  O  O197  1  0.23972251  0.99182226  0.12323959  1
  O  O198  1  0.24155475  0.99775625  0.63192932  1
  O  O199  1  0.73839464  0.49330669  0.12936496  1
  O  O200  1  0.74288992  0.49482969  0.62750654  1
  O  O201  1  0.73841403  0.98853477  0.13095405  1
  O  O202  1  0.74688080  0.99207789  0.63124711  1
  O  O203  1  0.00516489  0.36214752  0.25840366  1
  O  O204  1  0.00100948  0.36248188  0.75068945  1
  O  O205  1  -0.00415396  0.87974486  0.26690621  1
  O  O206  1  -0.00349875  0.86282928  0.74670778  1
  O  O207  1  0.50403957  0.37668778  0.25691940  1
  O  O208  1  0.50858487  0.37637814  0.76669091  1
  O  O209  1  0.50189217  0.86923318  0.25929020  1
  O  O210  1  0.50298116  0.88997938  0.74457744  1
  O  O211  1  0.48980609  0.12751329  0.24286924  1
  O  O212  1  0.50672832  0.12407551  0.73679748  1
  O  O213  1  0.49377724  0.63333260  0.24720820  1
  O  O214  1  0.49304950  0.62188088  0.74288827  1
  O  O215  1  0.99031362  0.13727253  0.25240905  1
  O  O216  1  0.98811026  0.13723776  0.74779441  1
  O  O217  1  0.99657546  0.62871836  0.25572198  1
  O  O218  1  0.99369929  0.63168606  0.74332664  1
  O  O219  1  0.36214464  0.25970297  -0.00408002  1
  O  O220  1  0.36595338  0.24466170  0.50517718  1
  O  O221  1  0.36738297  0.74846202  0.00941031  1
  O  O222  1  0.37108785  0.76294244  0.50710489  1
  O  O223  1  0.88067072  0.26964894  0.00895015  1
  O  O224  1  0.87397565  0.25001727  0.50877288  1
  O  O225  1  0.85820922  0.70831330  0.00573612  1
  O  O226  1  0.86739018  0.76279992  0.50025321  1
  O  O227  1  0.13156470  0.24050170  0.49496281  1
  O  O228  1  0.13499463  0.24726991  0.99338434  1
  O  O229  1  0.12274060  0.73176745  0.50153053  1
  O  O230  1  0.13021127  0.73619331  0.99064401  1
  O  O231  1  0.62687866  0.24520698  0.49041920  1
  O  O232  1  0.63862241  0.24285033  0.99476829  1
  O  O233  1  0.63261801  0.74268561  0.50518516  1
  O  O234  1  0.62921788  0.74374229  0.98851750  1
  O  O235  1  0.50519615  0.23542409  0.12327162  1
  O  O236  1  0.48907084  0.24073660  0.62162915  1
  O  O237  1  0.49560614  0.74199338  0.13436197  1
  O  O238  1  0.48464334  0.75575899  0.62038653  1
  O  O239  1  0.99546748  0.25092852  0.13413896  1
  O  O240  1  0.99602260  0.24687325  0.62845821  1
  O  O241  1  0.99016620  0.73357323  0.12494529  1
  O  O242  1  1.00401819  0.73826708  0.63138548  1
  O  O243  1  0.00360244  0.25467373  0.37102357  1
  O  O244  1  0.00747555  0.25287552  0.86520975  1
  O  O245  1  0.00189319  0.76434748  0.38411916  1
  O  O246  1  0.00631050  0.75773809  0.86808399  1
  O  O247  1  0.50716078  0.25933984  0.37302215  1
  O  O248  1  0.49840702  0.25863274  0.87655295  1
  O  O249  1  0.49357358  0.75901082  0.36504031  1
  O  O250  1  0.51147609  0.75128092  0.87743039  1
  O  O251  1  0.24475290  0.13084956  0.49493744  1
  O  O252  1  0.24211453  0.13284783  0.99510960  1
  O  O253  1  0.23324330  0.62074226  0.50349649  1
  O  O254  1  0.24375707  0.62568889  0.99249558  1
  O  O255  1  0.73928086  0.13012926  0.49129879  1
  O  O256  1  0.74075135  0.13398545  1.02973665  1
  O  O257  1  0.74306101  0.63474485  0.49714957  1
  O  O258  1  0.73114729  0.61490653  0.98785820  1
  O  O259  1  0.25616914  0.36908736  0.00791935  1
  O  O260  1  0.24378485  0.36112351  0.49769125  1
  O  O261  1  0.24771007  0.86704462  0.01013430  1
  O  O262  1  0.25520120  0.87751956  0.51099604  1
  O  O263  1  0.76170389  0.38809626  0.00534460  1
  O  O264  1  0.74147178  0.37562109  0.51330454  1
  O  O265  1  0.74513827  0.87802868  0.01545970  1
  O  O266  1  0.75536709  0.87017508  0.50401912  1
  O  O267  1  0.12990352  0.48824317  0.25321646  1
  O  O268  1  0.13756927  0.49793395  0.75169357  1
  O  O269  1  0.12673913  0.99531966  0.23880785  1
  O  O270  1  0.12372915  1.00746510  0.73881180  1
  O  O271  1  0.62208146  0.49260337  0.24028550  1
  O  O272  1  0.62977119  0.49549906  0.73971495  1
  O  O273  1  0.62265200  0.98742699  0.24527616  1
  O  O274  1  0.63998463  1.00276127  0.73792933  1
  O  O275  1  0.37044734  0.01036612  0.25849057  1
  O  O276  1  0.36463953  -0.00276132  0.74400875  1
  O  O277  1  0.36566500  0.50963426  0.25413567  1
  O  O278  1  0.36897342  0.50005604  0.76253719  1
  O  O279  1  0.87520901  0.01149041  0.25642804  1
  O  O280  1  0.86780524  0.01148995  0.75981789  1
  O  O281  1  0.86677164  0.49120702  0.27208767  1
  O  O282  1  0.87090347  0.50677868  0.75545497  1
  O  O283  1  0.11376509  0.36736667  0.36518741  1
  O  O284  1  0.12618066  0.36082005  0.87282609  1
  O  O285  1  0.10733513  0.88125531  0.37707047  1
  O  O286  1  0.11463964  0.86286395  0.87865334  1
  O  O287  1  0.61693625  0.37424761  0.36717644  1
  O  O288  1  0.61297910  0.38092247  0.87046955  1
  O  O289  1  0.61453037  0.88277714  0.36933019  1
  O  O290  1  0.62919688  0.86298899  0.87502382  1
  O  O291  1  0.38158378  0.12010835  0.13451796  1
  O  O292  1  0.39022717  0.13105101  0.62130222  1
  O  O293  1  0.38130594  0.62931743  0.13193798  1
  O  O294  1  0.37410364  0.64539486  0.62162790  1
  O  O295  1  0.87904766  0.13248187  0.13256749  1
  O  O296  1  0.88143701  0.13421574  0.62245836  1
  O  O297  1  0.87955021  0.59906806  0.14780589  1
  O  O298  1  0.88182603  0.62060160  0.63500164  1
  O  O299  1  0.24672859  0.26123935  0.11686750  1
  O  O300  1  0.26514569  0.24698071  0.61780998  1
  O  O301  1  0.25546698  0.75606351  0.11925203  1
  O  O302  1  0.25397226  0.75863343  0.62034380  1
  O  O303  1  0.76116338  0.27444198  0.13513609  1
  O  O304  1  0.75956730  0.25856729  0.62232071  1
  O  O305  1  0.73996242  0.76747830  0.12272663  1
  O  O306  1  0.74533524  0.76451882  0.61689731  1
  O  O307  1  0.24552496  0.24345344  0.38230688  1
  O  O308  1  0.24351773  0.24343063  0.88087367  1
  O  O309  1  0.24057327  0.75747044  0.38261101  1
  O  O310  1  0.24214811  0.74089106  0.87732523  1
  O  O311  1  0.74042263  0.24759508  0.37279579  1
  O  O312  1  0.81147529  0.21956820  0.85881685  1
  O  O313  1  0.75311076  0.74570929  0.38920759  1
  O  O314  1  0.74711494  0.73953637  0.87497180  1
  O  O315  1  0.01516853  0.13771542  0.00029888  1
  O  O316  1  0.00506790  0.11891576  0.50560784  1
  O  O317  1  0.01845889  0.61632866  -0.01018360  1
  O  O318  1  0.00351370  0.61878829  0.50872675  1
  O  O319  1  0.49935020  0.11509012  0.00950441  1
  O  O320  1  0.51384090  0.12904969  0.50347701  1
  O  O321  1  0.51008943  0.63076788  0.00973088  1
  O  O322  1  0.50669349  0.62027944  0.50584758  1
  O  O323  1  0.50712677  0.38608391  0.49026474  1
  O  O324  1  0.49398298  0.37040180  0.99046411  1
  O  O325  1  0.49221190  0.87256061  0.48695285  1
  O  O326  1  0.49822878  0.88994953  1.00552986  1
  O  O327  1  1.00711717  0.38281075  0.49163905  1
  O  O328  1  0.99162161  0.38420897  0.99401718  1
  O  O329  1  0.99202121  0.88035988  0.49559860  1
  O  O330  1  1.00280831  0.86499497  0.99250872  1
  O  O331  1  0.49730844  0.49359095  0.38480954  1
  O  O332  1  0.49109675  0.49742525  0.87691842  1
  O  O333  1  0.48643384  0.99314391  0.37085724  1
  O  O334  1  0.50451814  1.00781617  0.89023512  1
  O  O335  1  0.99121253  0.49080470  0.38325885  1
  O  O336  1  0.99246871  0.49922792  0.87607676  1
  O  O337  1  0.99241143  0.99566904  0.38267729  1
  O  O338  1  0.99920886  0.97972225  0.87276965  1
  O  O339  1  0.01118245  0.00207585  0.12605862  1
  O  O340  1  0.00422749  0.00570905  0.62146558  1
  O  O341  1  0.00942198  0.49235739  0.10906875  1
  O  O342  1  0.00043966  0.50854249  0.61966831  1
  O  O343  1  0.50365120  0.00613828  0.11992361  1
  O  O344  1  0.51096466  0.01776440  0.61896952  1
  O  O345  1  0.50471385  0.51551102  0.13183535  1
  O  O346  1  0.50697895  0.49660180  0.62017929  1
  O  O347  1  0.24123470  0.37650680  0.24404653  1
  O  O348  1  0.25283231  0.38521782  0.75407232  1
  O  O349  1  0.25012923  0.87827679  0.23498331  1
  O  O350  1  0.24529628  0.88467096  0.73515135  1
  O  O351  1  0.73869804  0.38373828  0.24417957  1
  O  O352  1  0.74331053  0.38341322  0.74265747  1
  O  O353  1  0.74013857  0.87411963  0.24627734  1
  O  O354  1  0.75140155  0.88208666  0.74206159  1
  O  O355  1  0.25460375  0.12441594  0.25719262  1
  O  O356  1  0.24738479  0.11532673  0.75899368  1
  O  O357  1  0.25730038  0.61465969  0.24329677  1
  O  O358  1  0.25597614  0.61608844  0.75835302  1
  O  O359  1  0.76141133  0.12783893  0.24820854  1
  O  O360  1  0.76299921  0.11658366  0.74134429  1
  O  O361  1  0.73529991  0.62690824  0.26867625  1
  O  O362  1  0.75642636  0.62258608  0.75274869  1
  O  O363  1  0.37117837  0.11784711  0.37126626  1
  O  O364  1  0.36042100  0.12673636  0.88090485  1
  O  O365  1  0.37832911  0.62487414  0.36561503  1
  O  O366  1  0.36594483  0.61802792  0.87923230  1
  O  O367  1  0.86736532  0.12251298  0.36788429  1
  O  O368  1  0.89978930  0.10290331  0.87494282  1
  O  O369  1  0.86195310  0.61602120  0.38495242  1
  O  O370  1  0.86873776  0.61748813  0.86288951  1
  O  O371  1  0.13130434  0.36852347  0.13719433  1
  O  O372  1  0.13456941  0.37855715  0.62994039  1
  O  O373  1  0.12983242  0.88070583  0.12156578  1
  O  O374  1  0.13009392  0.88623613  0.61647525  1
  O  O375  1  0.62739262  0.38267225  0.12829689  1
  O  O376  1  0.62886059  0.38042349  0.63339231  1
  O  O377  1  0.62475350  0.88314966  0.13465377  1
  O  O378  1  0.63295147  0.88622303  0.62424416  1
  O  O379  1  0.11776295  0.25289217  0.25611073  1
  O  O380  1  0.11896929  0.24736319  0.75614361  1
  O  O381  1  0.12116878  0.75693906  0.24797185  1
  O  O382  1  0.11705241  0.74098083  0.76102228  1
  O  O383  1  0.61980986  0.26728193  0.25510502  1
  O  O384  1  0.63449759  0.26251754  0.75084307  1
  O  O385  1  0.61294724  0.76263568  0.24830913  1
  O  O386  1  0.62796612  0.75330906  0.76550912  1
  O  O387  1  0.37549390  0.23626252  0.25540072  1
  O  O388  1  0.37159568  0.24739203  0.73855988  1
  O  O389  1  0.37955568  0.74398004  0.24431398  1
  O  O390  1  0.36684010  0.75231184  0.73393389  1
  O  O391  1  0.88240891  0.24738283  0.24503974  1
  O  O392  1  0.88400057  0.24653518  0.73417582  1
  O  O393  1  0.87405003  0.73989819  0.24563342  1
  O  O394  1  0.88448022  0.74044487  0.75377082  1
  O  O395  1  0.38651159  0.50583741  0.50150159  1
  O  O396  1  0.36916499  0.48735348  0.99264864  1
  O  O397  1  0.37160701  0.98811226  0.49394889  1
  O  O398  1  0.38905203  0.99947528  1.00584890  1
  O  O399  1  0.88653971  0.50099700  0.49429573  1
  O  O400  1  0.88639251  0.50353666  0.99138286  1
  O  O401  1  0.87766294  0.99186426  0.49395032  1
  O  O402  1  0.87494236  0.99680142  0.99038882  1
  O  O403  1  0.12925663  0.01129402  0.00576155  1
  O  O404  1  0.12000665  0.00867784  0.50862571  1
  O  O405  1  0.12165382  0.50977375  -0.00976501  1
  O  O406  1  0.11242027  0.50827719  0.50081773  1
  O  O407  1  0.61231942  0.00098766  0.01102546  1
  O  O408  1  0.63408136  0.01068094  0.51293788  1
  O  O409  1  0.62026938  0.50608205  0.01256611  1
  O  O410  1  0.61589917  0.50725426  0.51227191  1
  O  O411  1  0.37023332  0.37718954  0.11646439  1
  O  O412  1  0.37669469  0.35917781  0.62850981  1
  O  O413  1  0.36727093  0.86798019  0.12324654  1
  O  O414  1  0.36592855  0.86918784  0.61582192  1
  O  O415  1  0.86751885  0.38495405  0.11697980  1
  O  O416  1  0.86461501  0.36756691  0.62911171  1
  O  O417  1  0.85741701  0.87986646  0.13090885  1
  O  O418  1  0.86611094  0.88288777  0.61572017  1
  O  O419  1  0.12905301  0.12824361  0.38009095  1
  O  O420  1  0.12898106  0.13431413  0.88094948  1
  O  O421  1  0.11590693  0.62172308  0.39094704  1
  O  O422  1  0.13698069  0.62935120  0.87864269  1
  O  O423  1  0.62694316  0.13155081  0.37738153  1
  O  O424  1  0.65226819  0.11573478  0.88012212  1
  O  O425  1  0.62986404  0.61860346  0.39146215  1
  O  O426  1  0.62898250  0.63211014  0.87927574  1
