# generated using pymatgen
data_V85Zn86O256
_symmetry_space_group_name_H-M   'P 1'
_cell_length_a   16.94790074
_cell_length_b   16.92902381
_cell_length_c   16.94546748
_cell_angle_alpha   90.01643384
_cell_angle_beta   89.98738815
_cell_angle_gamma   90.01230579
_symmetry_Int_Tables_number   1
_chemical_formula_structural   V85Zn86O256
_chemical_formula_sum   'V85 Zn86 O256'
_cell_volume   4861.84762346
_cell_formula_units_Z   1
loop_
 _symmetry_equiv_pos_site_id
 _symmetry_equiv_pos_as_xyz
  1  'x, y, z'
loop_
 _atom_site_type_symbol
 _atom_site_label
 _atom_site_symmetry_multiplicity
 _atom_site_fract_x
 _atom_site_fract_y
 _atom_site_fract_z
 _atom_site_occupancy
  V  V0  1  0.62273055  0.00075929  0.12239912  1
  V  V1  1  0.74918093  0.00346860  0.25378682  1
  V  V2  1  0.62392293  0.87501899  0.24935500  1
  V  V3  1  0.37564434  0.49992234  0.87330300  1
  V  V4  1  0.75035395  0.12308512  0.88838872  1
  V  V5  1  0.87791135  0.62511284  0.23512250  1
  V  V6  1  0.87280630  0.37509972  -0.00186065  1
  V  V7  1  0.74619756  0.37014758  0.11922742  1
  V  V8  1  0.37065308  0.50504344  0.37696874  1
  V  V9  1  -0.00019394  0.62783710  0.63160616  1
  V  V10  1  0.76102975  0.86957471  0.12021835  1
  V  V11  1  0.75718074  0.38906878  0.63653884  1
  V  V12  1  -0.00093205  0.37689734  0.87461318  1
  V  V13  1  0.50700800  0.13101222  0.62373048  1
  V  V14  1  0.25789588  0.75934838  0.50496510  1
  V  V15  1  0.12664435  -0.00095148  0.12643185  1
  V  V16  1  0.62475040  0.49912441  0.12732917  1
  V  V17  1  0.87083253  0.24820851  0.11952727  1
  V  V18  1  -0.00121805  0.12249335  0.12301088  1
  V  V19  1  0.12523024  -0.00329984  0.62542760  1
  V  V20  1  0.87773387  0.75500831  0.61942904  1
  V  V21  1  0.25323393  -0.00089090  0.26517354  1
  V  V22  1  0.29774108  -0.05588001  0.68883349  1
  V  V23  1  0.63845634  0.13985116  0.48477395  1
  V  V24  1  0.00695667  0.37428015  0.37571371  1
  V  V25  1  0.87347536  0.11597021  0.75546568  1
  V  V26  1  0.87596456  0.50041632  0.37574629  1
  V  V27  1  0.37430803  0.25370943  0.62334386  1
  V  V28  1  0.11936756  0.87407715  0.74741043  1
  V  V29  1  0.13171818  0.63026329  0.00003327  1
  V  V30  1  0.37176575  0.75132328  0.10790777  1
  V  V31  1  0.25147096  0.37116934  0.12725100  1
  V  V32  1  0.24931969  0.49996091  0.75103332  1
  V  V33  1  0.37528045  0.36896495  0.00354148  1
  V  V34  1  0.00040925  0.24847860  0.74980954  1
  V  V35  1  0.13335376  0.62386381  0.49377496  1
  V  V36  1  0.12771784  0.23420215  0.37683391  1
  V  V37  1  0.36877461  0.12237927  0.26831265  1
  V  V38  1  0.25093988  0.24963512  0.00345763  1
  V  V39  1  0.24621431  0.24119746  0.49689020  1
  V  V40  1  0.37315338  -0.00627836  0.88871797  1
  V  V41  1  0.50163377  0.49961897  0.50151450  1
  V  V42  1  0.12444540  0.25001741  0.87484644  1
  V  V43  1  0.62377687  0.75080109  0.37303812  1
  V  V44  1  0.25408448  0.87262800  0.11495962  1
  V  V45  1  0.12425543  0.49827988  0.62654219  1
  V  V46  1  0.12768426  0.87112380  0.25313937  1
  V  V47  1  0.62210144  0.36469927  0.25003036  1
  V  V48  1  0.86297609  0.50483651  0.86780279  1
  V  V49  1  0.85636303  0.62130825  0.74966649  1
  V  V50  1  -0.00965006  -0.01389555  -0.01103074  1
  V  V51  1  0.50106087  0.37163241  0.37644472  1
  V  V52  1  0.62483731  0.87627453  0.75359308  1
  V  V53  1  0.49651934  0.74975798  0.24923196  1
  V  V54  1  0.86729665  0.24925555  0.62533944  1
  V  V55  1  0.75169409  0.62445975  0.37323808  1
  V  V56  1  0.63900404  0.62231954  -0.00215142  1
  V  V57  1  0.74720121  0.49911847  0.24918119  1
  V  V58  1  0.37123462  0.62852120  0.25082342  1
  V  V59  1  0.00440949  0.12646473  0.61967628  1
  V  V60  1  0.87028351  -0.00374893  0.38288318  1
  V  V61  1  0.62744980  0.74367895  0.87467795  1
  V  V62  1  -0.00400536  0.86843092  0.37934452  1
  V  V63  1  0.83374326  0.34232334  0.46804670  1
  V  V64  1  0.87343820  0.12416483  0.25611857  1
  V  V65  1  -0.00282616  0.49748988  0.50030311  1
  V  V66  1  0.12730264  0.75629270  0.87489681  1
  V  V67  1  0.12297077  0.12378706  0.00081190  1
  V  V68  1  0.00595023  0.00021107  0.49635793  1
  V  V69  1  0.00048340  0.50916095  -0.00123453  1
  V  V70  1  0.37132445  0.12766726  0.74911320  1
  V  V71  1  0.63268064  0.00383338  0.62355850  1
  V  V72  1  0.62568686  0.37797518  0.75461935  1
  V  V73  1  0.24718523  0.50403093  0.25349168  1
  V  V74  1  0.24959195  0.12187880  0.87234039  1
  V  V75  1  0.49393664  0.63430716  0.62644218  1
  V  V76  1  0.12011609  0.50345724  0.12419886  1
  V  V77  1  0.48801828  0.87766445  0.37475242  1
  V  V78  1  0.75433040  0.75984074  0.49629317  1
  V  V79  1  0.49837881  0.00398626  0.49353169  1
  V  V80  1  0.62684233  0.62328554  0.49939757  1
  V  V81  1  0.49097707  0.24822195  0.24899415  1
  V  V82  1  0.48783668  0.12559737  0.12545513  1
  V  V83  1  0.49976805  0.50057581  0.00037010  1
  V  V84  1  -0.00341555  0.74599987  0.23783512  1
  Zn  Zn85  1  0.49206950  0.75601148  0.75025175  1
  Zn  Zn86  1  0.12483661  0.37336037  0.24952574  1
  Zn  Zn87  1  0.50014993  0.62715534  0.12471957  1
  Zn  Zn88  1  0.24857991  0.37327213  0.62349148  1
  Zn  Zn89  1  0.37015385  0.63122770  0.74545143  1
  Zn  Zn90  1  0.50326522  0.24964521  0.75517878  1
  Zn  Zn91  1  0.75273814  -0.00180272  0.75708995  1
  Zn  Zn92  1  0.50123387  0.36990432  0.87645982  1
  Zn  Zn93  1  0.75743788  0.75662056  -0.00493257  1
  Zn  Zn94  1  0.62884090  0.25115208  0.88619093  1
  Zn  Zn95  1  0.62977796  0.50549976  0.63325873  1
  Zn  Zn96  1  0.37368570  0.87869044  0.50946595  1
  Zn  Zn97  1  0.12491218  0.37451418  0.75007868  1
  Zn  Zn98  1  0.49753229  -0.00309853  0.00461256  1
  Zn  Zn99  1  0.00237816  0.25147453  0.24807836  1
  Zn  Zn100  1  0.75251155  0.87756144  0.62119846  1
  Zn  Zn101  1  0.49810464  0.87099028  0.88496428  1
  Zn  Zn102  1  0.37292970  0.37399497  0.49919230  1
  Zn  Zn103  1  0.62451955  0.13464538  0.00662402  1
  Zn  Zn104  1  0.25381616  0.62902104  0.87936147  1
  Zn  Zn105  1  0.12834192  0.74206353  0.37302382  1
  Zn  Zn106  1  -0.03858800  0.78612519  0.79318706  1
  Zn  Zn107  1  0.18931738  0.18727085  0.19222661  1
  Zn  Zn108  1  0.18734830  0.18511070  0.68573890  1
  Zn  Zn109  1  0.18806092  0.68745893  0.18436947  1
  Zn  Zn110  1  0.18771954  0.68744933  0.68853739  1
  Zn  Zn111  1  0.68594597  0.18537143  0.18674283  1
  Zn  Zn112  1  0.69052528  0.19077955  0.69260176  1
  Zn  Zn113  1  0.68808642  0.68631068  0.18503149  1
  Zn  Zn114  1  0.68364793  0.69336364  0.68288292  1
  Zn  Zn115  1  0.31211938  0.31320725  0.31391506  1
  Zn  Zn116  1  0.31222402  0.31395908  0.81247062  1
  Zn  Zn117  1  0.30563307  0.80741048  0.31860795  1
  Zn  Zn118  1  0.31176474  0.80391909  0.81868964  1
  Zn  Zn119  1  0.81340398  0.31168097  0.30070978  1
  Zn  Zn120  1  0.81170641  0.30642079  0.81436087  1
  Zn  Zn121  1  0.81432598  0.81276955  0.30656059  1
  Zn  Zn122  1  0.80110542  0.81229854  0.81093524  1
  Zn  Zn123  1  0.18974170  0.43323338  0.44092614  1
  Zn  Zn124  1  0.18804379  0.43828317  0.93736734  1
  Zn  Zn125  1  0.18480507  0.93308752  0.44029585  1
  Zn  Zn126  1  0.18360496  0.93975931  0.93503487  1
  Zn  Zn127  1  0.68646000  0.42788933  0.43547220  1
  Zn  Zn128  1  0.68894636  0.43837990  0.93756263  1
  Zn  Zn129  1  0.68062138  0.94205614  0.43552235  1
  Zn  Zn130  1  0.68861729  0.94097879  0.93817904  1
  Zn  Zn131  1  0.30820601  0.06316834  0.06969883  1
  Zn  Zn132  1  0.31862679  0.07027130  0.55164615  1
  Zn  Zn133  1  0.31226651  0.55987610  0.06613943  1
  Zn  Zn134  1  0.31147072  0.56138855  0.56280321  1
  Zn  Zn135  1  0.81416515  0.05500707  0.06479355  1
  Zn  Zn136  1  0.81371594  0.06747058  0.55975802  1
  Zn  Zn137  1  0.85966188  0.61738980  0.02184552  1
  Zn  Zn138  1  0.81438917  0.56314675  0.55971423  1
  Zn  Zn139  1  0.43530054  0.43787250  0.18692556  1
  Zn  Zn140  1  0.44158549  0.43913655  0.68819138  1
  Zn  Zn141  1  0.43333800  0.93761141  0.18777040  1
  Zn  Zn142  1  0.45939204  0.94602545  0.69120352  1
  Zn  Zn143  1  0.93824032  0.43769462  0.18703806  1
  Zn  Zn144  1  0.93872980  0.43796311  0.68883596  1
  Zn  Zn145  1  0.94019819  0.93732783  0.18994403  1
  Zn  Zn146  1  0.93752802  0.93719874  0.68331024  1
  Zn  Zn147  1  0.06004349  0.05840737  0.30931355  1
  Zn  Zn148  1  0.06349914  0.05923868  0.80885440  1
  Zn  Zn149  1  0.05990861  0.56238204  0.30961508  1
  Zn  Zn150  1  0.06049261  0.56834680  0.81560146  1
  Zn  Zn151  1  0.56284103  0.06492634  0.31267080  1
  Zn  Zn152  1  0.56307421  0.06471323  0.81521011  1
  Zn  Zn153  1  0.55903453  0.56225900  0.31288207  1
  Zn  Zn154  1  0.56451157  0.56000317  0.81325469  1
  Zn  Zn155  1  0.44229166  0.19037094  0.43925081  1
  Zn  Zn156  1  0.44101508  0.18635168  0.93803418  1
  Zn  Zn157  1  0.43355985  0.68903584  0.43876045  1
  Zn  Zn158  1  0.44482215  0.68335525  0.93326551  1
  Zn  Zn159  1  0.94197627  0.18450168  0.43627200  1
  Zn  Zn160  1  0.93441190  0.18555386  0.93752392  1
  Zn  Zn161  1  0.94074473  0.68471784  0.43683195  1
  Zn  Zn162  1  0.93071816  0.80142909  0.95281568  1
  Zn  Zn163  1  0.06025102  0.31474567  0.06247362  1
  Zn  Zn164  1  0.06019355  0.31261970  0.55812614  1
  Zn  Zn165  1  0.07133620  0.81059270  0.06439264  1
  Zn  Zn166  1  0.06547158  0.81172273  0.56183859  1
  Zn  Zn167  1  0.55814772  0.30742518  0.06289424  1
  Zn  Zn168  1  0.57003603  0.31474517  0.56619281  1
  Zn  Zn169  1  0.56187757  0.81325163  0.05975483  1
  Zn  Zn170  1  0.56519262  0.81508377  0.55986156  1
  O  O171  1  0.11697582  0.12167145  0.12274206  1
  O  O172  1  0.11260176  0.11417451  0.63215870  1
  O  O173  1  0.12940948  0.61170615  0.11815148  1
  O  O174  1  0.11829691  0.61493743  0.61784653  1
  O  O175  1  0.61213204  0.11666603  0.13191172  1
  O  O176  1  0.62083821  0.12259138  0.62271642  1
  O  O177  1  0.62213219  0.61499185  0.11998162  1
  O  O178  1  0.61765556  0.62269505  0.61458664  1
  O  O179  1  0.38596460  0.38650824  0.37323344  1
  O  O180  1  0.37485459  0.38438636  0.88374046  1
  O  O181  1  0.38629801  0.87177356  0.37558903  1
  O  O182  1  0.36873663  0.89289280  0.87162998  1
  O  O183  1  0.88897783  0.38028825  0.37292893  1
  O  O184  1  0.87918318  0.38006441  0.88003109  1
  O  O185  1  0.88409159  0.88470978  0.36803999  1
  O  O186  1  0.89141491  0.85176740  0.85945701  1
  O  O187  1  0.24401609  -0.00440688  0.36454508  1
  O  O188  1  0.25793439  0.01377595  0.87935263  1
  O  O189  1  0.25873485  0.49300194  0.36634908  1
  O  O190  1  0.25746425  0.49933442  0.86729596  1
  O  O191  1  0.75847791  -0.00712851  0.36682213  1
  O  O192  1  0.74899365  0.01490835  0.87301014  1
  O  O193  1  0.75629659  0.50105736  0.36879518  1
  O  O194  1  0.76434167  0.49764812  0.87483330  1
  O  O195  1  0.24319557  0.48987192  0.13304318  1
  O  O196  1  0.24168975  0.49758693  0.63124455  1
  O  O197  1  0.24416468  0.99270372  0.13626550  1
  O  O198  1  0.24583679  1.00592032  0.62277274  1
  O  O199  1  0.73324413  0.48906038  0.13240375  1
  O  O200  1  0.75281260  0.49195581  0.62970409  1
  O  O201  1  0.74286234  0.99278713  0.13379735  1
  O  O202  1  0.74082031  0.99962736  0.62164829  1
  O  O203  1  0.00242158  0.37258418  0.25902786  1
  O  O204  1  0.00077755  0.36660769  0.75698786  1
  O  O205  1  0.00735667  0.86867909  0.25792852  1
  O  O206  1  0.01504620  0.87224753  0.73757317  1
  O  O207  1  0.50153310  0.36795458  0.25427301  1
  O  O208  1  0.51281908  0.37325609  0.75087562  1
  O  O209  1  0.50358646  0.87044646  0.25691558  1
  O  O210  1  0.51256589  0.87543914  0.75868469  1
  O  O211  1  0.48821964  0.13041949  0.24993437  1
  O  O212  1  0.48926403  0.12408827  0.74093458  1
  O  O213  1  0.49000800  0.63061097  0.24826374  1
  O  O214  1  0.50312339  0.62003297  0.73170473  1
  O  O215  1  0.99203548  0.12315848  0.23771700  1
  O  O216  1  0.99365515  0.12958997  0.74375150  1
  O  O217  1  0.99016750  0.63313608  0.25330925  1
  O  O218  1  0.99801878  0.62327641  0.73494622  1
  O  O219  1  0.36949791  0.26211514  -0.00387786  1
  O  O220  1  0.36925143  0.25113513  0.50675089  1
  O  O221  1  0.37846233  0.74041867  0.00945444  1
  O  O222  1  0.36375622  0.75489645  0.50133466  1
  O  O223  1  0.87977538  0.26207899  0.00804183  1
  O  O224  1  0.88109003  0.25439983  0.50826103  1
  O  O225  1  0.86652455  0.72751231  0.00400368  1
  O  O226  1  0.86403633  0.74039619  0.50504340  1
  O  O227  1  0.12991865  0.25277557  0.48615330  1
  O  O228  1  0.12859440  0.24371371  0.99479672  1
  O  O229  1  0.12764917  0.73522109  0.49820919  1
  O  O230  1  0.12572864  0.74017452  0.99336584  1
  O  O231  1  0.62206915  0.23837901  0.50059143  1
  O  O232  1  0.62872288  0.24876319  1.00276324  1
  O  O233  1  0.63140103  0.73987204  0.49362691  1
  O  O234  1  0.62861290  0.73750392  0.99583789  1
  O  O235  1  0.49827778  0.24211497  0.14074138  1
  O  O236  1  0.49503259  0.24189934  0.62484167  1
  O  O237  1  0.49028350  0.75003382  0.13410127  1
  O  O238  1  0.50513096  0.73690238  0.62304333  1
  O  O239  1  0.99029244  0.24218297  0.12558278  1
  O  O240  1  0.99456718  0.24346482  0.62839245  1
  O  O241  1  1.00379857  0.75466227  0.13901242  1
  O  O242  1  0.99089201  0.74014464  0.61480806  1
  O  O243  1  0.01128482  0.25629276  0.37466976  1
  O  O244  1  0.00391197  0.25480498  0.87047147  1
  O  O245  1  0.00224458  0.75637025  0.36881514  1
  O  O246  1  0.02257272  0.74409862  0.88005749  1
  O  O247  1  0.49509641  0.26036822  0.36362934  1
  O  O248  1  0.50567742  0.25207550  0.87293354  1
  O  O249  1  0.50404992  0.75611242  0.37008136  1
  O  O250  1  0.51241459  0.75168757  0.87303768  1
  O  O251  1  0.24992283  0.14030342  0.49840325  1
  O  O252  1  0.24406837  0.13133848  0.99639052  1
  O  O253  1  0.23580560  0.62317533  0.50093612  1
  O  O254  1  0.23544895  0.61271856  0.99958457  1
  O  O255  1  0.73760809  0.12639713  0.49963832  1
  O  O256  1  0.75498909  0.12125215  0.99103133  1
  O  O257  1  0.74215835  0.62908150  0.49264193  1
  O  O258  1  0.73856574  0.61562488  1.00457960  1
  O  O259  1  0.25587237  0.37070007  0.00720015  1
  O  O260  1  0.25425355  0.36332376  0.50449510  1
  O  O261  1  0.24196792  0.88231012  0.01647284  1
  O  O262  1  0.25345466  0.86560347  0.50321144  1
  O  O263  1  0.76528660  0.38323958  0.00541512  1
  O  O264  1  0.74947644  0.38474440  0.52372949  1
  O  O265  1  0.74699820  0.87674217  0.01588065  1
  O  O266  1  0.74205991  0.86268002  0.49768378  1
  O  O267  1  0.13154773  0.49976886  0.24304751  1
  O  O268  1  0.13050659  0.49991166  0.74310143  1
  O  O269  1  0.13019631  0.99131736  0.24562684  1
  O  O270  1  0.12580307  0.99093029  0.73977105  1
  O  O271  1  0.62405504  0.49190427  0.24402406  1
  O  O272  1  0.62370645  0.48493218  0.74951169  1
  O  O273  1  0.63255154  0.99682688  0.24466447  1
  O  O274  1  0.62442005  0.99557004  0.74069897  1
  O  O275  1  0.36710267  0.01152849  0.25177141  1
  O  O276  1  0.36488121  0.00395401  0.74766434  1
  O  O277  1  0.36917052  0.50950841  0.25518022  1
  O  O278  1  0.36868857  0.50015168  0.75728117  1
  O  O279  1  0.86925354  0.00598110  0.25847982  1
  O  O280  1  0.87539464  0.01264734  0.74168922  1
  O  O281  1  0.86984219  0.50182979  0.25969280  1
  O  O282  1  0.87796917  0.51129141  0.75318519  1
  O  O283  1  0.11530780  0.37435620  0.37303263  1
  O  O284  1  0.11756408  0.36771577  0.87565429  1
  O  O285  1  0.11668622  0.87266182  0.36473153  1
  O  O286  1  0.13012946  0.86667857  0.86480098  1
  O  O287  1  0.60834813  0.38377289  0.36367120  1
  O  O288  1  0.62712066  0.37420163  0.86560438  1
  O  O289  1  0.61677913  0.86848267  0.36788909  1
  O  O290  1  0.62612125  0.87028361  0.86797125  1
  O  O291  1  0.38459647  0.12008569  0.13639437  1
  O  O292  1  0.38248069  0.13515152  0.62990496  1
  O  O293  1  0.37512415  0.63165135  0.13395328  1
  O  O294  1  0.39119696  0.61917137  0.62273985  1
  O  O295  1  0.87993613  0.12945316  0.13128973  1
  O  O296  1  0.88348735  0.13261786  0.62980212  1
  O  O297  1  0.87156579  0.60793283  0.13815858  1
  O  O298  1  0.88154614  0.62818839  0.62965860  1
  O  O299  1  0.24293989  0.26320994  0.12137713  1
  O  O300  1  0.25686714  0.25020583  0.61845700  1
  O  O301  1  0.25981301  0.75952158  0.12960221  1
  O  O302  1  0.24268108  0.74096879  0.60377064  1
  O  O303  1  0.76300758  0.25406782  0.13156158  1
  O  O304  1  0.76387603  0.25943716  0.62907101  1
  O  O305  1  0.74432335  0.76745585  0.12783283  1
  O  O306  1  0.75655558  0.75088113  0.61192498  1
  O  O307  1  0.23496130  0.25544565  0.38000129  1
  O  O308  1  0.24638545  0.24066177  0.88109415  1
  O  O309  1  0.24369201  0.74860245  0.39436935  1
  O  O310  1  0.23567546  0.74514383  0.87979468  1
  O  O311  1  0.76030632  0.30827852  0.39980227  1
  O  O312  1  0.74784120  0.23012300  0.86911582  1
  O  O313  1  0.74572990  0.74480946  0.37787096  1
  O  O314  1  0.73257011  0.74950336  0.87730882  1
  O  O315  1  0.00289545  0.12029304  0.01053247  1
  O  O316  1  -0.00234178  0.11574291  0.50980559  1
  O  O317  1  0.01286857  0.60999073  0.00025918  1
  O  O318  1  0.00749326  0.61628325  0.50810385  1
  O  O319  1  0.49918423  0.11960712  0.01288210  1
  O  O320  1  0.50841765  0.12119490  0.50615197  1
  O  O321  1  0.50649920  0.61005906  0.00373809  1
  O  O322  1  0.50638855  0.62044713  0.50597083  1
  O  O323  1  0.50153789  0.38216043  0.49358253  1
  O  O324  1  0.49088571  0.38419400  1.00303001  1
  O  O325  1  0.49881815  0.88326839  0.49286036  1
  O  O326  1  0.50320068  0.88400752  0.99760861  1
  O  O327  1  0.99736803  0.38231320  0.48983160  1
  O  O328  1  0.98939425  0.38316987  0.99475027  1
  O  O329  1  1.00456429  0.88094081  0.48682813  1
  O  O330  1  1.00327533  0.88154889  1.00360712  1
  O  O331  1  0.49322764  0.49646765  0.38543973  1
  O  O332  1  0.49326803  0.49461612  0.88380063  1
  O  O333  1  0.50785214  0.99040052  0.38249827  1
  O  O334  1  0.48079569  1.00406051  0.87460050  1
  O  O335  1  0.99292074  0.49384013  0.37811907  1
  O  O336  1  0.99578001  0.49309846  0.88002464  1
  O  O337  1  0.99427682  0.99323279  0.38066396  1
  O  O338  1  1.00584945  1.00424276  0.89170770  1
  O  O339  1  0.00666541  0.00557012  0.12052187  1
  O  O340  1  0.00580372  0.00548471  0.61572940  1
  O  O341  1  0.01011185  0.49167173  0.11453513  1
  O  O342  1  0.00549251  0.50496165  0.61926628  1
  O  O343  1  0.50656244  0.00764016  0.13055116  1
  O  O344  1  0.51240364  0.01432729  0.61695585  1
  O  O345  1  0.50884938  0.49957753  0.11990987  1
  O  O346  1  0.50387579  0.50495642  0.61150656  1
  O  O347  1  0.25043161  0.38466911  0.24335476  1
  O  O348  1  0.24664498  0.38535187  0.74655159  1
  O  O349  1  0.24315991  0.87971536  0.24877655  1
  O  O350  1  0.24432590  0.87857400  0.74614117  1
  O  O351  1  0.73895294  0.37944597  0.24101473  1
  O  O352  1  0.74411022  0.37213935  0.74286534  1
  O  O353  1  0.74353468  0.88413853  0.24407864  1
  O  O354  1  0.73748151  0.87961907  0.74221531  1
  O  O355  1  0.26212312  0.11698822  0.24863730  1
  O  O356  1  0.26191820  0.13021540  0.75773380  1
  O  O357  1  0.25574920  0.61266379  0.24690721  1
  O  O358  1  0.25070030  0.61112831  0.75099368  1
  O  O359  1  0.75805452  0.11256775  0.24569861  1
  O  O360  1  0.76008848  0.12114018  0.75340680  1
  O  O361  1  0.75478605  0.61807617  0.25495176  1
  O  O362  1  0.75800978  0.62340366  0.73977556  1
  O  O363  1  0.37773356  0.12401001  0.36691915  1
  O  O364  1  0.36888113  0.11780366  0.86658991  1
  O  O365  1  0.37939686  0.61267948  0.36843641  1
  O  O366  1  0.37444311  0.60978750  0.87623312  1
  O  O367  1  0.88151218  0.11769559  0.36226557  1
  O  O368  1  0.86544428  0.12812622  0.86630286  1
  O  O369  1  0.86997412  0.61516268  0.36917351  1
  O  O370  1  0.87516005  0.61802773  0.85276019  1
  O  O371  1  0.13184887  0.38437668  0.12572207  1
  O  O372  1  0.12138379  0.38808441  0.62493518  1
  O  O373  1  0.13248755  0.87768257  0.13837388  1
  O  O374  1  0.12587364  0.88726558  0.62859024  1
  O  O375  1  0.62378832  0.37980821  0.13321905  1
  O  O376  1  0.63850483  0.37940399  0.63536835  1
  O  O377  1  0.62868310  0.88385480  0.13411326  1
  O  O378  1  0.62352472  0.88664687  0.63046639  1
  O  O379  1  0.12402364  0.25189054  0.26311446  1
  O  O380  1  0.11835661  0.25018332  0.75589144  1
  O  O381  1  0.11999611  0.75439463  0.25297432  1
  O  O382  1  0.13016876  0.75807169  0.76008831  1
  O  O383  1  0.61768466  0.26024648  0.24826846  1
  O  O384  1  0.62360263  0.26460667  0.74992087  1
  O  O385  1  0.61739726  0.75376541  0.25381572  1
  O  O386  1  0.62096869  0.75792191  0.75535964  1
  O  O387  1  0.37757806  0.23625049  0.25476068  1
  O  O388  1  0.37713012  0.24324943  0.74321389  1
  O  O389  1  0.37534017  0.73784801  0.25230777  1
  O  O390  1  0.37964673  0.74340838  0.75600423  1
  O  O391  1  0.87864943  0.24006640  0.24274506  1
  O  O392  1  0.88255844  0.24116286  0.74216878  1
  O  O393  1  0.88269791  0.73731579  0.25186267  1
  O  O394  1  0.87181205  0.73486068  0.73622745  1
  O  O395  1  0.38141104  0.49772017  0.49276042  1
  O  O396  1  0.38109163  0.49216825  0.99578287  1
  O  O397  1  0.39286889  0.99914724  0.50416820  1
  O  O398  1  0.37151365  1.00543716  0.99021666  1
  O  O399  1  0.87478855  0.49387791  0.48569480  1
  O  O400  1  0.88489852  0.50428207  0.98800328  1
  O  O401  1  0.88381085  1.00507664  0.48819827  1
  O  O402  1  0.89250797  0.99946106  1.00345234  1
  O  O403  1  0.11760819  0.00658519  0.00760249  1
  O  O404  1  0.11368720  -0.00299740  0.50639661  1
  O  O405  1  0.11918415  0.50134748  0.00635541  1
  O  O406  1  0.12183678  0.50723546  0.50699129  1
  O  O407  1  0.62667884  0.00742389  0.01575554  1
  O  O408  1  0.61731470  0.00980265  0.50640681  1
  O  O409  1  0.61751718  0.50032771  0.00724745  1
  O  O410  1  0.61935804  0.51049641  0.49685009  1
  O  O411  1  0.36415028  0.38117052  0.11586331  1
  O  O412  1  0.37778937  0.36215741  0.62560082  1
  O  O413  1  0.36541844  0.86371931  0.13119346  1
  O  O414  1  0.36736654  0.89262606  0.63503861  1
  O  O415  1  0.87066598  0.36787709  0.11833726  1
  O  O416  1  0.86538067  0.36969066  0.62804371  1
  O  O417  1  0.85935428  0.88004711  0.13281391  1
  O  O418  1  0.87335376  0.85976113  0.62646408  1
  O  O419  1  0.11857431  0.13586174  0.37260895  1
  O  O420  1  0.13279766  0.12863250  0.87835001  1
  O  O421  1  0.11870115  0.62042409  0.39102712  1
  O  O422  1  0.12941640  0.63158741  0.88320255  1
  O  O423  1  0.62524683  0.12620088  0.38537664  1
  O  O424  1  0.63700485  0.12479059  0.87982029  1
  O  O425  1  0.62961168  0.63017796  0.37961121  1
  O  O426  1  0.61944705  0.62956773  0.88561704  1
