# generated using pymatgen
data_V85Zn86O256
_symmetry_space_group_name_H-M   'P 1'
_cell_length_a   16.94301885
_cell_length_b   16.93192165
_cell_length_c   16.93691938
_cell_angle_alpha   90.08291253
_cell_angle_beta   89.95741823
_cell_angle_gamma   90.00473770
_symmetry_Int_Tables_number   1
_chemical_formula_structural   V85Zn86O256
_chemical_formula_sum   'V85 Zn86 O256'
_cell_volume   4858.82087121
_cell_formula_units_Z   1
loop_
 _symmetry_equiv_pos_site_id
 _symmetry_equiv_pos_as_xyz
  1  'x, y, z'
loop_
 _atom_site_type_symbol
 _atom_site_label
 _atom_site_symmetry_multiplicity
 _atom_site_fract_x
 _atom_site_fract_y
 _atom_site_fract_z
 _atom_site_occupancy
  V  V0  1  0.63489298  0.87218760  0.25420947  1
  V  V1  1  0.62367916  0.37898399  0.25162475  1
  V  V2  1  0.12982148  0.63093511  -0.00420680  1
  V  V3  1  0.62329592  0.51367464  0.62464642  1
  V  V4  1  0.24910839  0.62088332  0.36411488  1
  V  V5  1  0.62139454  0.24851893  0.37657956  1
  V  V6  1  0.37766077  0.24947682  0.63450173  1
  V  V7  1  0.87242919  0.24764681  0.14162244  1
  V  V8  1  -0.00543108  0.75374575  0.75055110  1
  V  V9  1  0.37223919  0.24929451  0.12635255  1
  V  V10  1  0.75442815  0.51066704  0.75757198  1
  V  V11  1  0.62706248  0.00101202  0.12555712  1
  V  V12  1  0.75048837  0.00065940  0.74677706  1
  V  V13  1  0.11336126  0.12033410  0.00202002  1
  V  V14  1  0.74986149  0.25018029  0.50385925  1
  V  V15  1  0.24986638  0.51174469  0.75253281  1
  V  V16  1  0.24465648  0.25086044  0.49725063  1
  V  V17  1  0.50397799  0.74063851  0.74239667  1
  V  V18  1  0.87475523  0.12662730  0.74684333  1
  V  V19  1  0.12047146  0.12415528  0.50381632  1
  V  V20  1  0.62523961  0.87430631  0.74598018  1
  V  V21  1  0.75039826  0.87097664  0.11447673  1
  V  V22  1  0.00053080  0.25116292  0.74933908  1
  V  V23  1  0.25144781  0.37827951  0.62808359  1
  V  V24  1  0.50005633  0.87864675  0.87350051  1
  V  V25  1  0.24916657  0.87942262  0.61923046  1
  V  V26  1  0.85770855  0.61797705  0.25291377  1
  V  V27  1  0.37294319  0.49878621  0.37582438  1
  V  V28  1  0.74719595  0.38079845  0.12671613  1
  V  V29  1  0.50142066  -0.00138850  -0.00494058  1
  V  V30  1  0.75236010  0.87479168  0.61054664  1
  V  V31  1  0.11787698  -0.01273489  0.12865222  1
  V  V32  1  0.36974351  0.12181149  0.25079939  1
  V  V33  1  0.12650744  0.37714525  0.75197307  1
  V  V34  1  0.88120447  0.00043914  0.88193839  1
  V  V35  1  0.88053077  -0.00877351  0.37787801  1
  V  V36  1  0.37215135  0.50826749  0.87847805  1
  V  V37  1  0.76040585  0.13099381  0.37124257  1
  V  V38  1  0.75764814  0.00756522  0.24893144  1
  V  V39  1  0.87409185  0.37627343  0.50138515  1
  V  V40  1  0.37970192  0.74914054  0.61992262  1
  V  V41  1  0.24821300  0.23653962  -0.00205665  1
  V  V42  1  0.62285054  0.12547184  0.49969558  1
  V  V43  1  0.24507331  -0.01954005  0.24636577  1
  V  V44  1  0.62262854  -0.00081014  0.62229681  1
  V  V45  1  0.63144178  0.73659699  0.37627805  1
  V  V46  1  0.00269210  0.24382022  0.25447450  1
  V  V47  1  0.50179282  0.51784151  0.50575708  1
  V  V48  1  0.49451678  -0.00308195  0.49912364  1
  V  V49  1  0.50179366  0.87251308  0.37643635  1
  V  V50  1  0.75020755  0.25203509  -0.00146756  1
  V  V51  1  0.37291260  0.37818830  -0.00185235  1
  V  V52  1  -0.00345554  0.62654148  0.62826235  1
  V  V53  1  0.12937767  0.37661890  0.25343824  1
  V  V54  1  0.00295791  0.49956264  0.00250904  1
  V  V55  1  0.25712496  0.75588551  0.49519787  1
  V  V56  1  0.74860385  0.12801756  0.87388979  1
  V  V57  1  0.87650246  0.37460654  0.00091086  1
  V  V58  1  0.49792837  0.24717622  0.25199279  1
  V  V59  1  0.61337658  0.25205083  0.87293269  1
  V  V60  1  -0.00072074  0.37711227  0.87526031  1
  V  V61  1  0.34427574  -0.01475958  0.89044390  1
  V  V62  1  0.24210897  0.12865698  0.37073264  1
  V  V63  1  0.49673737  0.12523403  0.63041132  1
  V  V64  1  0.00306144  0.62542951  0.13267582  1
  V  V65  1  0.75382097  0.73173360  0.48754169  1
  V  V66  1  -0.00040942  -0.01387477  0.50472406  1
  V  V67  1  0.87193342  0.74629142  0.11816488  1
  V  V68  1  0.61636214  0.50445917  0.12580830  1
  V  V69  1  0.24969080  0.38559152  0.12738732  1
  V  V70  1  0.37950822  0.37480266  0.50428924  1
  V  V71  1  0.61971094  0.37485201  0.74836668  1
  V  V72  1  0.63391028  0.74714481  0.87692348  1
  V  V73  1  0.37238838  0.12231641  0.76256708  1
  V  V74  1  0.37103995  -0.00668806  0.37665945  1
  V  V75  1  0.87606842  0.75224124  0.61767236  1
  V  V76  1  -0.00068314  0.50167536  0.49777969  1
  V  V77  1  0.49552124  0.11996450  0.12596302  1
  V  V78  1  0.12061114  0.76277117  0.36787108  1
  V  V79  1  0.62649500  0.62799657  0.00302635  1
  V  V80  1  0.23836164  0.00920334  0.74035522  1
  V  V81  1  0.13177723  0.75222320  0.87021124  1
  V  V82  1  0.00804809  0.36984994  0.37741784  1
  V  V83  1  0.12798684  0.62614516  0.49702337  1
  V  V84  1  0.38703858  0.62348229  0.24554511  1
  Zn  Zn85  1  0.85800502  0.51008569  0.37729322  1
  Zn  Zn86  1  0.00534326  0.12011311  0.62599498  1
  Zn  Zn87  1  0.49795887  0.37372578  0.37794875  1
  Zn  Zn88  1  0.49403877  0.50587847  0.00363754  1
  Zn  Zn89  1  0.87575409  0.51698534  0.87152351  1
  Zn  Zn90  1  0.49568522  0.37559108  0.87247334  1
  Zn  Zn91  1  0.12877356  0.24477539  0.87527004  1
  Zn  Zn92  1  0.87639420  0.25036230  0.62525497  1
  Zn  Zn93  1  0.74960073  0.37722321  0.62881339  1
  Zn  Zn94  1  0.29406975  0.69118211  0.93919830  1
  Zn  Zn95  1  -0.00716397  0.11949889  0.13037390  1
  Zn  Zn96  1  0.37433005  0.62934378  0.75131611  1
  Zn  Zn97  1  0.50730497  0.74053088  0.23786511  1
  Zn  Zn98  1  0.87578086  0.87040514  -0.00293120  1
  Zn  Zn99  1  0.62415596  0.12871058  0.00086703  1
  Zn  Zn100  1  0.12061553  0.88062578  0.74324971  1
  Zn  Zn101  1  0.79270447  0.67720467  -0.07119294  1
  Zn  Zn102  1  0.00371099  0.88020398  0.87885461  1
  Zn  Zn103  1  0.12735092  0.50409394  0.13283578  1
  Zn  Zn104  1  0.36504590  0.77511926  0.09593370  1
  Zn  Zn105  1  0.00602468  0.76143686  0.24659972  1
  Zn  Zn106  1  0.12558376  0.50224344  0.62605686  1
  Zn  Zn107  1  0.18288440  0.18871749  0.18328183  1
  Zn  Zn108  1  0.18732792  0.19122038  0.68425413  1
  Zn  Zn109  1  0.19232500  0.69753277  0.18497627  1
  Zn  Zn110  1  0.18491994  0.69327721  0.68273931  1
  Zn  Zn111  1  0.68584333  0.19068515  0.18796311  1
  Zn  Zn112  1  0.68456007  0.19016533  0.68869699  1
  Zn  Zn113  1  0.68980770  0.68673427  0.18565210  1
  Zn  Zn114  1  0.69254387  0.68882631  0.68508818  1
  Zn  Zn115  1  0.31070060  0.31314726  0.31371466  1
  Zn  Zn116  1  0.31065502  0.31365644  0.81547493  1
  Zn  Zn117  1  0.31690533  0.80726660  0.30901767  1
  Zn  Zn118  1  0.31364502  0.81936266  0.80242681  1
  Zn  Zn119  1  0.79806366  0.34738387  0.32861593  1
  Zn  Zn120  1  0.80992479  0.31896921  0.81209005  1
  Zn  Zn121  1  0.84392375  0.82420258  0.29795999  1
  Zn  Zn122  1  0.81559034  0.81648385  0.80237342  1
  Zn  Zn123  1  0.18807795  0.43830229  0.43926439  1
  Zn  Zn124  1  0.18942825  0.43879627  0.93869162  1
  Zn  Zn125  1  0.18438259  0.93936409  0.43917287  1
  Zn  Zn126  1  0.17423803  0.94683708  0.92905948  1
  Zn  Zn127  1  0.68464297  0.44118298  0.44095406  1
  Zn  Zn128  1  0.68544369  0.44027035  0.93765486  1
  Zn  Zn129  1  0.68931029  0.94025351  0.43346947  1
  Zn  Zn130  1  0.68696762  0.94090936  0.93445187  1
  Zn  Zn131  1  0.31146715  -0.04345395  0.06378325  1
  Zn  Zn132  1  0.31241143  0.06516048  0.56008178  1
  Zn  Zn133  1  0.29423418  0.59203891  0.08563842  1
  Zn  Zn134  1  0.31350235  0.56732285  0.56320902  1
  Zn  Zn135  1  0.81255475  0.06858661  0.06368758  1
  Zn  Zn136  1  0.81545249  0.06330072  0.56041016  1
  Zn  Zn137  1  0.81299365  0.55740325  0.06574133  1
  Zn  Zn138  1  0.81261431  0.56196944  0.56873906  1
  Zn  Zn139  1  0.43535785  0.43755009  0.18969043  1
  Zn  Zn140  1  0.43995479  0.44282018  0.69114777  1
  Zn  Zn141  1  0.45460185  0.90347121  0.17296034  1
  Zn  Zn142  1  0.43028228  0.93604183  0.68996652  1
  Zn  Zn143  1  0.93902282  0.43586782  0.19010420  1
  Zn  Zn144  1  0.93616789  0.43957456  0.68613192  1
  Zn  Zn145  1  0.93890717  0.93268510  0.18927769  1
  Zn  Zn146  1  0.93545341  0.93644449  0.68537554  1
  Zn  Zn147  1  0.06342466  0.05966480  0.31469430  1
  Zn  Zn148  1  0.06387457  0.06786480  0.81371039  1
  Zn  Zn149  1  0.06020949  0.56036705  0.31393630  1
  Zn  Zn150  1  0.06110958  0.56481303  0.81279152  1
  Zn  Zn151  1  0.56461784  0.06000782  0.31222590  1
  Zn  Zn152  1  0.56312430  0.06525777  0.81015594  1
  Zn  Zn153  1  0.56333835  0.55586244  0.31860967  1
  Zn  Zn154  1  0.56431592  0.56208025  0.81763900  1
  Zn  Zn155  1  0.43152226  0.18487672  0.43985449  1
  Zn  Zn156  1  0.43330204  0.18233994  0.94159422  1
  Zn  Zn157  1  0.43819158  0.69084767  0.43113015  1
  Zn  Zn158  1  0.45599388  0.68942379  0.93664963  1
  Zn  Zn159  1  0.93842716  0.18908611  0.43651454  1
  Zn  Zn160  1  0.93690854  0.18973223  0.93685554  1
  Zn  Zn161  1  0.93658293  0.68854084  0.43501097  1
  Zn  Zn162  1  0.95444788  0.68909726  0.93874869  1
  Zn  Zn163  1  0.06374788  0.30996895  0.06838990  1
  Zn  Zn164  1  0.06469576  0.31263425  0.56588872  1
  Zn  Zn165  1  0.05726006  0.81236405  0.05361333  1
  Zn  Zn166  1  0.06869956  0.81165594  0.55988117  1
  Zn  Zn167  1  0.55928736  0.31278511  0.06247583  1
  Zn  Zn168  1  0.56116050  0.31410194  0.56877802  1
  Zn  Zn169  1  0.56198225  0.80977428  0.05942539  1
  Zn  Zn170  1  0.56657877  0.80778425  0.55597596  1
  O  O171  1  0.11852652  0.11897072  0.11682489  1
  O  O172  1  0.12635127  0.12842842  0.60895163  1
  O  O173  1  0.11895817  0.62444785  0.11760595  1
  O  O174  1  0.11867924  0.62736528  0.60997439  1
  O  O175  1  0.61308662  0.11898261  0.12804173  1
  O  O176  1  0.61545315  0.12041004  0.62186656  1
  O  O177  1  0.62673551  0.61490295  0.12167172  1
  O  O178  1  0.62615941  0.61251801  0.62629335  1
  O  O179  1  0.37390410  0.38088563  0.38699602  1
  O  O180  1  0.37572557  0.38082141  0.88293746  1
  O  O181  1  0.38788210  0.88175979  0.36516877  1
  O  O182  1  0.39278624  0.88697307  0.85753697  1
  O  O183  1  0.89309680  0.37133756  0.39200457  1
  O  O184  1  0.88746467  0.37545457  0.88139717  1
  O  O185  1  0.85568352  0.89645563  0.38936911  1
  O  O186  1  0.86863187  0.89282336  0.87210302  1
  O  O187  1  0.25141573  0.00482686  0.36666644  1
  O  O188  1  0.24482193  0.01348010  0.85216226  1
  O  O189  1  0.26097987  0.50934307  0.38614736  1
  O  O190  1  0.26163488  0.49269793  0.86468129  1
  O  O191  1  0.75518642  0.01302856  0.36969874  1
  O  O192  1  0.75472398  0.00914592  0.86578223  1
  O  O193  1  0.76109567  0.45500546  0.36344822  1
  O  O194  1  0.75201425  0.49722703  0.86207801  1
  O  O195  1  0.24844245  0.48878952  0.12244249  1
  O  O196  1  0.25134965  0.49425117  0.63214896  1
  O  O197  1  0.23540047  1.00226197  0.14095404  1
  O  O198  1  0.25708679  0.99450407  0.63077158  1
  O  O199  1  0.74008858  0.48479415  0.12372291  1
  O  O200  1  0.73884548  0.49892835  0.63237173  1
  O  O201  1  0.74796075  0.99831883  0.13262400  1
  O  O202  1  0.74606649  0.99423276  0.62678726  1
  O  O203  1  0.00483085  0.36850597  0.26112636  1
  O  O204  1  0.00382431  0.37163035  0.75637588  1
  O  O205  1  -0.04621967  0.85872930  0.26928850  1
  O  O206  1  0.00150642  0.86781456  0.74939838  1
  O  O207  1  0.50520146  0.36437650  0.25214159  1
  O  O208  1  0.51384177  0.37887933  0.75280963  1
  O  O209  1  0.52228213  0.88455575  0.26374925  1
  O  O210  1  0.51305103  0.87300352  0.75068407  1
  O  O211  1  0.49373467  0.12618956  0.24568891  1
  O  O212  1  0.48943845  0.11770620  0.73765816  1
  O  O213  1  0.49108358  0.62510223  0.26096824  1
  O  O214  1  0.50293113  0.63867160  0.75245073  1
  O  O215  1  1.00466877  0.14000367  0.25388685  1
  O  O216  1  0.99371129  0.13390346  0.74795904  1
  O  O217  1  1.00224338  0.62715708  0.23831230  1
  O  O218  1  1.00618968  0.63103568  0.73284430  1
  O  O219  1  0.36354143  0.25227031  0.00527329  1
  O  O220  1  0.36610121  0.25640591  0.50928615  1
  O  O221  1  0.37644444  0.75094321  -0.01576544  1
  O  O222  1  0.36505892  0.74786301  0.50178598  1
  O  O223  1  0.86714816  0.25687895  0.00484135  1
  O  O224  1  0.86675255  0.25562919  0.50262521  1
  O  O225  1  0.87071135  0.74288917  0.00988982  1
  O  O226  1  0.86367283  0.75006044  0.50209298  1
  O  O227  1  0.13873722  0.24667826  0.50381670  1
  O  O228  1  0.13314314  0.24143640  1.00370390  1
  O  O229  1  0.13523128  0.74319438  0.48930919  1
  O  O230  1  0.12479720  0.74232330  0.98744584  1
  O  O231  1  0.62948411  0.24575565  0.49749655  1
  O  O232  1  0.63328542  0.25191028  0.99317735  1
  O  O233  1  0.64288960  0.75055874  0.49122053  1
  O  O234  1  0.62442716  0.74366326  0.98982185  1
  O  O235  1  0.49389635  0.24050030  0.13098741  1
  O  O236  1  0.48669899  0.24057475  0.62173453  1
  O  O237  1  0.48351314  0.78567757  0.13500663  1
  O  O238  1  0.49372715  0.75925237  0.63006293  1
  O  O239  1  0.98874885  0.25332826  0.13697794  1
  O  O240  1  0.99883175  0.24982075  0.63882158  1
  O  O241  1  0.99218866  0.74153208  0.12571647  1
  O  O242  1  0.99430667  0.74629110  0.62471729  1
  O  O243  1  0.00016500  0.25843602  0.36861970  1
  O  O244  1  0.00185414  0.25719955  0.86485933  1
  O  O245  1  0.01952005  0.74188535  0.37577418  1
  O  O246  1  0.00924783  0.75555047  0.86239420  1
  O  O247  1  0.50218703  0.24724589  0.37084134  1
  O  O248  1  0.51088321  0.24816646  0.88149480  1
  O  O249  1  0.51147898  0.75868440  0.37199039  1
  O  O250  1  0.51529557  0.76148778  0.86145368  1
  O  O251  1  0.24504039  0.13266179  0.49321243  1
  O  O252  1  0.24019926  0.13802270  1.00511879  1
  O  O253  1  0.24341881  0.63319985  0.49320305  1
  O  O254  1  0.23162022  0.60648654  0.98805501  1
  O  O255  1  0.74465887  0.13237135  0.49398970  1
  O  O256  1  0.74615725  0.13574154  0.99377824  1
  O  O257  1  0.75499017  0.63265201  0.49554306  1
  O  O258  1  0.73580304  0.61797574  1.00599637  1
  O  O259  1  0.25730218  0.36880433  0.00819924  1
  O  O260  1  0.25934366  0.37018530  0.50681370  1
  O  O261  1  0.28142246  0.92383302  -0.04081191  1
  O  O262  1  0.24838930  0.86723619  0.50322361  1
  O  O263  1  0.75385825  0.36948182  0.00610702  1
  O  O264  1  0.75822715  0.36648099  0.50538228  1
  O  O265  1  0.75225542  0.88396739  0.01147450  1
  O  O266  1  0.74439782  0.87400111  0.50960667  1
  O  O267  1  0.11891078  0.48348766  0.25048745  1
  O  O268  1  0.13165552  0.49525020  0.74943457  1
  O  O269  1  0.13475116  1.00159057  0.24270673  1
  O  O270  1  0.13445097  1.00714267  0.74339592  1
  O  O271  1  0.61889431  0.48546411  0.24505553  1
  O  O272  1  0.63052421  0.49620577  0.74248218  1
  O  O273  1  0.63896169  0.99455983  0.24757024  1
  O  O274  1  0.63061826  0.99462628  0.74161425  1
  O  O275  1  0.35668117  0.00595047  0.26045375  1
  O  O276  1  0.36238241  0.00598762  0.75835672  1
  O  O277  1  0.38276462  0.50186750  0.27060017  1
  O  O278  1  0.36765750  0.50555226  0.75651268  1
  O  O279  1  0.86405716  0.00224871  0.26254446  1
  O  O280  1  0.86847814  0.00876483  0.75438143  1
  O  O281  1  0.88289882  0.51525930  0.25014219  1
  O  O282  1  0.85874728  0.49545338  0.74965921  1
  O  O283  1  0.11685254  0.37696211  0.37224678  1
  O  O284  1  0.11379428  0.37349597  0.87136115  1
  O  O285  1  0.12591731  0.86087267  0.37732695  1
  O  O286  1  0.12193853  0.86916096  0.86605400  1
  O  O287  1  0.61867030  0.36546394  0.36792777  1
  O  O288  1  0.62103555  0.36850856  0.86974517  1
  O  O289  1  0.62536675  0.86798474  0.36873533  1
  O  O290  1  0.62099261  0.87271709  0.86386569  1
  O  O291  1  0.38708369  0.12926346  0.13346199  1
  O  O292  1  0.38016911  0.13138251  0.63187468  1
  O  O293  1  0.38952029  0.59735291  0.14911744  1
  O  O294  1  0.37063285  0.64336234  0.62861342  1
  O  O295  1  0.87613549  0.14004484  0.12497480  1
  O  O296  1  0.87551417  0.12775715  0.63756853  1
  O  O297  1  0.88184349  0.62602193  0.13043094  1
  O  O298  1  0.88380279  0.63903083  0.61874646  1
  O  O299  1  0.25520183  0.25748479  0.11591127  1
  O  O300  1  0.26036091  0.25748458  0.61894141  1
  O  O301  1  0.27283467  0.70520507  0.11105144  1
  O  O302  1  0.25653500  0.75688033  0.61404831  1
  O  O303  1  0.75379158  0.25484908  0.11465172  1
  O  O304  1  0.74997033  0.24988386  0.61361092  1
  O  O305  1  0.75574446  0.76101822  0.12661070  1
  O  O306  1  0.75659936  0.75442353  0.61308579  1
  O  O307  1  0.25699966  0.24098029  0.38601411  1
  O  O308  1  0.24688226  0.25483024  0.89332013  1
  O  O309  1  0.24373624  0.74215208  0.37856405  1
  O  O310  1  0.23711750  0.75251485  0.85862259  1
  O  O311  1  0.74437851  0.24807637  0.38631648  1
  O  O312  1  0.74536109  0.24896125  0.88467191  1
  O  O313  1  0.74846102  0.75348093  0.38513673  1
  O  O314  1  0.73902592  0.76004382  0.86853456  1
  O  O315  1  0.01027736  0.13301045  0.00674082  1
  O  O316  1  0.00815506  0.12469664  0.50178120  1
  O  O317  1  0.00968954  0.61680451  0.01194432  1
  O  O318  1  0.00615488  0.61917190  0.50455801  1
  O  O319  1  0.50424154  0.12052263  0.01034466  1
  O  O320  1  0.50097438  0.11835517  0.51050691  1
  O  O321  1  0.51840533  0.62084135  0.00123950  1
  O  O322  1  0.49586059  0.61678915  0.49905200  1
  O  O323  1  0.48670804  0.37609024  0.50339078  1
  O  O324  1  0.48205513  0.37214389  1.00012430  1
  O  O325  1  0.50816333  0.88173847  0.48484171  1
  O  O326  1  0.50854169  0.88553790  0.98422563  1
  O  O327  1  0.99818689  0.38176492  0.49835992  1
  O  O328  1  0.99878978  0.37981358  0.99518742  1
  O  O329  1  1.00265042  0.88730839  0.50135334  1
  O  O330  1  0.98856272  0.87357107  0.99141421  1
  O  O331  1  0.49436507  0.49464296  0.39054209  1
  O  O332  1  0.48625109  0.49842516  0.87728224  1
  O  O333  1  0.49048049  0.99638814  0.37870269  1
  O  O334  1  0.50689847  0.99389189  0.88074504  1
  O  O335  1  0.99770710  0.49408793  0.38841626  1
  O  O336  1  0.99716750  0.49297194  0.88110222  1
  O  O337  1  0.98662551  1.00255643  0.38087754  1
  O  O338  1  0.98388963  1.00230678  0.86679124  1
  O  O339  1  0.01216823  0.00232210  0.13769606  1
  O  O340  1  -0.00692026  0.00196708  0.60922547  1
  O  O341  1  0.00284908  0.50514068  0.11802385  1
  O  O342  1  0.00000078  0.50853436  0.61544917  1
  O  O343  1  0.50569287  0.00195654  0.11767822  1
  O  O344  1  0.50009715  0.00397013  0.61909334  1
  O  O345  1  0.51368460  0.48891875  0.12309155  1
  O  O346  1  0.51309367  0.49919772  0.62051231  1
  O  O347  1  0.24195953  0.36822762  0.24134584  1
  O  O348  1  0.24489535  0.38200888  0.74562574  1
  O  O349  1  0.24496548  0.88282998  0.25835725  1
  O  O350  1  0.24649530  0.89253613  0.74012367  1
  O  O351  1  0.73249686  0.35514115  0.23487057  1
  O  O352  1  0.73832947  0.38410767  0.74867790  1
  O  O353  1  0.74718335  0.88440668  0.24327899  1
  O  O354  1  0.73973509  0.87947837  0.73720750  1
  O  O355  1  0.25170459  0.12798610  0.25736673  1
  O  O356  1  0.25843351  0.11635386  0.73660938  1
  O  O357  1  0.26002337  0.62147436  0.26205558  1
  O  O358  1  0.24660116  0.61408689  0.74352806  1
  O  O359  1  0.74404388  0.12068584  0.25950412  1
  O  O360  1  0.75688267  0.12334382  0.75359355  1
  O  O361  1  0.75911547  0.61593204  0.24584257  1
  O  O362  1  0.74607324  0.60999941  0.74895173  1
  O  O363  1  0.36333141  0.11673995  0.37096929  1
  O  O364  1  0.37796623  0.11413079  0.86542482  1
  O  O365  1  0.36855400  0.61656045  0.37204958  1
  O  O366  1  0.37379248  0.61964235  0.87312980  1
  O  O367  1  0.86282415  0.12031399  0.37851428  1
  O  O368  1  0.87048830  0.11956265  0.86546592  1
  O  O369  1  0.87690969  0.62526147  0.35801541  1
  O  O370  1  0.87976151  0.62971678  0.87851431  1
  O  O371  1  0.13381273  0.37747193  0.13285800  1
  O  O372  1  0.13282268  0.37864300  0.63318930  1
  O  O373  1  0.12255186  0.88825555  0.11734143  1
  O  O374  1  0.14259363  0.86974762  0.62562876  1
  O  O375  1  0.62929620  0.37753899  0.13062265  1
  O  O376  1  0.62722375  0.38092103  0.63444278  1
  O  O377  1  0.63382847  0.88136808  0.13301727  1
  O  O378  1  0.63036755  0.88002631  0.62853934  1
  O  O379  1  0.11397525  0.26345823  0.24433282  1
  O  O380  1  0.11883809  0.25598494  0.75336787  1
  O  O381  1  0.12603709  0.74805862  0.26195706  1
  O  O382  1  0.11283098  0.75131886  0.75188163  1
  O  O383  1  0.61398738  0.25384860  0.25562718  1
  O  O384  1  0.62991622  0.26048382  0.76090101  1
  O  O385  1  0.62725102  0.75764422  0.25586667  1
  O  O386  1  0.62270408  0.75765384  0.75019907  1
  O  O387  1  0.38075564  0.24394259  0.24684770  1
  O  O388  1  0.36703642  0.23989650  0.74399916  1
  O  O389  1  0.37877052  0.72899876  0.25286911  1
  O  O390  1  0.38683415  0.75073281  0.74155103  1
  O  O391  1  0.87954133  0.26215211  0.24327216  1
  O  O392  1  0.88077465  0.24428264  0.75115282  1
  O  O393  1  0.87029903  0.72979366  0.23368934  1
  O  O394  1  0.88699611  0.75236937  0.73808680  1
  O  O395  1  0.38237785  0.49375752  0.49920612  1
  O  O396  1  0.37280727  0.49220272  0.99287489  1
  O  O397  1  0.37667393  1.00318197  0.48442747  1
  O  O398  1  0.39370965  1.01335752  0.98955302  1
  O  O399  1  0.88084759  0.49407861  0.49920259  1
  O  O400  1  0.88721800  0.49261979  1.00011704  1
  O  O401  1  0.88851324  1.00897272  0.48949253  1
  O  O402  1  0.86847751  1.00692901  0.98307225  1
  O  O403  1  0.12793582  0.01328948  0.01370871  1
  O  O404  1  0.10780071  0.00837524  0.49233440  1
  O  O405  1  0.11287135  0.50351462  -0.00049323  1
  O  O406  1  0.11802004  0.50813215  0.50304917  1
  O  O407  1  0.61828788  0.00512490  0.00608911  1
  O  O408  1  0.61836748  0.00756436  0.50376993  1
  O  O409  1  0.62143906  0.50437655  0.00905565  1
  O  O410  1  0.61672236  0.49419387  0.51495820  1
  O  O411  1  0.36757514  0.36963139  0.12090718  1
  O  O412  1  0.37269449  0.36875510  0.62384779  1
  O  O413  1  0.35366010  0.88311828  0.13497535  1
  O  O414  1  0.36216550  0.86308733  0.62928943  1
  O  O415  1  0.86564548  0.37015335  0.12081684  1
  O  O416  1  0.87453520  0.37259201  0.61385470  1
  O  O417  1  0.86620886  0.86429611  0.12165900  1
  O  O418  1  0.86509148  0.86318181  0.62700060  1
  O  O419  1  0.13666391  0.12198909  0.38446125  1
  O  O420  1  0.11956317  0.12622736  0.89512876  1
  O  O421  1  0.13290652  0.62445045  0.38264998  1
  O  O422  1  0.11404567  0.63764627  0.88325203  1
  O  O423  1  0.63199963  0.13024136  0.38151618  1
  O  O424  1  0.63179222  0.13503894  0.87311960  1
  O  O425  1  0.62606997  0.63700081  0.36869944  1
  O  O426  1  0.62642557  0.63586140  0.88309318  1
