# generated using pymatgen
data_V85Zn86O256
_symmetry_space_group_name_H-M   'P 1'
_cell_length_a   16.96243668
_cell_length_b   16.95419877
_cell_length_c   16.95149810
_cell_angle_alpha   90.02602751
_cell_angle_beta   90.02664912
_cell_angle_gamma   89.98954160
_symmetry_Int_Tables_number   1
_chemical_formula_structural   V85Zn86O256
_chemical_formula_sum   'V85 Zn86 O256'
_cell_volume   4874.98738787
_cell_formula_units_Z   1
loop_
 _symmetry_equiv_pos_site_id
 _symmetry_equiv_pos_as_xyz
  1  'x, y, z'
loop_
 _atom_site_type_symbol
 _atom_site_label
 _atom_site_symmetry_multiplicity
 _atom_site_fract_x
 _atom_site_fract_y
 _atom_site_fract_z
 _atom_site_occupancy
  V  V0  1  -0.00320838  0.62277234  0.12846015  1
  V  V1  1  -0.00384235  0.12612849  0.62554759  1
  V  V2  1  0.87616947  0.87863535  0.50279084  1
  V  V3  1  0.12815811  0.62109628  0.50236587  1
  V  V4  1  0.37488283  0.87804215  0.00229110  1
  V  V5  1  0.49828964  0.37198649  0.36817740  1
  V  V6  1  0.86962747  0.01447047  0.37360396  1
  V  V7  1  0.36818963  0.37469223  0.50226619  1
  V  V8  1  0.74987670  0.87643100  0.62667306  1
  V  V9  1  0.87054059  0.37747314  -0.00862031  1
  V  V10  1  0.36430895  0.50662598  0.36845475  1
  V  V11  1  -0.01450841  0.37215146  0.38415800  1
  V  V12  1  0.37645424  0.12554688  0.24416211  1
  V  V13  1  0.74829693  0.75270641  0.49666047  1
  V  V14  1  0.50810993  0.87552665  0.37185452  1
  V  V15  1  -0.00075454  0.25243360  0.74809295  1
  V  V16  1  0.74963985  0.25146206  0.00133109  1
  V  V17  1  0.18521250  0.05489579  0.68248058  1
  V  V18  1  0.24913322  0.87467642  0.62493787  1
  V  V19  1  0.12919450  0.25339636  0.37141909  1
  V  V20  1  0.25185271  0.24901975  0.49946412  1
  V  V21  1  0.74779022  0.00095437  0.74888345  1
  V  V22  1  0.38130172  0.62976221  0.75285149  1
  V  V23  1  0.49187437  0.50048607  0.49788827  1
  V  V24  1  0.62203165  0.24534316  0.88098791  1
  V  V25  1  -0.00656691  0.12230431  0.12938927  1
  V  V26  1  0.50140857  0.62526559  0.62729199  1
  V  V27  1  0.25111630  0.12011179  0.36556879  1
  V  V28  1  0.87458784  0.74209102  0.62969977  1
  V  V29  1  0.50144671  0.50003937  0.00164636  1
  V  V30  1  0.61887519  0.86908132  0.74702812  1
  V  V31  1  0.25508393  0.74436005  0.49420192  1
  V  V32  1  0.25363207  0.49568132  0.74637490  1
  V  V33  1  0.62402368  0.37005545  0.24413328  1
  V  V34  1  0.62404828  0.74926708  0.87450525  1
  V  V35  1  0.62120509  0.49418162  0.62882469  1
  V  V36  1  0.87353794  -0.00186056  0.87359333  1
  V  V37  1  0.87344897  0.87030074  0.00283896  1
  V  V38  1  0.62228731  0.37176518  0.75058619  1
  V  V39  1  0.13083132  0.87317799  0.74785994  1
  V  V40  1  0.36202164  0.00557383  0.87005828  1
  V  V41  1  0.36481637  0.25685235  0.12852325  1
  V  V42  1  0.13035213  0.12882561  -0.00744351  1
  V  V43  1  0.62337496  0.12945189  0.49306727  1
  V  V44  1  0.36415859  0.25237952  0.62687392  1
  V  V45  1  0.49856750  0.87317416  0.87245024  1
  V  V46  1  0.13101592  0.87643071  0.25093018  1
  V  V47  1  0.37374310  -0.00324022  0.36537374  1
  V  V48  1  0.75938729  0.36601917  0.62612979  1
  V  V49  1  0.51026063  0.00560832  0.00142303  1
  V  V50  1  0.63189458  0.49816153  0.12739429  1
  V  V51  1  0.00642410  -0.00101992  0.50594679  1
  V  V52  1  0.38339709  0.75131685  0.62819097  1
  V  V53  1  0.00239396  0.87774019  0.37613971  1
  V  V54  1  -0.00124803  0.74482907  0.74943635  1
  V  V55  1  0.49695913  0.12518349  0.62524751  1
  V  V56  1  0.25322880  0.62615197  0.87495066  1
  V  V57  1  0.00452397  0.36794140  0.87022954  1
  V  V58  1  0.65048034  0.59952946  0.48654298  1
  V  V59  1  0.87382552  0.12742058  0.74625105  1
  V  V60  1  0.50638885  0.13039473  0.12045653  1
  V  V61  1  0.62217348  -0.00017038  0.62326881  1
  V  V62  1  0.63778558  0.73001591  0.35964392  1
  V  V63  1  -0.00282815  0.24612968  0.25089273  1
  V  V64  1  0.24996987  0.75126268  0.00507349  1
  V  V65  1  -0.00756609  0.74784461  0.25109812  1
  V  V66  1  0.75899764  0.24752378  0.50050721  1
  V  V67  1  0.63293255  0.89158973  0.24251714  1
  V  V68  1  0.13270087  -0.00016588  0.12888655  1
  V  V69  1  0.13073961  0.11930375  0.49878893  1
  V  V70  1  0.13060962  0.36772866  0.74697358  1
  V  V71  1  0.49521439  0.24617580  0.75272981  1
  V  V72  1  0.23860383  0.50253358  0.23065321  1
  V  V73  1  0.36657904  0.37728949  0.00121464  1
  V  V74  1  0.12564857  0.74941373  0.87685762  1
  V  V75  1  0.80750288  0.42510250  0.18152389  1
  V  V76  1  0.37789176  0.87406807  0.49681346  1
  V  V77  1  0.00613013  0.50179735  -0.00429130  1
  V  V78  1  0.00060322  -0.00256127  0.00178317  1
  V  V79  1  0.12865552  0.74078600  0.37267005  1
  V  V80  1  0.50067050  0.75038231  0.24589117  1
  V  V81  1  0.74527137  0.12491123  0.87708228  1
  V  V82  1  0.75471424  0.62746065  0.86830036  1
  V  V83  1  0.87764286  0.50345221  0.85582644  1
  V  V84  1  0.12301375  0.49672531  0.62611202  1
  Zn  Zn85  1  0.62777512  0.62499738  0.00115389  1
  Zn  Zn86  1  0.75009485  0.88716053  0.12633327  1
  Zn  Zn87  1  0.12849545  0.61961082  0.00469013  1
  Zn  Zn88  1  0.50274510  0.62622286  0.12540999  1
  Zn  Zn89  1  -0.00086549  0.87346380  0.87332066  1
  Zn  Zn90  1  0.24598289  0.25417451  -0.00738261  1
  Zn  Zn91  1  0.35980073  0.12435780  0.75337190  1
  Zn  Zn92  1  0.74779890  0.75041307  0.00550134  1
  Zn  Zn93  1  0.37031744  0.62819178  0.24869696  1
  Zn  Zn94  1  0.13684572  0.36762462  0.23036338  1
  Zn  Zn95  1  0.50123190  0.00115164  0.49677541  1
  Zn  Zn96  1  0.49939319  0.37401709  0.87961812  1
  Zn  Zn97  1  -0.03451877  0.52621678  0.46377211  1
  Zn  Zn98  1  0.74933529  0.50447103  0.74563168  1
  Zn  Zn99  1  0.37862893  0.50111349  0.87638013  1
  Zn  Zn100  1  0.87175272  0.24531685  0.12392344  1
  Zn  Zn101  1  0.37821153  0.75006537  0.12484706  1
  Zn  Zn102  1  0.00098066  0.62536846  0.62623640  1
  Zn  Zn103  1  0.62273526  0.24839459  0.37133172  1
  Zn  Zn104  1  0.77831300  0.05115132  0.23171944  1
  Zn  Zn105  1  0.86709961  0.74957362  0.13560702  1
  Zn  Zn106  1  0.25363109  0.87750005  0.13084849  1
  Zn  Zn107  1  0.18693030  0.18278444  0.18379996  1
  Zn  Zn108  1  0.18085108  0.19387345  0.82051930  1
  Zn  Zn109  1  0.18427908  0.68049725  0.18751928  1
  Zn  Zn110  1  0.19381401  0.68773094  0.68624527  1
  Zn  Zn111  1  0.68043495  0.19158621  0.18425759  1
  Zn  Zn112  1  0.68274530  0.18717427  0.68746276  1
  Zn  Zn113  1  0.68531878  0.69216493  0.18729481  1
  Zn  Zn114  1  0.68673061  0.68560853  0.68391430  1
  Zn  Zn115  1  0.31102447  0.31753957  0.30864739  1
  Zn  Zn116  1  0.31503386  0.31605491  0.81699935  1
  Zn  Zn117  1  0.31343299  0.81082345  0.31217742  1
  Zn  Zn118  1  0.31345375  0.81356768  0.81308403  1
  Zn  Zn119  1  0.79574159  0.25505426  0.29900298  1
  Zn  Zn120  1  0.81384819  0.31157776  0.80869447  1
  Zn  Zn121  1  0.81353556  0.82243462  0.31570687  1
  Zn  Zn122  1  0.81091354  0.81295804  0.81313715  1
  Zn  Zn123  1  0.18714083  0.43780651  0.43739319  1
  Zn  Zn124  1  0.18885096  0.43651185  0.93098597  1
  Zn  Zn125  1  0.19021168  0.93493701  0.43593025  1
  Zn  Zn126  1  0.18608661  0.93581621  0.93959438  1
  Zn  Zn127  1  0.68582818  0.42487874  0.43986943  1
  Zn  Zn128  1  0.68815351  0.43974006  0.93366980  1
  Zn  Zn129  1  0.68819094  0.94007599  0.43453567  1
  Zn  Zn130  1  0.68804242  0.93548730  0.93760585  1
  Zn  Zn131  1  0.31340104  0.06137609  0.06055100  1
  Zn  Zn132  1  0.32140452  0.06427363  0.55363118  1
  Zn  Zn133  1  0.31763795  0.56745394  0.06569911  1
  Zn  Zn134  1  0.31085414  0.56306984  0.56585624  1
  Zn  Zn135  1  0.80927935  0.06003880  0.05659547  1
  Zn  Zn136  1  0.81233659  0.06571308  0.55910430  1
  Zn  Zn137  1  0.81943314  0.56732479  0.05250930  1
  Zn  Zn138  1  0.81755747  0.55866093  0.46758678  1
  Zn  Zn139  1  0.43963571  0.43997587  0.18682677  1
  Zn  Zn140  1  0.43551600  0.43413662  0.68906215  1
  Zn  Zn141  1  0.44075317  0.94022539  0.18507213  1
  Zn  Zn142  1  0.43570529  0.93996234  0.68948767  1
  Zn  Zn143  1  0.98529293  0.42690616  0.18095478  1
  Zn  Zn144  1  0.90989697  0.47152846  0.64172895  1
  Zn  Zn145  1  0.93835674  0.93644430  0.18933284  1
  Zn  Zn146  1  0.94035223  0.93605808  0.68729139  1
  Zn  Zn147  1  0.06152336  0.06100226  0.31353436  1
  Zn  Zn148  1  0.05461542  0.05891611  0.81507893  1
  Zn  Zn149  1  0.05849749  0.56058439  0.31058947  1
  Zn  Zn150  1  0.06605013  0.56085390  0.81135928  1
  Zn  Zn151  1  0.55669154  0.06640559  0.30907306  1
  Zn  Zn152  1  0.55913965  0.06036420  0.81419055  1
  Zn  Zn153  1  0.58528024  0.57052233  0.30320407  1
  Zn  Zn154  1  0.56216753  0.56370009  0.81566055  1
  Zn  Zn155  1  0.43798795  0.18806698  0.43541632  1
  Zn  Zn156  1  0.42858235  0.18801646  0.93965824  1
  Zn  Zn157  1  0.44799728  0.68481761  0.43294270  1
  Zn  Zn158  1  0.44118817  0.68878227  0.94090267  1
  Zn  Zn159  1  0.94222342  0.19199699  0.44282913  1
  Zn  Zn160  1  0.93742701  0.18572479  0.93651278  1
  Zn  Zn161  1  0.93769557  0.69473156  0.43741677  1
  Zn  Zn162  1  0.93782895  0.68533360  0.93496700  1
  Zn  Zn163  1  0.05957679  0.30893786  0.05943843  1
  Zn  Zn164  1  0.06674200  0.30908491  0.56466787  1
  Zn  Zn165  1  0.06107926  0.81102373  0.06656055  1
  Zn  Zn166  1  0.06577417  0.81028471  0.56262667  1
  Zn  Zn167  1  0.55801914  0.31378924  0.06430511  1
  Zn  Zn168  1  0.55585713  0.31043474  0.56130422  1
  Zn  Zn169  1  0.56575445  0.81789781  0.06280712  1
  Zn  Zn170  1  0.56583460  0.80793080  0.55425632  1
  O  O171  1  0.11610938  0.11611630  0.11545909  1
  O  O172  1  0.12290968  0.11085016  0.62284293  1
  O  O173  1  0.10411242  0.63468745  0.11773244  1
  O  O174  1  0.12986581  0.61940538  0.61860120  1
  O  O175  1  0.60513570  0.13114246  0.12332772  1
  O  O176  1  0.61141654  0.12149571  0.62013404  1
  O  O177  1  0.62789487  0.61323346  0.12180711  1
  O  O178  1  0.62234525  0.61230369  0.61261612  1
  O  O179  1  0.37934671  0.38387982  0.38018834  1
  O  O180  1  0.38075597  0.38116266  0.88602239  1
  O  O181  1  0.38319729  0.88126147  0.37526938  1
  O  O182  1  0.38210183  0.88200687  0.87984829  1
  O  O183  1  0.88933934  0.36758500  0.37782841  1
  O  O184  1  0.88266840  0.38257463  0.87406437  1
  O  O185  1  0.88499172  0.88314741  0.38561600  1
  O  O186  1  0.87571776  0.88334897  0.88043071  1
  O  O187  1  0.26031712  0.00855128  0.37830707  1
  O  O188  1  0.26371878  -0.00605929  0.87763234  1
  O  O189  1  0.26362241  0.50003167  0.37457632  1
  O  O190  1  0.25268954  0.50958204  0.86356303  1
  O  O191  1  0.76872671  0.00120804  0.38104289  1
  O  O192  1  0.75185202  0.00717816  0.86891162  1
  O  O193  1  0.71580054  0.53316901  0.42362579  1
  O  O194  1  0.75932387  0.50699158  0.86862469  1
  O  O195  1  0.24815535  0.50248275  0.13141283  1
  O  O196  1  0.24255600  0.50477869  0.63939186  1
  O  O197  1  0.23643537  0.99854729  0.12148765  1
  O  O198  1  0.25104057  0.99799388  0.62445025  1
  O  O199  1  0.75367251  0.49637973  0.12397663  1
  O  O200  1  0.72990368  0.47966005  0.62874961  1
  O  O201  1  0.75643200  1.00273910  0.13376687  1
  O  O202  1  0.74276637  0.99600778  0.62940225  1
  O  O203  1  0.01216219  0.35802442  0.27024312  1
  O  O204  1  0.00761494  0.36381439  0.75419221  1
  O  O205  1  0.01075003  0.86680526  0.25522949  1
  O  O206  1  0.01659706  0.86961970  0.74796207  1
  O  O207  1  0.50906230  0.38299422  0.25849590  1
  O  O208  1  0.50254543  0.36093937  0.75364043  1
  O  O209  1  0.50555138  0.87525495  0.25798908  1
  O  O210  1  0.50976126  0.88104732  0.75787948  1
  O  O211  1  0.48688706  0.12103813  0.23375599  1
  O  O212  1  0.49866089  0.13424460  0.74420408  1
  O  O213  1  0.50504635  0.63911255  0.24890370  1
  O  O214  1  0.48915348  0.62110436  0.74457896  1
  O  O215  1  1.00764292  0.13062968  0.23984663  1
  O  O216  1  0.99578710  0.12789708  0.74355612  1
  O  O217  1  1.00158385  0.63108952  0.23791680  1
  O  O218  1  1.00918032  0.64186114  0.74922157  1
  O  O219  1  0.37146905  0.25875442  0.01028600  1
  O  O220  1  0.37224729  0.25597680  0.50563425  1
  O  O221  1  0.36862684  0.76253741  -0.00176535  1
  O  O222  1  0.37189032  0.75428174  0.50181069  1
  O  O223  1  0.86816901  0.25842546  -0.00384571  1
  O  O224  1  0.85786667  0.23984315  0.50397913  1
  O  O225  1  0.87710857  0.76524882  -0.00692698  1
  O  O226  1  0.87004775  0.76086676  0.50904612  1
  O  O227  1  0.13433938  0.23845651  0.49367944  1
  O  O228  1  0.12398298  0.23309194  1.00193919  1
  O  O229  1  0.13603050  0.74514761  0.49356581  1
  O  O230  1  0.13250100  0.75384458  0.99120047  1
  O  O231  1  0.62676896  0.24215765  0.50203618  1
  O  O232  1  0.63051760  0.25881148  0.98634640  1
  O  O233  1  0.63633031  0.74383533  0.48706567  1
  O  O234  1  0.62612355  0.75433289  0.98591920  1
  O  O235  1  0.48575840  0.23527109  0.11567220  1
  O  O236  1  0.49078447  0.24201883  0.63288537  1
  O  O237  1  0.50177727  0.75285256  0.13300678  1
  O  O238  1  0.48960420  0.74582726  0.61714825  1
  O  O239  1  0.99917688  0.23722691  0.13190577  1
  O  O240  1  1.00731661  0.23367502  0.63217141  1
  O  O241  1  0.99507149  0.74494784  0.13583593  1
  O  O242  1  0.99345519  0.75320925  0.63260009  1
  O  O243  1  0.01131773  0.24733678  0.36877675  1
  O  O244  1  -0.00276978  0.26030672  0.86837900  1
  O  O245  1  0.01048967  0.75842166  0.37162001  1
  O  O246  1  0.00922693  0.75360328  0.86849418  1
  O  O247  1  0.49909496  0.26763139  0.38120564  1
  O  O248  1  0.50469339  0.24680254  0.86999599  1
  O  O249  1  0.51191942  0.75783739  0.36684552  1
  O  O250  1  0.50580799  0.76574498  0.87914753  1
  O  O251  1  0.24994893  0.12856736  0.48792194  1
  O  O252  1  0.23151594  0.12108322  1.00317605  1
  O  O253  1  0.24569944  0.63789178  0.50474445  1
  O  O254  1  0.24926973  0.63290531  0.99351778  1
  O  O255  1  0.73663821  0.13876986  0.51156215  1
  O  O256  1  0.75585022  0.13312992  0.98296403  1
  O  O257  1  0.74858905  0.64527037  0.51640135  1
  O  O258  1  0.74789262  0.62881358  0.98414336  1
  O  O259  1  0.26183382  0.37829612  -0.00258586  1
  O  O260  1  0.26134642  0.36640959  0.49537845  1
  O  O261  1  0.25816447  0.86854426  0.00232917  1
  O  O262  1  0.25728075  0.86629437  0.50607617  1
  O  O263  1  0.76310050  0.36702728  -0.01520001  1
  O  O264  1  0.74272778  0.36158892  0.51795559  1
  O  O265  1  0.75966734  0.87557862  0.00231240  1
  O  O266  1  0.75298929  0.86930742  0.50710261  1
  O  O267  1  0.13739126  0.50081748  0.24988608  1
  O  O268  1  0.13527087  0.49310001  0.74562165  1
  O  O269  1  0.11892425  0.98930822  0.24173387  1
  O  O270  1  0.12700998  0.99555665  0.74565646  1
  O  O271  1  0.63015390  0.48934392  0.23573451  1
  O  O272  1  0.62085466  0.48970877  0.74590511  1
  O  O273  1  0.62493628  0.99083649  0.25934893  1
  O  O274  1  0.62795234  0.99278345  0.74334063  1
  O  O275  1  0.37673198  0.00661394  0.25800524  1
  O  O276  1  0.37593580  0.00218740  0.76494067  1
  O  O277  1  0.36901380  0.50036818  0.25913452  1
  O  O278  1  0.37004692  0.50726838  0.75117452  1
  O  O279  1  0.88031980  -0.00091607  0.26797958  1
  O  O280  1  0.86908369  0.00387332  0.75482384  1
  O  O281  1  0.87897593  0.47089944  0.23090186  1
  O  O282  1  0.87348399  0.49723813  0.75277018  1
  O  O283  1  0.13476990  0.35613877  0.37650787  1
  O  O284  1  0.11546622  0.37910721  0.86074290  1
  O  O285  1  0.12140184  0.86684125  0.36986091  1
  O  O286  1  0.12657882  0.86547932  0.86643249  1
  O  O287  1  0.61489218  0.37720611  0.36573245  1
  O  O288  1  0.62274505  0.36728371  0.86387266  1
  O  O289  1  0.61993639  0.87072040  0.36885024  1
  O  O290  1  0.61846122  0.87105896  0.86617580  1
  O  O291  1  0.37630149  0.13228278  0.12879025  1
  O  O292  1  0.38389677  0.12881653  0.62867904  1
  O  O293  1  0.38362040  0.63254605  0.13036740  1
  O  O294  1  0.37800502  0.63373371  0.63405173  1
  O  O295  1  0.89013945  0.12413566  0.11500873  1
  O  O296  1  0.88533586  0.11879888  0.63304850  1
  O  O297  1  0.89040945  0.63569464  0.11394950  1
  O  O298  1  0.87934444  0.64314207  0.62967707  1
  O  O299  1  0.26174562  0.24565270  0.11808481  1
  O  O300  1  0.26414349  0.24172670  0.61585431  1
  O  O301  1  0.24866078  0.75067619  0.11295791  1
  O  O302  1  0.26307120  0.75786627  0.61714599  1
  O  O303  1  0.74956763  0.24302267  0.10378895  1
  O  O304  1  0.74138330  0.25965932  0.62015820  1
  O  O305  1  0.75178768  0.75704885  0.12381470  1
  O  O306  1  0.75565040  0.75980249  0.62329087  1
  O  O307  1  0.24937975  0.23944352  0.37775724  1
  O  O308  1  0.25797777  0.24452557  0.87972006  1
  O  O309  1  0.24284696  0.75373775  0.38393514  1
  O  O310  1  0.24530388  0.74735592  0.88453312  1
  O  O311  1  0.74050393  0.26085624  0.39800413  1
  O  O312  1  0.74211116  0.24303987  0.87722802  1
  O  O313  1  0.74545619  0.75892794  0.38550378  1
  O  O314  1  0.74171030  0.74508787  0.87493495  1
  O  O315  1  0.00718954  0.11344469  0.00307027  1
  O  O316  1  0.01001071  0.12032602  0.50891635  1
  O  O317  1  0.00322008  0.61756317  0.00134090  1
  O  O318  1  0.02049073  0.63036981  0.50773192  1
  O  O319  1  0.49279241  0.11406201  0.00662555  1
  O  O320  1  0.50302243  0.12459211  0.50959574  1
  O  O321  1  0.50558368  0.61583421  0.00226152  1
  O  O322  1  0.48232920  0.60812268  0.51477848  1
  O  O323  1  0.48675532  0.38313336  0.49684405  1
  O  O324  1  0.48936231  0.38282832  1.00086974  1
  O  O325  1  0.49686040  0.87429566  0.48644302  1
  O  O326  1  0.49345117  0.88600644  0.99499535  1
  O  O327  1  1.00519725  0.35835313  0.48480819  1
  O  O328  1  0.98932666  0.37879626  0.98688892  1
  O  O329  1  0.99893155  0.88299825  0.49891687  1
  O  O330  1  0.99605309  0.88505782  1.00012301  1
  O  O331  1  0.48860415  0.48990459  0.38563525  1
  O  O332  1  0.50242329  0.49813383  0.88964528  1
  O  O333  1  0.49211760  0.99270172  0.37538091  1
  O  O334  1  0.49293964  0.99222808  0.88418010  1
  O  O335  1  1.01697358  0.47651049  0.37646456  1
  O  O336  1  0.99373314  0.49278717  0.87346907  1
  O  O337  1  0.99564404  0.99649849  0.38734126  1
  O  O338  1  0.99277114  0.99406634  0.88405940  1
  O  O339  1  0.00771566  0.00360036  0.11877044  1
  O  O340  1  -0.00151079  0.00781712  0.61390172  1
  O  O341  1  -0.01007374  0.51669392  0.10945038  1
  O  O342  1  0.01989715  0.50724014  0.63810165  1
  O  O343  1  0.49238075  0.01190092  0.10905393  1
  O  O344  1  0.50311928  0.00758569  0.62244257  1
  O  O345  1  0.51154938  0.50079292  0.11635802  1
  O  O346  1  0.50496328  0.50171431  0.62293171  1
  O  O347  1  0.24888975  0.39333232  0.25035749  1
  O  O348  1  0.24357980  0.38370536  0.75428695  1
  O  O349  1  0.23578995  0.86804281  0.24931166  1
  O  O350  1  0.24052171  0.87118218  0.74202259  1
  O  O351  1  0.74992070  0.36500813  0.24421960  1
  O  O352  1  0.73769643  0.37076018  0.74210731  1
  O  O353  1  0.73616296  0.87683365  0.25111413  1
  O  O354  1  0.73858824  0.88177635  0.74646928  1
  O  O355  1  0.26042464  0.12580624  0.25724595  1
  O  O356  1  0.23837683  0.11847895  0.74157416  1
  O  O357  1  0.25251167  0.61066214  0.24748238  1
  O  O358  1  0.26257072  0.62125388  0.75515366  1
  O  O359  1  0.75282339  0.15439683  0.25953087  1
  O  O360  1  0.75360534  0.12151415  0.75565377  1
  O  O361  1  0.67808168  0.65156632  0.29547157  1
  O  O362  1  0.74187696  0.62275866  0.76161068  1
  O  O363  1  0.37278169  0.11893173  0.36515580  1
  O  O364  1  0.37560850  0.10997841  0.87293981  1
  O  O365  1  0.38214905  0.60907578  0.37216851  1
  O  O366  1  0.37294028  0.62617996  0.86828743  1
  O  O367  1  0.88289065  0.11300699  0.38232795  1
  O  O368  1  0.86860893  0.11741099  0.86686790  1
  O  O369  1  0.89706305  0.60137826  0.39831424  1
  O  O370  1  0.86817467  0.61627899  0.87319089  1
  O  O371  1  0.08387936  0.38727761  0.13215126  1
  O  O372  1  0.12396003  0.38042320  0.63758516  1
  O  O373  1  0.12558298  0.88221446  0.13338478  1
  O  O374  1  0.14097266  0.87027624  0.62939058  1
  O  O375  1  0.62336951  0.38070513  0.13187701  1
  O  O376  1  0.61742558  0.37580656  0.63817189  1
  O  O377  1  0.62435594  0.88289540  0.13901134  1
  O  O378  1  0.62690429  0.87683255  0.63028317  1
  O  O379  1  0.12271945  0.24742296  0.25561688  1
  O  O380  1  0.11395967  0.25569935  0.75014687  1
  O  O381  1  0.11746249  0.75281817  0.25791112  1
  O  O382  1  0.12381496  0.75686683  0.75539459  1
  O  O383  1  0.62083616  0.26532146  0.25176757  1
  O  O384  1  0.61541621  0.25376055  0.75873099  1
  O  O385  1  0.61318303  0.77254472  0.25270055  1
  O  O386  1  0.62679755  0.75980322  0.75840396  1
  O  O387  1  0.37072055  0.24362228  0.23662652  1
  O  O388  1  0.37952184  0.24594520  0.74381339  1
  O  O389  1  0.38824924  0.75140744  0.25083609  1
  O  O390  1  0.37216474  0.74301223  0.74041383  1
  O  O391  1  0.89324907  0.25408581  0.24240875  1
  O  O392  1  0.88872890  0.24096356  0.75433087  1
  O  O393  1  0.88895450  0.75609869  0.25780054  1
  O  O394  1  0.88787153  0.76400029  0.74241691  1
  O  O395  1  0.37276785  0.49267070  0.49427783  1
  O  O396  1  0.38409502  0.49459330  1.00226964  1
  O  O397  1  0.37915969  0.99106939  0.48675324  1
  O  O398  1  0.37914453  0.99243912  0.99029546  1
  O  O399  1  0.88418949  0.49913163  0.53622492  1
  O  O400  1  0.88419531  0.49279518  0.98445383  1
  O  O401  1  0.88412237  0.99705809  0.49531747  1
  O  O402  1  0.88319317  0.99149008  0.99326168  1
  O  O403  1  0.11716469  0.00382845  0.00577743  1
  O  O404  1  0.11809464  0.00531286  0.49362047  1
  O  O405  1  0.10980223  0.50004835  -0.01301904  1
  O  O406  1  0.13627751  0.50879127  0.51091147  1
  O  O407  1  0.60857613  -0.00127459  -0.00688478  1
  O  O408  1  0.62398459  0.00870985  0.50627844  1
  O  O409  1  0.62153672  0.49595379  0.00970747  1
  O  O410  1  0.60682515  0.49376911  0.51294931  1
  O  O411  1  0.38078977  0.36142815  0.12149819  1
  O  O412  1  0.37869049  0.36488750  0.61532025  1
  O  O413  1  0.37293997  0.87459076  0.11587745  1
  O  O414  1  0.36879942  0.87068606  0.62127385  1
  O  O415  1  0.86873530  0.37085960  0.11199105  1
  O  O416  1  0.85659090  0.36673764  0.63874783  1
  O  O417  1  0.87608604  0.87194234  0.11665701  1
  O  O418  1  0.86836110  0.87369008  0.61984551  1
  O  O419  1  0.13578164  0.12963691  0.37659577  1
  O  O420  1  0.12000028  0.11928055  0.88778892  1
  O  O421  1  0.12088861  0.63523902  0.38237056  1
  O  O422  1  0.13260636  0.63758901  0.87478913  1
  O  O423  1  0.61122461  0.12834885  0.38936795  1
  O  O424  1  0.63310140  0.13305502  0.86799474  1
  O  O425  1  0.58689302  0.62833669  0.40766261  1
  O  O426  1  0.62942649  0.63564044  0.87588067  1
