# generated using pymatgen
data_V85Zn86O256
_symmetry_space_group_name_H-M   'P 1'
_cell_length_a   16.96252765
_cell_length_b   16.94804545
_cell_length_c   16.96494238
_cell_angle_alpha   90.11342032
_cell_angle_beta   89.96093774
_cell_angle_gamma   89.96216952
_symmetry_Int_Tables_number   1
_chemical_formula_structural   V85Zn86O256
_chemical_formula_sum   'V85 Zn86 O256'
_cell_volume   4877.09854020
_cell_formula_units_Z   1
loop_
 _symmetry_equiv_pos_site_id
 _symmetry_equiv_pos_as_xyz
  1  'x, y, z'
loop_
 _atom_site_type_symbol
 _atom_site_label
 _atom_site_symmetry_multiplicity
 _atom_site_fract_x
 _atom_site_fract_y
 _atom_site_fract_z
 _atom_site_occupancy
  V  V0  1  0.25046720  0.24795032  -0.00526525  1
  V  V1  1  -0.00489880  0.48404104  0.49915829  1
  V  V2  1  0.86836377  0.74235600  0.11543117  1
  V  V3  1  0.87732618  0.25711832  0.62612895  1
  V  V4  1  0.75215560  0.87633370  0.61795724  1
  V  V5  1  0.62158105  0.00170857  0.62316709  1
  V  V6  1  0.24673239  0.49958972  0.24763354  1
  V  V7  1  0.11423900  0.50096411  0.12052947  1
  V  V8  1  -0.00229571  0.62464841  0.61766137  1
  V  V9  1  -0.00110989  0.74858925  0.24432742  1
  V  V10  1  -0.00010099  0.12453069  0.62258814  1
  V  V11  1  -0.00516971  -0.00214831  0.00120234  1
  V  V12  1  0.36784442  0.87170673  0.49401818  1
  V  V13  1  0.11835400  0.62918476  0.49549730  1
  V  V14  1  0.36695141  0.24276408  0.63084910  1
  V  V15  1  0.62608605  0.62641129  0.49836529  1
  V  V16  1  0.26669987  0.00307167  0.75424330  1
  V  V17  1  0.75171429  0.00120929  0.75026820  1
  V  V18  1  0.50105240  0.87939589  0.36917228  1
  V  V19  1  0.75123297  0.49186446  0.24794325  1
  V  V20  1  0.37314886  0.24872562  0.12756632  1
  V  V21  1  0.49983881  0.49751204  0.50116132  1
  V  V22  1  0.49402089  0.11331388  0.12476111  1
  V  V23  1  0.11965556  0.87414287  0.25254346  1
  V  V24  1  0.75387466  0.37325338  0.60943568  1
  V  V25  1  0.62812748  0.49998126  0.62495630  1
  V  V26  1  0.24643506  0.37471011  0.12298416  1
  V  V27  1  0.00228594  -0.01440782  0.49391463  1
  V  V28  1  0.37773599  0.87566419  0.00141454  1
  V  V29  1  0.37794161  0.37950251  0.00041833  1
  V  V30  1  0.62557125  0.87516302  0.75028036  1
  V  V31  1  0.50141295  0.74508631  0.75242739  1
  V  V32  1  0.61868565  0.24755761  0.37941982  1
  V  V33  1  0.25504669  0.24747114  0.50217679  1
  V  V34  1  0.49727378  0.87676684  0.87623724  1
  V  V35  1  0.13075141  0.12428672  0.49481766  1
  V  V36  1  0.50374725  0.51289835  0.00567762  1
  V  V37  1  0.13930559  0.38365413  0.74656334  1
  V  V38  1  0.63287751  0.25048104  0.88075787  1
  V  V39  1  0.75284907  0.62331313  0.88562224  1
  V  V40  1  -0.00770149  0.12587406  0.13036516  1
  V  V41  1  0.62512555  0.75149953  0.36488825  1
  V  V42  1  0.36890927  0.12055392  0.26494276  1
  V  V43  1  0.24862195  0.74584067  -0.00770771  1
  V  V44  1  0.43902970  0.04295945  -0.05704852  1
  V  V45  1  0.89456838  0.49485781  0.87731810  1
  V  V46  1  0.37199246  0.49775019  0.37385868  1
  V  V47  1  0.12713857  0.25253014  0.37618284  1
  V  V48  1  0.49767196  0.24533230  0.74866581  1
  V  V49  1  0.12193497  -0.00232556  0.12688594  1
  V  V50  1  0.38006074  0.74150555  0.12663241  1
  V  V51  1  0.11836199  0.37422672  0.25264815  1
  V  V52  1  0.75805454  0.62264300  0.37773520  1
  V  V53  1  0.36721658  0.50597480  0.87302421  1
  V  V54  1  0.62746763  0.37341603  0.74952410  1
  V  V55  1  0.85367220  0.25198394  0.11560632  1
  V  V56  1  0.49378997  0.24921297  0.25013773  1
  V  V57  1  0.62788867  -0.00437067  0.13411504  1
  V  V58  1  0.62635830  0.37338293  0.24483114  1
  V  V59  1  0.61871290  0.12903489  0.50123081  1
  V  V60  1  0.74682422  0.87415593  0.14205428  1
  V  V61  1  0.75392637  0.50234824  0.75062645  1
  V  V62  1  -0.00606322  0.24628422  0.25111046  1
  V  V63  1  0.86240288  0.87583489  0.00055201  1
  V  V64  1  0.63579258  0.12159994  0.00289653  1
  V  V65  1  0.12799192  0.12239744  -0.00286059  1
  V  V66  1  0.63307536  0.75062924  0.88329317  1
  V  V67  1  0.12620831  0.75110704  0.37263352  1
  V  V68  1  0.12702361  0.88207863  0.75280125  1
  V  V69  1  0.87589988  0.61956218  0.24650386  1
  V  V70  1  0.31376519  0.43380995  0.55899268  1
  V  V71  1  0.13145081  -0.00047870  0.62764898  1
  V  V72  1  0.00119402  0.75180542  0.75116073  1
  V  V73  1  0.87406891  0.75470935  0.62371766  1
  V  V74  1  0.87450498  0.00099084  0.87537718  1
  V  V75  1  0.50224650  0.62535337  0.62742892  1
  V  V76  1  0.24905482  0.00272621  0.26412049  1
  V  V77  1  0.35951918  0.62568150  0.75518604  1
  V  V78  1  0.87773816  0.47314583  0.37771910  1
  V  V79  1  0.49235827  0.37629340  0.37871278  1
  V  V80  1  0.12153871  0.61943253  -0.01117760  1
  V  V81  1  0.25014577  0.62752859  0.37340408  1
  V  V82  1  0.24931926  0.87345466  0.12510173  1
  V  V83  1  0.87326256  0.12596697  0.74899728  1
  V  V84  1  0.78239966  0.22591945  0.47221651  1
  Zn  Zn85  1  0.24929891  0.85488247  0.61956102  1
  Zn  Zn86  1  0.49112666  0.00223012  0.49323855  1
  Zn  Zn87  1  0.00076567  0.87477687  0.87671906  1
  Zn  Zn88  1  0.13032191  0.74923236  0.87183047  1
  Zn  Zn89  1  0.49275013  0.12124729  0.62898207  1
  Zn  Zn90  1  0.80832824  0.07695222  0.33555805  1
  Zn  Zn91  1  0.62794132  0.63487204  0.01137487  1
  Zn  Zn92  1  0.87788161  0.62461790  0.75038205  1
  Zn  Zn93  1  0.13677146  0.49896268  0.62319494  1
  Zn  Zn94  1  -0.00714138  0.61744459  0.11579192  1
  Zn  Zn95  1  0.38173978  0.62020175  0.24588352  1
  Zn  Zn96  1  0.11450496  0.26643180  0.87712944  1
  Zn  Zn97  1  0.62098262  0.50273614  0.12899951  1
  Zn  Zn98  1  0.37891642  0.75267177  0.62432672  1
  Zn  Zn99  1  0.50753114  0.74524443  0.24365819  1
  Zn  Zn100  1  0.85425889  0.92521395  0.42698261  1
  Zn  Zn101  1  0.76227564  0.13400488  0.88913828  1
  Zn  Zn102  1  0.87908854  0.37101815  -0.00656709  1
  Zn  Zn103  1  0.26464585  0.12026418  0.87239787  1
  Zn  Zn104  1  0.50325638  0.38018707  0.87524836  1
  Zn  Zn105  1  0.75083199  0.75271652  0.49932450  1
  Zn  Zn106  1  0.00454087  0.26223031  0.75479034  1
  Zn  Zn107  1  0.18527151  0.18569393  0.18691626  1
  Zn  Zn108  1  0.18839881  0.18805695  0.69189746  1
  Zn  Zn109  1  0.18949552  0.68476430  0.18148358  1
  Zn  Zn110  1  0.18161438  0.68941772  0.68809636  1
  Zn  Zn111  1  0.68022389  0.18456149  0.19295813  1
  Zn  Zn112  1  0.69031902  0.18933933  0.68293376  1
  Zn  Zn113  1  0.69128493  0.68082876  0.18494637  1
  Zn  Zn114  1  0.68793921  0.68837145  0.69127452  1
  Zn  Zn115  1  0.30682102  0.31174842  0.31445470  1
  Zn  Zn116  1  0.31164924  0.31666010  0.81374045  1
  Zn  Zn117  1  0.31138180  0.81487708  0.31191135  1
  Zn  Zn118  1  0.31445038  0.81762601  0.81108164  1
  Zn  Zn119  1  0.80949112  0.29417599  0.30754370  1
  Zn  Zn120  1  0.81276774  0.31611928  0.80840719  1
  Zn  Zn121  1  0.81038349  0.80364790  0.30668697  1
  Zn  Zn122  1  0.81355607  0.81332640  0.81102644  1
  Zn  Zn123  1  0.17774791  0.44146133  0.43337807  1
  Zn  Zn124  1  0.18570853  0.43874348  0.93299831  1
  Zn  Zn125  1  0.18529586  0.93292074  0.43856574  1
  Zn  Zn126  1  0.18997389  0.93787153  0.93449962  1
  Zn  Zn127  1  0.68555915  0.43460443  0.43213986  1
  Zn  Zn128  1  0.69244620  0.43284707  0.93741558  1
  Zn  Zn129  1  0.67942859  0.94291882  0.43289278  1
  Zn  Zn130  1  0.68578943  0.94530255  0.94037241  1
  Zn  Zn131  1  0.30513892  0.06347141  0.07586227  1
  Zn  Zn132  1  0.31293474  0.05908891  0.56020557  1
  Zn  Zn133  1  0.30540011  0.56233931  0.05830895  1
  Zn  Zn134  1  0.29067622  0.62396085  0.57763500  1
  Zn  Zn135  1  0.81199170  0.05993508  0.17711312  1
  Zn  Zn136  1  0.81147615  0.05793842  0.55277243  1
  Zn  Zn137  1  0.79956597  0.51985283  0.04403668  1
  Zn  Zn138  1  0.81782423  0.56241431  0.56158581  1
  Zn  Zn139  1  0.43685436  0.43794531  0.18774305  1
  Zn  Zn140  1  0.44100316  0.43972729  0.69440364  1
  Zn  Zn141  1  0.43482735  0.93538987  0.19241098  1
  Zn  Zn142  1  0.43783651  0.93040791  0.68123170  1
  Zn  Zn143  1  0.93499379  0.42937372  0.18676392  1
  Zn  Zn144  1  0.94384789  0.43746194  0.69213583  1
  Zn  Zn145  1  0.93152931  0.93655060  0.20030146  1
  Zn  Zn146  1  0.94089128  0.93934309  0.68403970  1
  Zn  Zn147  1  0.05954302  0.06269068  0.31617800  1
  Zn  Zn148  1  0.04771814  0.08980569  0.82760196  1
  Zn  Zn149  1  0.05586438  0.56099634  0.31270373  1
  Zn  Zn150  1  0.07194020  0.56249432  0.80260353  1
  Zn  Zn151  1  0.56264278  0.06508779  0.31201582  1
  Zn  Zn152  1  0.56979542  0.06754993  0.81025369  1
  Zn  Zn153  1  0.56209550  0.56525120  0.30987098  1
  Zn  Zn154  1  0.56369531  0.56212084  0.82068809  1
  Zn  Zn155  1  0.43487058  0.18900737  0.44442775  1
  Zn  Zn156  1  0.44532538  0.20599544  0.93911930  1
  Zn  Zn157  1  0.43840304  0.68942539  0.43356223  1
  Zn  Zn158  1  0.43736824  0.68988527  0.93665972  1
  Zn  Zn159  1  0.94965612  0.19145045  0.44060491  1
  Zn  Zn160  1  0.95239516  0.21651400  0.94794365  1
  Zn  Zn161  1  0.92456300  0.72851217  0.42210009  1
  Zn  Zn162  1  0.93763345  0.68412164  0.93496772  1
  Zn  Zn163  1  0.05804357  0.31421427  0.06054133  1
  Zn  Zn164  1  0.07151996  0.31218744  0.57558252  1
  Zn  Zn165  1  0.05995743  0.80981880  0.06105917  1
  Zn  Zn166  1  0.06719536  0.80993270  0.56542393  1
  Zn  Zn167  1  0.56130895  0.31044448  0.06444231  1
  Zn  Zn168  1  0.55753108  0.31361743  0.56570987  1
  Zn  Zn169  1  0.56119292  0.81712404  0.06206889  1
  Zn  Zn170  1  0.55920229  0.81391499  0.55708217  1
  O  O171  1  0.12178405  0.11422968  0.11668101  1
  O  O172  1  0.11892935  0.11869542  0.61887703  1
  O  O173  1  0.12202325  0.61467210  0.11607117  1
  O  O174  1  0.11864577  0.62166356  0.61255348  1
  O  O175  1  0.61308258  0.12250990  0.11546344  1
  O  O176  1  0.62158533  0.11841420  0.61996592  1
  O  O177  1  0.62931496  0.61630447  0.12161673  1
  O  O178  1  0.62264919  0.61985703  0.61841658  1
  O  O179  1  0.38487992  0.37915939  0.36901820  1
  O  O180  1  0.37825626  0.38697332  0.88296122  1
  O  O181  1  0.38582382  0.86829420  0.38322937  1
  O  O182  1  0.38907493  0.87306213  0.88236297  1
  O  O183  1  0.87232078  0.37480796  0.37107938  1
  O  O184  1  0.87321901  0.39150643  0.86877856  1
  O  O185  1  0.88770270  0.83328791  0.38094340  1
  O  O186  1  0.87705784  0.88167933  0.88204215  1
  O  O187  1  0.24127616  -0.00159890  0.36292040  1
  O  O188  1  0.25585771  -0.00413273  0.85887432  1
  O  O189  1  0.25290489  0.50448469  0.36745055  1
  O  O190  1  0.26916627  0.50345561  0.88572194  1
  O  O191  1  0.77243732  0.00098388  0.41190946  1
  O  O192  1  0.75674035  0.00606534  0.86903144  1
  O  O193  1  0.76143939  0.50341348  0.37243963  1
  O  O194  1  0.75400352  0.50828933  0.86387249  1
  O  O195  1  0.23900314  0.49406209  0.12883732  1
  O  O196  1  0.26017840  0.50739839  0.60518298  1
  O  O197  1  0.23512320  0.99224916  0.13303797  1
  O  O198  1  0.23967320  1.00136399  0.63390733  1
  O  O199  1  0.75097167  0.49985172  0.14682465  1
  O  O200  1  0.74710893  0.49341441  0.62865024  1
  O  O201  1  0.74292175  0.98303220  0.12249775  1
  O  O202  1  0.74045483  0.99456085  0.62733193  1
  O  O203  1  0.01279100  0.36406150  0.24438216  1
  O  O204  1  0.02066726  0.37420599  0.74134493  1
  O  O205  1  0.01194511  0.86461678  0.24181336  1
  O  O206  1  0.00885913  0.86914101  0.74903006  1
  O  O207  1  0.50217222  0.36826087  0.25716910  1
  O  O208  1  0.51492376  0.36929738  0.74944094  1
  O  O209  1  0.49289027  0.86602857  0.26474676  1
  O  O210  1  0.50447831  0.86540524  0.75629864  1
  O  O211  1  0.49072741  0.12992368  0.24326204  1
  O  O212  1  0.50653561  0.14136134  0.74867543  1
  O  O213  1  0.49324519  0.63294976  0.25771705  1
  O  O214  1  0.50261398  0.63488361  0.74990845  1
  O  O215  1  1.01151448  0.13350777  0.24124121  1
  O  O216  1  0.98664245  0.11269145  0.73146598  1
  O  O217  1  0.99168787  0.62822677  0.24251546  1
  O  O218  1  1.00592027  0.63465231  0.73472362  1
  O  O219  1  0.37048836  0.26053172  0.00745962  1
  O  O220  1  0.36196762  0.25201887  0.50852057  1
  O  O221  1  0.36975902  0.75554475  0.00781028  1
  O  O222  1  0.38437857  0.76459532  0.50262872  1
  O  O223  1  0.85862988  0.23790078  0.01347412  1
  O  O224  1  0.88020303  0.25571841  0.51506362  1
  O  O225  1  0.88345732  0.75884710  0.00977981  1
  O  O226  1  0.86934416  0.74359424  0.52026658  1
  O  O227  1  0.13274690  0.24485471  0.49695439  1
  O  O228  1  0.13556666  0.23985595  0.99619875  1
  O  O229  1  0.11706425  0.73852268  0.48743457  1
  O  O230  1  0.13235338  0.74234978  0.99769823  1
  O  O231  1  0.61618682  0.23964236  0.49620928  1
  O  O232  1  0.61458144  0.23744665  0.99211881  1
  O  O233  1  0.62584825  0.73661721  0.49543378  1
  O  O234  1  0.62124920  0.75275157  0.98679592  1
  O  O235  1  0.49212899  0.23868054  0.13006656  1
  O  O236  1  0.48798916  0.25197939  0.63282031  1
  O  O237  1  0.48364869  0.75714393  0.12433418  1
  O  O238  1  0.50450141  0.74418530  0.63613028  1
  O  O239  1  1.01113451  0.23681987  0.13669784  1
  O  O240  1  0.99538970  0.23982519  0.62764086  1
  O  O241  1  0.99223138  0.74606771  0.13188926  1
  O  O242  1  0.99418465  0.74698791  0.63217577  1
  O  O243  1  0.01601359  0.24504479  0.36509077  1
  O  O244  1  0.01812517  0.20427049  0.85653343  1
  O  O245  1  0.01634698  0.73841281  0.35378860  1
  O  O246  1  -0.00034928  0.75045744  0.85978009  1
  O  O247  1  0.50242585  0.25753014  0.37356145  1
  O  O248  1  0.51305535  0.25873210  0.86564248  1
  O  O249  1  0.51060411  0.75821438  0.37475472  1
  O  O250  1  0.50783233  0.75751814  0.86971989  1
  O  O251  1  0.24254128  0.13447052  0.50488063  1
  O  O252  1  0.24616854  0.13242923  1.00421428  1
  O  O253  1  0.23410106  0.62123430  0.48044739  1
  O  O254  1  0.23510244  0.63469815  1.00385525  1
  O  O255  1  0.73805221  0.13814864  0.51174391  1
  O  O256  1  0.73369988  0.12463581  1.00470330  1
  O  O257  1  0.74364685  0.62339423  0.49374057  1
  O  O258  1  0.75032299  0.61370616  0.98780550  1
  O  O259  1  0.25918204  0.36899380  0.00237401  1
  O  O260  1  0.25089491  0.37533957  0.50096692  1
  O  O261  1  0.25985414  0.87090354  0.00425894  1
  O  O262  1  0.26269030  0.87232792  0.49767491  1
  O  O263  1  0.77127299  0.41116929  0.00993412  1
  O  O264  1  0.74523455  0.36823155  0.50835965  1
  O  O265  1  0.76073495  0.87785172  0.00058471  1
  O  O266  1  0.74391486  0.87245800  0.51374813  1
  O  O267  1  0.12601956  0.49237098  0.24322227  1
  O  O268  1  0.13330549  0.49249084  0.74082800  1
  O  O269  1  0.12531285  0.99247443  0.24526393  1
  O  O270  1  0.12600942  0.99041075  0.74406787  1
  O  O271  1  0.63352114  0.48943875  0.25699730  1
  O  O272  1  0.63105332  0.49297600  0.74647415  1
  O  O273  1  0.62142610  1.00651964  0.23341054  1
  O  O274  1  0.63246602  0.99702442  0.74285958  1
  O  O275  1  0.36137440  0.00796873  0.24527433  1
  O  O276  1  0.36478035  -0.00366423  0.74208038  1
  O  O277  1  0.36470398  0.49992494  0.25432203  1
  O  O278  1  0.38240503  0.50958083  0.76533670  1
  O  O279  1  0.87735568  0.01257893  0.25763054  1
  O  O280  1  0.87020567  0.00494685  0.75294764  1
  O  O281  1  0.87196555  0.49806330  0.26001544  1
  O  O282  1  0.86742468  0.50300721  0.75349628  1
  O  O283  1  0.12612072  0.36735646  0.36368254  1
  O  O284  1  0.12943051  0.37805257  0.85985561  1
  O  O285  1  0.12769558  0.86402892  0.36447184  1
  O  O286  1  0.12151007  0.87298555  0.86662401  1
  O  O287  1  0.60869956  0.37120998  0.36808636  1
  O  O288  1  0.62685503  0.36872182  0.86775399  1
  O  O289  1  0.61361081  0.86488208  0.38101599  1
  O  O290  1  0.61755371  0.87199908  0.87202058  1
  O  O291  1  0.38036796  0.12989663  0.13270255  1
  O  O292  1  0.37521319  0.13821970  0.62311802  1
  O  O293  1  0.36782280  0.63898781  0.12212698  1
  O  O294  1  0.38786061  0.62558251  0.63948612  1
  O  O295  1  0.88855470  0.13583712  0.12497565  1
  O  O296  1  0.88105497  0.13169124  0.62644727  1
  O  O297  1  0.87225904  0.63034526  0.12796679  1
  O  O298  1  0.88216400  0.63164468  0.62993912  1
  O  O299  1  0.25301164  0.25441796  0.11457070  1
  O  O300  1  0.25754945  0.24930643  0.61821277  1
  O  O301  1  0.25660997  0.75623202  0.11369558  1
  O  O302  1  0.25978794  0.73417828  0.61959758  1
  O  O303  1  0.75669554  0.25195282  0.13401768  1
  O  O304  1  0.76138590  0.25828509  0.62139178  1
  O  O305  1  0.75754974  0.76128499  0.12831015  1
  O  O306  1  0.75578247  0.75895630  0.62913213  1
  O  O307  1  0.23794874  0.25463556  0.38639149  1
  O  O308  1  0.25719955  0.24317627  0.88790745  1
  O  O309  1  0.23672873  0.74071975  0.36403323  1
  O  O310  1  0.25228468  0.75727416  0.88861333  1
  O  O311  1  0.72612036  0.26678273  0.38473713  1
  O  O312  1  0.73747468  0.24861287  0.86756394  1
  O  O313  1  0.74118023  0.73962985  0.37908965  1
  O  O314  1  0.74345808  0.73874855  0.86646908  1
  O  O315  1  0.00910307  0.11489114  0.01070352  1
  O  O316  1  0.00933017  0.11884446  0.50983273  1
  O  O317  1  0.01759108  0.63247391  0.00086307  1
  O  O318  1  0.00161194  0.62675480  0.50905694  1
  O  O319  1  0.49530743  0.11662912  0.00501680  1
  O  O320  1  0.50378980  0.12066224  0.50635253  1
  O  O321  1  0.50248977  0.61522412  -0.00271983  1
  O  O322  1  0.50745776  0.61812341  0.50429284  1
  O  O323  1  0.50609522  0.38457036  0.49081714  1
  O  O324  1  0.48674937  0.37803574  1.00082832  1
  O  O325  1  0.49308944  0.87892983  0.48834475  1
  O  O326  1  0.48720215  0.87693445  0.99344308  1
  O  O327  1  1.00743032  0.38684389  0.50645782  1
  O  O328  1  0.98563662  0.32626755  0.97896560  1
  O  O329  1  1.01212771  0.88631738  0.50121692  1
  O  O330  1  0.99347281  0.88581677  1.00166470  1
  O  O331  1  0.49127474  0.49454478  0.38131750  1
  O  O332  1  0.49264729  0.49796462  0.88844082  1
  O  O333  1  0.50698612  0.98369366  0.37263079  1
  O  O334  1  0.50379466  0.99377096  0.87302184  1
  O  O335  1  0.98958189  0.50079146  0.38843275  1
  O  O336  1  0.99078522  0.50525874  0.85918969  1
  O  O337  1  1.00417535  1.00257009  0.39423408  1
  O  O338  1  0.99288234  1.00165498  0.88549701  1
  O  O339  1  0.00704084  0.00417351  0.12201720  1
  O  O340  1  0.01457795  0.00380527  0.61754933  1
  O  O341  1  0.01068146  0.49618686  0.12688664  1
  O  O342  1  -0.00473137  0.50912526  0.61072976  1
  O  O343  1  0.50266993  0.00854680  0.12924506  1
  O  O344  1  0.51324753  -0.00017026  0.62835190  1
  O  O345  1  0.49580216  0.49703809  0.10892512  1
  O  O346  1  0.50869031  0.50456966  0.62094412  1
  O  O347  1  0.23820297  0.37877115  0.24298357  1
  O  O348  1  0.24086267  0.37474149  0.74925114  1
  O  O349  1  0.23969963  0.88084880  0.24435926  1
  O  O350  1  0.24472252  0.88352160  0.74474469  1
  O  O351  1  0.73738829  0.37833946  0.26154954  1
  O  O352  1  0.74112007  0.38406986  0.74149531  1
  O  O353  1  0.74961902  0.87514504  0.24092107  1
  O  O354  1  0.74265845  0.88157342  0.74293905  1
  O  O355  1  0.25664018  0.11535738  0.24463859  1
  O  O356  1  0.24817497  0.10781927  0.75336537  1
  O  O357  1  0.24954365  0.61674848  0.25760233  1
  O  O358  1  0.26040389  0.62814032  0.75046336  1
  O  O359  1  0.75078453  0.12307018  0.24986468  1
  O  O360  1  0.76270610  0.12070280  0.74512714  1
  O  O361  1  0.75728950  0.61419489  0.26134180  1
  O  O362  1  0.74877187  0.61200321  0.75366918  1
  O  O363  1  0.37895122  0.12910917  0.36372074  1
  O  O364  1  0.38444064  0.11640282  0.89101424  1
  O  O365  1  0.36406201  0.61817187  0.37680457  1
  O  O366  1  0.38058752  0.61576767  0.86891517  1
  O  O367  1  0.84581581  0.17630630  0.39496398  1
  O  O368  1  0.87485878  0.11849569  0.86303493  1
  O  O369  1  0.86501630  0.63072165  0.37005909  1
  O  O370  1  0.86903463  0.61686174  0.86978046  1
  O  O371  1  0.12850104  0.38013077  0.12642916  1
  O  O372  1  0.13526936  0.38303923  0.63348165  1
  O  O373  1  0.12826637  0.88022461  0.13024151  1
  O  O374  1  0.13231039  0.88098030  0.63075627  1
  O  O375  1  0.61548954  0.37804703  0.14108537  1
  O  O376  1  0.63328887  0.37932333  0.63067141  1
  O  O377  1  0.63804937  0.87994414  0.11978308  1
  O  O378  1  0.62963909  0.88176876  0.62973212  1
  O  O379  1  0.12433560  0.25584144  0.25796496  1
  O  O380  1  0.12782136  0.26196327  0.75182618  1
  O  O381  1  0.12002235  0.75550872  0.24813613  1
  O  O382  1  0.11906171  0.76213606  0.75054554  1
  O  O383  1  0.61305783  0.25478633  0.25977882  1
  O  O384  1  0.62181858  0.25726034  0.75350337  1
  O  O385  1  0.62922208  0.74529687  0.26238028  1
  O  O386  1  0.61886554  0.75563875  0.76047469  1
  O  O387  1  0.37455755  0.24377959  0.24537351  1
  O  O388  1  0.38461860  0.25915881  0.74245676  1
  O  O389  1  0.36735901  0.74960996  0.23179303  1
  O  O390  1  0.38545444  0.74251608  0.75347662  1
  O  O391  1  0.89021527  0.25104747  0.23911227  1
  O  O392  1  0.87919382  0.24268895  0.74287596  1
  O  O393  1  0.88242521  0.74116890  0.23550320  1
  O  O394  1  0.88365114  0.74832586  0.74174192  1
  O  O395  1  0.37719733  0.48950856  0.49641297  1
  O  O396  1  0.38239626  0.49791394  0.99505406  1
  O  O397  1  0.37672021  0.98189326  0.50443536  1
  O  O398  1  0.37077229  0.99254357  1.00720836  1
  O  O399  1  0.88621448  0.49812125  0.49162419  1
  O  O400  1  0.89594457  0.50489508  0.98023696  1
  O  O401  1  0.89792994  0.99391746  0.51301945  1
  O  O402  1  0.88409091  0.99148831  0.99482492  1
  O  O403  1  0.11956871  -0.00026124  0.00986784  1
  O  O404  1  0.12297459  0.00615708  0.50744890  1
  O  O405  1  0.12943840  0.51171904  0.00458717  1
  O  O406  1  0.10939944  0.51133047  0.49712477  1
  O  O407  1  0.62287860  0.01446316  0.00968609  1
  O  O408  1  0.61995039  0.01302448  0.50757360  1
  O  O409  1  0.60786708  0.49603573  -0.00097922  1
  O  O410  1  0.62242542  0.50959300  0.50277417  1
  O  O411  1  0.36681427  0.37070271  0.11911506  1
  O  O412  1  0.37053521  0.37754452  0.62363085  1
  O  O413  1  0.36908441  0.86831890  0.11807287  1
  O  O414  1  0.37069623  0.86933934  0.61268402  1
  O  O415  1  0.88290921  0.35296507  0.11993733  1
  O  O416  1  0.86576230  0.36721753  0.63424081  1
  O  O417  1  0.86244607  0.86922764  0.12078646  1
  O  O418  1  0.86387107  0.86863207  0.63300708  1
  O  O419  1  0.12364844  0.13165519  0.38938667  1
  O  O420  1  0.14032359  0.10792275  0.89497249  1
  O  O421  1  0.12822654  0.62829611  0.37684535  1
  O  O422  1  0.12474661  0.62703744  0.88521871  1
  O  O423  1  0.61758362  0.13586084  0.38525137  1
  O  O424  1  0.62731072  0.13115690  0.88864221  1
  O  O425  1  0.63565297  0.62795415  0.38256589  1
  O  O426  1  0.63437993  0.63431111  0.87977871  1
