# generated using pymatgen
data_V85Zn86O256
_symmetry_space_group_name_H-M   'P 1'
_cell_length_a   16.92124886
_cell_length_b   16.93216958
_cell_length_c   16.92970990
_cell_angle_alpha   89.94376965
_cell_angle_beta   90.01186236
_cell_angle_gamma   89.94537274
_symmetry_Int_Tables_number   1
_chemical_formula_structural   V85Zn86O256
_chemical_formula_sum   'V85 Zn86 O256'
_cell_volume   4850.58503359
_cell_formula_units_Z   1
loop_
 _symmetry_equiv_pos_site_id
 _symmetry_equiv_pos_as_xyz
  1  'x, y, z'
loop_
 _atom_site_type_symbol
 _atom_site_label
 _atom_site_symmetry_multiplicity
 _atom_site_fract_x
 _atom_site_fract_y
 _atom_site_fract_z
 _atom_site_occupancy
  V  V0  1  0.25260295  0.87905520  0.12141162  1
  V  V1  1  0.75581075  0.86969781  0.11103752  1
  V  V2  1  -0.00164530  0.37420843  0.86894540  1
  V  V3  1  0.76075498  0.50317691  0.75119372  1
  V  V4  1  0.37237398  0.01614815  0.87176301  1
  V  V5  1  0.49966239  0.12354727  0.12841969  1
  V  V6  1  0.76104682  0.87012586  0.62814002  1
  V  V7  1  0.12830935  0.12475699  0.49562353  1
  V  V8  1  0.13240503  0.12462248  -0.00657830  1
  V  V9  1  0.49190547  0.50071997  0.49511946  1
  V  V10  1  0.12357110  -0.00281241  0.62753173  1
  V  V11  1  0.87445221  0.25092312  0.12318074  1
  V  V12  1  -0.00944687  0.37938597  0.37249634  1
  V  V13  1  0.61852318  0.50151634  0.62751285  1
  V  V14  1  0.75215254  -0.00123084  0.75028700  1
  V  V15  1  0.88398930  0.62330717  0.25068500  1
  V  V16  1  0.62595283  0.37991357  0.75296095  1
  V  V17  1  -0.00271486  -0.00765080  -0.00185663  1
  V  V18  1  0.13477164  0.87231409  0.74748097  1
  V  V19  1  0.49591537  -0.00085862  0.50302078  1
  V  V20  1  0.62434947  0.38399210  0.24834924  1
  V  V21  1  -0.00559182  0.13580535  0.62730880  1
  V  V22  1  0.75479118  0.61536182  0.37576052  1
  V  V23  1  0.37403466  0.00290042  0.37096711  1
  V  V24  1  0.12506668  0.74972700  0.87305566  1
  V  V25  1  0.12488746  0.62534885  0.00083009  1
  V  V26  1  0.87496986  -0.00722425  0.87648582  1
  V  V27  1  0.62674709  0.12467245  0.00330908  1
  V  V28  1  0.62180935  0.74896597  0.88427967  1
  V  V29  1  -0.00215308  0.50432807  -0.00545249  1
  V  V30  1  -0.00774450  0.75469520  0.74501462  1
  V  V31  1  -0.00807195  0.00029132  0.49626017  1
  V  V32  1  -0.00122958  0.25284577  0.24956143  1
  V  V33  1  0.36092173  0.12302789  0.25285482  1
  V  V34  1  0.50050647  0.87478423  0.37578284  1
  V  V35  1  -0.00838137  0.50314715  0.49579831  1
  V  V36  1  0.12716532  -0.00445778  0.12143029  1
  V  V37  1  0.12669452  0.62845265  0.48739457  1
  V  V38  1  0.63106400  0.87695324  0.24981439  1
  V  V39  1  0.37740062  0.74928938  0.12339241  1
  V  V40  1  0.00991299  0.75680099  0.25230294  1
  V  V41  1  0.37503801  0.50218759  0.87472938  1
  V  V42  1  0.74629117  0.38403441  0.12356738  1
  V  V43  1  0.76034498  0.74483335  0.50542096  1
  V  V44  1  0.87433913  0.87514207  0.48902111  1
  V  V45  1  0.87333514  0.36898915  0.50369884  1
  V  V46  1  0.61824888  0.87209647  0.75231661  1
  V  V47  1  0.37372106  0.37585438  0.00147681  1
  V  V48  1  0.62169985  0.62526029  0.50664967  1
  V  V49  1  0.50129966  0.74961816  0.25085663  1
  V  V50  1  0.62745030  0.74950782  0.37917626  1
  V  V51  1  0.50129532  -0.00271866  -0.00539864  1
  V  V52  1  0.62495330  0.25144352  0.37615357  1
  V  V53  1  0.37292291  0.62256809  0.26280007  1
  V  V54  1  0.62464082  -0.00370089  0.62503723  1
  V  V55  1  0.75029727  0.36317480  0.62841919  1
  V  V56  1  0.62537471  0.12419919  0.49864909  1
  V  V57  1  0.62616353  0.25103698  0.87871606  1
  V  V58  1  0.12768895  0.50039748  0.62184185  1
  V  V59  1  0.12149059  0.50256410  0.12338798  1
  V  V60  1  0.87402983  0.13726307  0.74694648  1
  V  V61  1  -0.00666326  0.63000204  0.62276950  1
  V  V62  1  0.25400574  0.01450682  0.74907481  1
  V  V63  1  0.25138404  0.74868434  -0.00288054  1
  V  V64  1  0.50035038  0.37634169  0.87425039  1
  V  V65  1  0.50324548  0.73858954  0.74126148  1
  V  V66  1  0.25099855  0.50431899  0.26080244  1
  V  V67  1  0.50605314  0.61711137  0.12522238  1
  V  V68  1  0.75792437  0.62638005  0.88292428  1
  V  V69  1  0.36090423  0.37357256  0.49741881  1
  V  V70  1  0.49924110  0.24807963  0.25249265  1
  V  V71  1  0.24920557  0.37650939  0.12612428  1
  V  V72  1  0.24913270  0.49647250  0.74563304  1
  V  V73  1  0.00029322  0.12495189  0.12170364  1
  V  V74  1  0.37974877  0.87410805  -0.01366677  1
  V  V75  1  0.87553866  0.37838011  -0.00606478  1
  V  V76  1  0.12149884  0.36888747  0.74199567  1
  V  V77  1  0.24556685  0.75002681  0.48374788  1
  V  V78  1  0.19085645  -0.05921372  0.29726182  1
  V  V79  1  0.12680824  0.24868399  0.87073268  1
  V  V80  1  0.75318532  0.12499711  0.87727372  1
  V  V81  1  0.87944381  0.74801625  0.11544742  1
  V  V82  1  0.35959055  0.74922105  0.62867908  1
  V  V83  1  0.13124644  0.24842093  0.37238798  1
  V  V84  1  0.75805900  0.11746972  0.37239428  1
  Zn  Zn85  1  0.12449261  0.37860711  0.25078239  1
  Zn  Zn86  1  0.37003119  0.87546867  0.50697260  1
  Zn  Zn87  1  0.49630259  0.37877526  0.37406304  1
  Zn  Zn88  1  0.00481994  0.87770726  0.36921951  1
  Zn  Zn89  1  0.25144568  0.24781349  -0.00300555  1
  Zn  Zn90  1  0.63064280  -0.00089906  0.12678979  1
  Zn  Zn91  1  0.24835971  0.24660027  0.50279331  1
  Zn  Zn92  1  0.63461754  0.62086436  0.00973131  1
  Zn  Zn93  1  0.36293086  0.24851171  0.63445907  1
  Zn  Zn94  1  0.87574538  0.62869850  0.74835726  1
  Zn  Zn95  1  0.38061710  0.61635082  0.74168911  1
  Zn  Zn96  1  0.76803321  -0.01057886  0.25348527  1
  Zn  Zn97  1  0.25253726  0.62491410  0.87168265  1
  Zn  Zn98  1  -0.00222301  0.87244643  0.87549263  1
  Zn  Zn99  1  0.75384771  0.50068426  0.25101334  1
  Zn  Zn100  1  0.75234409  0.24591450  0.50585026  1
  Zn  Zn101  1  0.37220630  0.24964077  0.12759099  1
  Zn  Zn102  1  0.75172469  0.24992705  0.00296208  1
  Zn  Zn103  1  0.49086022  0.24172936  0.75109343  1
  Zn  Zn104  1  0.50793017  0.49789020  0.00459277  1
  Zn  Zn105  1  0.87647778  0.12129873  0.25102307  1
  Zn  Zn106  1  0.48936340  0.12635920  0.63348396  1
  Zn  Zn107  1  0.18404372  0.18936502  0.18349334  1
  Zn  Zn108  1  0.18666021  0.18988183  0.68134177  1
  Zn  Zn109  1  0.19028924  0.68595126  0.18464856  1
  Zn  Zn110  1  0.18265291  0.67980316  0.68702536  1
  Zn  Zn111  1  0.68833018  0.19078143  0.18998897  1
  Zn  Zn112  1  0.66116515  0.17832365  0.69816680  1
  Zn  Zn113  1  0.69207126  0.69110188  0.18977348  1
  Zn  Zn114  1  0.68962425  0.68681160  0.68858141  1
  Zn  Zn115  1  0.31570088  0.31842762  0.31655138  1
  Zn  Zn116  1  0.30714077  0.31238253  0.80932871  1
  Zn  Zn117  1  0.32088763  0.80935069  0.31440422  1
  Zn  Zn118  1  0.31362654  0.81359432  0.80917293  1
  Zn  Zn119  1  0.81012957  0.31047774  0.31287323  1
  Zn  Zn120  1  0.80992670  0.31371171  0.81502298  1
  Zn  Zn121  1  0.81378331  0.80318456  0.31073305  1
  Zn  Zn122  1  0.80909817  0.81005658  0.81650592  1
  Zn  Zn123  1  0.17774343  0.43799068  0.43471400  1
  Zn  Zn124  1  0.18752152  0.43613220  0.93352241  1
  Zn  Zn125  1  0.18832322  0.93480464  0.45941560  1
  Zn  Zn126  1  0.18956140  0.93731845  0.93205182  1
  Zn  Zn127  1  0.68526719  0.43631250  0.44054966  1
  Zn  Zn128  1  0.68817646  0.44517692  0.94137633  1
  Zn  Zn129  1  0.68941716  0.93647636  0.43854002  1
  Zn  Zn130  1  0.68570262  0.93572335  0.93586346  1
  Zn  Zn131  1  0.31459041  0.06179751  0.06285304  1
  Zn  Zn132  1  0.30978901  0.06277031  0.56594178  1
  Zn  Zn133  1  0.31468817  0.56258825  0.06612924  1
  Zn  Zn134  1  0.31226250  0.56905938  0.56258412  1
  Zn  Zn135  1  0.81343281  0.05783996  0.06575025  1
  Zn  Zn136  1  0.81206512  0.06134197  0.56317165  1
  Zn  Zn137  1  0.81772184  0.56387573  0.06458424  1
  Zn  Zn138  1  0.81176270  0.55639826  0.56600723  1
  Zn  Zn139  1  0.43423188  0.43827283  0.19296647  1
  Zn  Zn140  1  0.43614393  0.42907729  0.68381301  1
  Zn  Zn141  1  0.43778915  0.93840700  0.18609054  1
  Zn  Zn142  1  0.43514646  0.93364266  0.68900077  1
  Zn  Zn143  1  0.93731318  0.44015081  0.18228977  1
  Zn  Zn144  1  0.93889721  0.43651382  0.68252064  1
  Zn  Zn145  1  0.93724932  0.93500202  0.18648819  1
  Zn  Zn146  1  0.93923097  0.93983146  0.68734662  1
  Zn  Zn147  1  0.05141334  0.06630021  0.31377146  1
  Zn  Zn148  1  0.06071975  0.06384074  0.81011027  1
  Zn  Zn149  1  0.06086648  0.56256190  0.31027604  1
  Zn  Zn150  1  0.06126276  0.56269514  0.81172895  1
  Zn  Zn151  1  0.56316482  0.06104361  0.31335630  1
  Zn  Zn152  1  0.56254074  0.05996759  0.81580122  1
  Zn  Zn153  1  0.56373925  0.56547721  0.31536760  1
  Zn  Zn154  1  0.56678958  0.56356593  0.81879968  1
  Zn  Zn155  1  0.43425731  0.18501911  0.44465740  1
  Zn  Zn156  1  0.43909202  0.19124641  0.93980381  1
  Zn  Zn157  1  0.43762233  0.68737343  0.44551373  1
  Zn  Zn158  1  0.44315300  0.68660978  0.93530097  1
  Zn  Zn159  1  0.93959003  0.19090724  0.43988362  1
  Zn  Zn160  1  0.94207512  0.18696742  0.93526795  1
  Zn  Zn161  1  0.94058627  0.69076181  0.43109354  1
  Zn  Zn162  1  0.94065899  0.68674355  0.93425115  1
  Zn  Zn163  1  0.06326313  0.31455271  0.05899562  1
  Zn  Zn164  1  0.06397167  0.31327349  0.55958905  1
  Zn  Zn165  1  0.06105604  0.81131093  0.06577022  1
  Zn  Zn166  1  0.06328203  0.81310644  0.56127517  1
  Zn  Zn167  1  0.56139969  0.31305269  0.06452367  1
  Zn  Zn168  1  0.55691961  0.31337710  0.56502371  1
  Zn  Zn169  1  0.56290499  0.81267169  0.06517667  1
  Zn  Zn170  1  0.56368265  0.81289041  0.56576102  1
  O  O171  1  0.12026602  0.11446765  0.11790043  1
  O  O172  1  0.11119682  0.11568131  0.62052765  1
  O  O173  1  0.13009980  0.61743855  0.10935153  1
  O  O174  1  0.11321017  0.61734432  0.61602839  1
  O  O175  1  0.61946704  0.12300201  0.12161953  1
  O  O176  1  0.63511057  0.11353835  0.60593275  1
  O  O177  1  0.61056183  0.63537788  0.12858544  1
  O  O178  1  0.63232545  0.61757167  0.61382147  1
  O  O179  1  0.37986642  0.38104017  0.38942849  1
  O  O180  1  0.38082426  0.38417054  0.88198625  1
  O  O181  1  0.38273921  0.88486433  0.37719690  1
  O  O182  1  0.37304035  0.88201920  0.88410657  1
  O  O183  1  0.88340018  0.37148825  0.38092946  1
  O  O184  1  0.88078408  0.37181549  0.88598979  1
  O  O185  1  0.87188938  0.87132500  0.38664937  1
  O  O186  1  0.87480924  0.88830603  0.87106558  1
  O  O187  1  0.25185295  -0.01110223  0.36645014  1
  O  O188  1  0.25780226  -0.00175876  0.86047719  1
  O  O189  1  0.23834576  0.49890977  0.35938827  1
  O  O190  1  0.25869247  0.50043369  0.86695640  1
  O  O191  1  0.74593647  0.01372106  0.37320055  1
  O  O192  1  0.75629851  0.00505597  0.87200136  1
  O  O193  1  0.74755120  0.51211141  0.37649637  1
  O  O194  1  0.74505084  0.51657940  0.86481117  1
  O  O195  1  0.24117395  0.49191795  0.12805828  1
  O  O196  1  0.23658496  0.50580284  0.62878721  1
  O  O197  1  0.24580113  0.98745178  0.12114901  1
  O  O198  1  0.24025157  1.00174498  0.63756925  1
  O  O199  1  0.75556087  0.48744141  0.12748133  1
  O  O200  1  0.73942472  0.49318477  0.63353299  1
  O  O201  1  0.75058417  0.98396697  0.12910088  1
  O  O202  1  0.74444963  0.99067487  0.63025340  1
  O  O203  1  -0.00188454  0.37042097  0.25504569  1
  O  O204  1  0.00710709  0.38197147  0.75771135  1
  O  O205  1  0.00103922  0.86251269  0.25016824  1
  O  O206  1  0.01078316  0.87001138  0.74958143  1
  O  O207  1  0.50586457  0.36827418  0.25195679  1
  O  O208  1  0.50724239  0.37854996  0.76385149  1
  O  O209  1  0.50695379  0.86838169  0.25379506  1
  O  O210  1  0.51391069  0.86682477  0.74768278  1
  O  O211  1  0.49628105  0.12818335  0.24363177  1
  O  O212  1  0.54410215  0.13563827  0.73689121  1
  O  O213  1  0.49615915  0.62975609  0.24337318  1
  O  O214  1  0.50070148  0.63456277  0.75275075  1
  O  O215  1  0.99910156  0.13726105  0.23997842  1
  O  O216  1  0.99031749  0.11998174  0.73520369  1
  O  O217  1  0.98887622  0.63341366  0.25234178  1
  O  O218  1  0.99953024  0.63381668  0.74163755  1
  O  O219  1  0.37228735  0.26317894  0.00183658  1
  O  O220  1  0.36759194  0.26508295  0.49000986  1
  O  O221  1  0.37361718  0.75727746  0.00116332  1
  O  O222  1  0.36201088  0.74842659  0.51010917  1
  O  O223  1  0.87772358  0.25861609  0.00685616  1
  O  O224  1  0.87226210  0.26374914  0.49929543  1
  O  O225  1  0.88384461  0.74408141  0.01599285  1
  O  O226  1  0.86613607  0.75472116  0.49854770  1
  O  O227  1  0.12067459  0.24181518  0.48942481  1
  O  O228  1  0.12427149  0.24116291  0.99266861  1
  O  O229  1  0.13711860  0.74419192  0.50309135  1
  O  O230  1  0.12819012  0.74320239  0.99567865  1
  O  O231  1  0.62627325  0.24099899  0.49316397  1
  O  O232  1  0.62610901  0.24621119  0.99257735  1
  O  O233  1  0.63268662  0.74233855  0.49903129  1
  O  O234  1  0.61940518  0.74713971  0.98703570  1
  O  O235  1  0.49753651  0.23802271  0.13072538  1
  O  O236  1  0.50026879  0.24642698  0.63195387  1
  O  O237  1  0.49466926  0.74481771  0.13264643  1
  O  O238  1  0.50078281  0.74886751  0.63831971  1
  O  O239  1  0.99470654  0.24969769  0.13075553  1
  O  O240  1  1.00224813  0.23431345  0.62010724  1
  O  O241  1  0.98672861  0.75573923  0.13404004  1
  O  O242  1  1.00618685  0.74198319  0.63211830  1
  O  O243  1  0.00266081  0.25633980  0.36482802  1
  O  O244  1  0.00936229  0.26512692  0.87943333  1
  O  O245  1  0.00081870  0.75711913  0.35939422  1
  O  O246  1  0.00775118  0.75164048  0.86542871  1
  O  O247  1  0.51191496  0.24717078  0.37215482  1
  O  O248  1  0.50883754  0.25828987  0.87493765  1
  O  O249  1  0.50643777  0.75535958  0.37348632  1
  O  O250  1  0.51477182  0.74608838  0.86424050  1
  O  O251  1  0.23075677  0.11991737  0.49834684  1
  O  O252  1  0.23665788  0.12624945  1.00582788  1
  O  O253  1  0.24066611  0.63858195  0.50359228  1
  O  O254  1  0.24521015  0.63149542  0.99793562  1
  O  O255  1  0.74553647  0.12516947  0.48915082  1
  O  O256  1  0.74352115  0.12454247  0.99703522  1
  O  O257  1  0.74817877  0.62925072  0.49667661  1
  O  O258  1  0.75369087  0.62284118  0.98720643  1
  O  O259  1  0.25734140  0.37694595  0.00730647  1
  O  O260  1  0.25940672  0.38295255  0.49495956  1
  O  O261  1  0.25869898  0.87034624  0.00438481  1
  O  O262  1  0.25213368  0.85564079  0.50521570  1
  O  O263  1  0.75928415  0.37493556  0.00511055  1
  O  O264  1  0.75580972  0.37393993  0.50971462  1
  O  O265  1  0.74699529  0.87420404  0.01261715  1
  O  O266  1  0.75584799  0.86657009  0.50652390  1
  O  O267  1  0.12894816  0.50184935  0.23831259  1
  O  O268  1  0.12876721  0.49556022  0.74070825  1
  O  O269  1  0.12726723  1.00427783  0.24328725  1
  O  O270  1  0.13165763  0.99439319  0.74614402  1
  O  O271  1  0.62631947  0.48723151  0.25554544  1
  O  O272  1  0.63166975  0.49782451  0.74494206  1
  O  O273  1  0.62461975  0.98502049  0.24923250  1
  O  O274  1  0.63266504  0.98762688  0.74952038  1
  O  O275  1  0.37966769  0.00845888  0.25856748  1
  O  O276  1  0.36345824  -0.00231766  0.75469457  1
  O  O277  1  0.36406335  0.50973280  0.24837668  1
  O  O278  1  0.36781373  0.49605115  0.75392970  1
  O  O279  1  0.88017845  0.00820121  0.24645769  1
  O  O280  1  0.86923961  0.00654607  0.75683728  1
  O  O281  1  0.87625335  0.51812002  0.24169838  1
  O  O282  1  0.86348800  0.50132045  0.74517452  1
  O  O283  1  0.10854473  0.36642343  0.37306173  1
  O  O284  1  0.11635886  0.37074379  0.86597103  1
  O  O285  1  0.13290818  0.88856353  0.36241627  1
  O  O286  1  0.12324724  0.86694887  0.86649248  1
  O  O287  1  0.62528893  0.36616874  0.36814822  1
  O  O288  1  0.61854664  0.37098219  0.87626621  1
  O  O289  1  0.62181420  0.86942032  0.36991000  1
  O  O290  1  0.63439876  0.85843554  0.86652125  1
  O  O291  1  0.38258175  0.12602659  0.13248733  1
  O  O292  1  0.38119411  0.13622020  0.60376420  1
  O  O293  1  0.38530480  0.63200466  0.13174154  1
  O  O294  1  0.37674131  0.64232022  0.62624917  1
  O  O295  1  0.88071302  0.13838475  0.12089439  1
  O  O296  1  0.88469904  0.12181895  0.63113755  1
  O  O297  1  0.86801131  0.63901593  0.13735068  1
  O  O298  1  0.88878393  0.62034043  0.62510671  1
  O  O299  1  0.24949618  0.26480591  0.12275078  1
  O  O300  1  0.24651825  0.25359420  0.61572058  1
  O  O301  1  0.25558345  0.76076019  0.11780817  1
  O  O302  1  0.25850828  0.74887556  0.63090074  1
  O  O303  1  0.75956166  0.25884300  0.12440619  1
  O  O304  1  0.73767985  0.26162706  0.62877938  1
  O  O305  1  0.76198619  0.76045662  0.12784211  1
  O  O306  1  0.74666661  0.75719780  0.61658602  1
  O  O307  1  0.23382926  0.25702974  0.37565751  1
  O  O308  1  0.23173283  0.25912535  0.87971554  1
  O  O309  1  0.25183246  0.75091752  0.38514881  1
  O  O310  1  0.24469316  0.74819231  0.87912624  1
  O  O311  1  0.73815640  0.24069186  0.37631585  1
  O  O312  1  0.74408684  0.24389811  0.88200455  1
  O  O313  1  0.74517970  0.73957479  0.38551097  1
  O  O314  1  0.73793342  0.73612889  0.86859963  1
  O  O315  1  0.01031011  0.11635223  0.00447573  1
  O  O316  1  0.00075157  0.11829336  0.50898866  1
  O  O317  1  0.00868629  0.61338481  -0.00671026  1
  O  O318  1  0.00232322  0.62078237  0.50317128  1
  O  O319  1  0.50543788  0.11941033  0.00860962  1
  O  O320  1  0.50999301  0.11113479  0.49526366  1
  O  O321  1  0.49832112  0.62572939  0.01755963  1
  O  O322  1  0.50950207  0.61457341  0.50023162  1
  O  O323  1  0.50183268  0.39025987  0.49588230  1
  O  O324  1  0.49267875  0.37531362  0.99188102  1
  O  O325  1  0.50115811  0.88538687  0.49572737  1
  O  O326  1  0.49170952  0.88564903  1.00766719  1
  O  O327  1  0.99237066  0.38200493  0.49382684  1
  O  O328  1  0.99420958  0.38322024  0.99257620  1
  O  O329  1  0.99141005  0.88010659  0.49712778  1
  O  O330  1  1.00642680  0.88841459  0.99675701  1
  O  O331  1  0.50615463  0.50117643  0.39177665  1
  O  O332  1  0.49302604  0.49308049  0.87704120  1
  O  O333  1  0.49262924  0.99463817  0.38167299  1
  O  O334  1  0.49275648  1.00289958  0.88619189  1
  O  O335  1  1.00304329  0.49136462  0.38277283  1
  O  O336  1  1.00515489  0.48862829  0.88336613  1
  O  O337  1  1.00335712  0.99678901  0.39081655  1
  O  O338  1  0.99227482  0.99940080  0.88049771  1
  O  O339  1  0.00886137  0.00230076  0.11635120  1
  O  O340  1  0.00469050  0.00665270  0.61600111  1
  O  O341  1  0.01454706  0.49397570  0.11317194  1
  O  O342  1  0.00775062  0.50717972  0.61596967  1
  O  O343  1  0.50173677  0.01006151  0.11639757  1
  O  O344  1  0.50508174  0.00048831  0.61864763  1
  O  O345  1  0.49599821  0.51474279  0.12882622  1
  O  O346  1  0.51283247  0.49597345  0.61820238  1
  O  O347  1  0.24948710  0.38400736  0.24231517  1
  O  O348  1  0.23535487  0.38879230  0.75377919  1
  O  O349  1  0.24972703  0.87381089  0.24291821  1
  O  O350  1  0.23804510  0.88171480  0.75100012  1
  O  O351  1  0.74350624  0.37704643  0.24332424  1
  O  O352  1  0.74612422  0.38421352  0.74712451  1
  O  O353  1  0.74395296  0.87224633  0.24728324  1
  O  O354  1  0.74394903  0.87610787  0.74298865  1
  O  O355  1  0.26183530  0.12894204  0.24311672  1
  O  O356  1  0.24078836  0.11215424  0.75066120  1
  O  O357  1  0.26086731  0.61730275  0.24251776  1
  O  O358  1  0.25145196  0.61050860  0.75183420  1
  O  O359  1  0.74934008  0.12352857  0.26293876  1
  O  O360  1  0.75290440  0.11796657  0.75606002  1
  O  O361  1  0.75806800  0.62461626  0.25946114  1
  O  O362  1  0.75384178  0.61893091  0.75564409  1
  O  O363  1  0.37628625  0.11147782  0.36983636  1
  O  O364  1  0.37643341  0.11540606  0.88080571  1
  O  O365  1  0.38150880  0.63150109  0.36190226  1
  O  O366  1  0.37706570  0.61145306  0.87324622  1
  O  O367  1  0.86014103  0.13371338  0.37579596  1
  O  O368  1  0.87201782  0.11801469  0.86799190  1
  O  O369  1  0.86879177  0.63027686  0.36109530  1
  O  O370  1  0.86169365  0.63150338  0.86986537  1
  O  O371  1  0.13252798  0.38298236  0.12494943  1
  O  O372  1  0.11470202  0.38570302  0.63237801  1
  O  O373  1  0.13380875  0.88735265  0.11958011  1
  O  O374  1  0.11904283  0.88940183  0.63088631  1
  O  O375  1  0.63474940  0.36735863  0.13495748  1
  O  O376  1  0.63118757  0.38329211  0.63209421  1
  O  O377  1  0.63780403  0.87167960  0.13270844  1
  O  O378  1  0.63468751  0.87910523  0.63221482  1
  O  O379  1  0.11452768  0.25317873  0.25336917  1
  O  O380  1  0.12461479  0.26109226  0.75445391  1
  O  O381  1  0.10790660  0.74239812  0.23841036  1
  O  O382  1  0.11975976  0.75584611  0.75281192  1
  O  O383  1  0.61872286  0.25742264  0.25764990  1
  O  O384  1  0.63258243  0.26502478  0.76916394  1
  O  O385  1  0.62172932  0.75899042  0.25822327  1
  O  O386  1  0.61810327  0.75235010  0.75478040  1
  O  O387  1  0.38220785  0.24272558  0.25308333  1
  O  O388  1  0.37882021  0.25752754  0.74939471  1
  O  O389  1  0.38185934  0.74387865  0.24306557  1
  O  O390  1  0.38448288  0.74819508  0.74327243  1
  O  O391  1  0.88288153  0.24886846  0.24143140  1
  O  O392  1  0.86957878  0.23659538  0.75467730  1
  O  O393  1  0.88403082  0.74126346  0.24267978  1
  O  O394  1  0.88889007  0.75425296  0.75162203  1
  O  O395  1  0.38778107  0.49816061  0.50680410  1
  O  O396  1  0.37789197  0.49095714  0.99384575  1
  O  O397  1  0.37984771  0.99595872  0.49285583  1
  O  O398  1  0.38027234  0.99443472  0.99182481  1
  O  O399  1  0.88575987  0.49111042  0.50295882  1
  O  O400  1  0.88700076  0.49219615  1.00589542  1
  O  O401  1  0.88089867  0.98928903  0.50429375  1
  O  O402  1  0.88602319  1.00736574  0.99021669  1
  O  O403  1  0.12172505  0.00552588  0.00328815  1
  O  O404  1  0.11595950  0.00578273  0.50960442  1
  O  O405  1  0.12124917  0.50654069  0.00251735  1
  O  O406  1  0.11503208  0.50644415  0.50544367  1
  O  O407  1  0.61667724  0.00385206  0.00124380  1
  O  O408  1  0.61733060  0.00331690  0.50260211  1
  O  O409  1  0.62047009  0.50807038  0.00156011  1
  O  O410  1  0.61926090  0.50698942  0.50804031  1
  O  O411  1  0.36854255  0.37550306  0.11830315  1
  O  O412  1  0.38182750  0.37257836  0.60159930  1
  O  O413  1  0.36926221  0.87084163  0.11684213  1
  O  O414  1  0.38377365  0.85442895  0.62332174  1
  O  O415  1  0.87078855  0.36707953  0.11617426  1
  O  O416  1  0.86406087  0.37861138  0.61689680  1
  O  O417  1  0.86437061  0.86311236  0.12587428  1
  O  O418  1  0.86423318  0.87811881  0.61870092  1
  O  O419  1  0.11314551  0.13541206  0.38368591  1
  O  O420  1  0.11611613  0.13502962  0.88160922  1
  O  O421  1  0.11872858  0.62300330  0.38834844  1
  O  O422  1  0.12750741  0.63077921  0.88386358  1
  O  O423  1  0.63286552  0.12845728  0.38230601  1
  O  O424  1  0.63149014  0.13325460  0.88444295  1
  O  O425  1  0.63340270  0.62988873  0.38630085  1
  O  O426  1  0.63491771  0.63585860  0.87798649  1
