# generated using pymatgen
data_V85Zn86O256
_symmetry_space_group_name_H-M   'P 1'
_cell_length_a   16.93110177
_cell_length_b   16.92585136
_cell_length_c   16.92008219
_cell_angle_alpha   90.01756567
_cell_angle_beta   89.97933963
_cell_angle_gamma   90.05726273
_symmetry_Int_Tables_number   1
_chemical_formula_structural   V85Zn86O256
_chemical_formula_sum   'V85 Zn86 O256'
_cell_volume   4848.84102554
_cell_formula_units_Z   1
loop_
 _symmetry_equiv_pos_site_id
 _symmetry_equiv_pos_as_xyz
  1  'x, y, z'
loop_
 _atom_site_type_symbol
 _atom_site_label
 _atom_site_symmetry_multiplicity
 _atom_site_fract_x
 _atom_site_fract_y
 _atom_site_fract_z
 _atom_site_occupancy
  V  V0  1  0.74951735  0.12816305  0.37611547  1
  V  V1  1  0.74641557  0.49125822  0.75160981  1
  V  V2  1  0.37359813  0.25072377  0.63813230  1
  V  V3  1  0.74941497  0.00222475  0.74954054  1
  V  V4  1  0.24753902  0.87723934  0.61597355  1
  V  V5  1  0.74938656  0.00031599  0.24828295  1
  V  V6  1  0.87896791  0.75072194  0.62902101  1
  V  V7  1  0.62319284  0.00128435  0.62437014  1
  V  V8  1  0.24830115  0.62577872  0.87911863  1
  V  V9  1  -0.00238088  0.49615816  0.50086798  1
  V  V10  1  0.13871983  0.74534206  0.37771956  1
  V  V11  1  0.87549802  -0.00190401  0.37780981  1
  V  V12  1  0.00152491  0.74141774  0.24839731  1
  V  V13  1  0.12117129  0.50343561  0.11906055  1
  V  V14  1  0.25147754  0.87330994  0.12129695  1
  V  V15  1  -0.00507052  0.37739055  0.87752152  1
  V  V16  1  0.00091767  0.12837960  0.62733862  1
  V  V17  1  0.12067287  0.74955594  0.86806816  1
  V  V18  1  0.76210537  0.25667558  0.02161030  1
  V  V19  1  -0.00288137  -0.00759919  -0.00075867  1
  V  V20  1  0.62234811  0.37746508  0.24878175  1
  V  V21  1  0.37525960  0.62603244  0.74955899  1
  V  V22  1  0.50749000  0.62571413  0.61970670  1
  V  V23  1  0.51286362  0.37597004  0.87301378  1
  V  V24  1  0.12579638  0.12186347  0.50420475  1
  V  V25  1  0.24748268  0.49699820  0.74896558  1
  V  V26  1  0.24996086  0.12321098  0.37590663  1
  V  V27  1  0.62670113  0.49564586  0.11989429  1
  V  V28  1  0.74702896  0.73435831  0.50008447  1
  V  V29  1  0.36934092  0.62387007  0.25462400  1
  V  V30  1  0.88098169  0.12728326  0.24817074  1
  V  V31  1  0.50526726  0.49636513  0.49484292  1
  V  V32  1  0.24842859  0.00563960  0.75251743  1
  V  V33  1  0.37479101  0.24884773  0.12280943  1
  V  V34  1  0.13697923  0.62553868  0.49727360  1
  V  V35  1  0.12582876  -0.00127938  0.12302033  1
  V  V36  1  0.87949078  0.75371788  0.12138196  1
  V  V37  1  0.86656888  0.50185646  0.38161222  1
  V  V38  1  0.37477361  0.49257930  0.37614831  1
  V  V39  1  0.62367665  0.12675131  -0.00292165  1
  V  V40  1  0.87930988  0.25961083  0.62142890  1
  V  V41  1  0.86856552  0.63109207  0.25594098  1
  V  V42  1  0.62407338  0.75294044  0.87394912  1
  V  V43  1  0.62397043  0.49193932  0.62543598  1
  V  V44  1  0.74884183  0.87533401  0.62183982  1
  V  V45  1  0.49773941  0.25529268  0.25367952  1
  V  V46  1  0.62238385  0.25715819  0.37730847  1
  V  V47  1  0.87701697  0.62380915  0.75257635  1
  V  V48  1  0.00317507  0.62614652  0.62846321  1
  V  V49  1  0.24714083  0.49819703  0.25371785  1
  V  V50  1  0.12005498  0.25066035  0.36876245  1
  V  V51  1  0.37554068  0.12437855  0.25071682  1
  V  V52  1  0.38044957  0.37506994  -0.00185307  1
  V  V53  1  -0.00321685  0.87076163  0.86575638  1
  V  V54  1  0.37029855  0.75401357  0.61000210  1
  V  V55  1  0.62030433  0.62369167  -0.00113460  1
  V  V56  1  0.49537294  0.12598731  0.63117632  1
  V  V57  1  0.62864397  0.73763146  0.37937758  1
  V  V58  1  0.00062259  0.12794763  0.12442487  1
  V  V59  1  0.37578860  0.01315912  0.87395646  1
  V  V60  1  0.00388290  -0.00313690  0.50655419  1
  V  V61  1  0.50024604  0.11697345  0.12194910  1
  V  V62  1  0.87295888  -0.00161766  0.88001510  1
  V  V63  1  0.74931553  0.62595624  0.87406051  1
  V  V64  1  0.75274883  0.75924929  -0.00019160  1
  V  V65  1  0.49713220  0.88002596  0.88496782  1
  V  V66  1  0.74704185  0.13770795  0.87571823  1
  V  V67  1  0.49738243  0.75376460  0.74946276  1
  V  V68  1  0.74317883  0.51019241  0.25366989  1
  V  V69  1  0.49608455  0.00122854  0.50198874  1
  V  V70  1  0.38090746  0.49964592  0.87877119  1
  V  V71  1  0.37323200  -0.00537734  0.37822362  1
  V  V72  1  0.25162504  0.24079614  -0.00933001  1
  V  V73  1  0.49651894  0.62007591  0.12164964  1
  V  V74  1  0.75557610  0.26173219  0.49518916  1
  V  V75  1  0.12078561  0.24486945  0.86618484  1
  V  V76  1  0.49926650  0.74885817  0.25020325  1
  V  V77  1  0.12442550  0.87287785  0.24987106  1
  V  V78  1  0.00187566  0.87103519  0.37667983  1
  V  V79  1  0.51926686  0.25346864  0.75353768  1
  V  V80  1  0.62562624  0.87482760  0.25088534  1
  V  V81  1  0.87828359  0.13039595  0.74982804  1
  V  V82  1  0.25310362  0.25281849  0.50033203  1
  V  V83  1  -0.00647904  0.37336366  0.37192497  1
  V  V84  1  0.49878277  0.87266683  0.38187738  1
  Zn  Zn85  1  0.12155254  0.36997435  0.74601687  1
  Zn  Zn86  1  0.12635239  0.49713587  0.62408259  1
  Zn  Zn87  1  0.38073634  0.37136752  0.49858055  1
  Zn  Zn88  1  0.75017516  0.37361065  0.62713642  1
  Zn  Zn89  1  0.24986548  -0.00011615  0.24917162  1
  Zn  Zn90  1  0.62137415  -0.00314755  0.12026752  1
  Zn  Zn91  1  0.87013832  0.49335985  0.88570496  1
  Zn  Zn92  1  0.12794544  0.12172582  -0.00670813  1
  Zn  Zn93  1  0.62326101  0.87744090  0.74989810  1
  Zn  Zn94  1  0.87542226  0.87143279  0.50097185  1
  Zn  Zn95  1  0.24988017  0.75081548  -0.00170443  1
  Zn  Zn96  1  0.24929876  0.37623423  0.62474410  1
  Zn  Zn97  1  0.24978959  0.37367688  0.12359574  1
  Zn  Zn98  1  0.37341781  0.74868206  0.12163467  1
  Zn  Zn99  1  -0.02033357  0.50183833  0.00886502  1
  Zn  Zn100  1  -0.05111512  0.28991959  0.18725585  1
  Zn  Zn101  1  0.62551110  0.12832091  0.49979322  1
  Zn  Zn102  1  0.37654606  0.87748840  0.00049511  1
  Zn  Zn103  1  0.12467213  0.37194196  0.24680218  1
  Zn  Zn104  1  0.12522061  0.87541881  0.74418347  1
  Zn  Zn105  1  0.11493919  0.62814855  0.00294197  1
  Zn  Zn106  1  0.75314478  0.87829957  0.12081320  1
  Zn  Zn107  1  0.18987540  0.18572514  0.18423676  1
  Zn  Zn108  1  0.18879306  0.18474776  0.68659257  1
  Zn  Zn109  1  0.18850735  0.68528823  0.18745746  1
  Zn  Zn110  1  0.18932209  0.68855398  0.68856944  1
  Zn  Zn111  1  0.68494079  0.18593572  0.18853912  1
  Zn  Zn112  1  0.69086967  0.18633145  0.68204975  1
  Zn  Zn113  1  0.68757165  0.68867796  0.18518207  1
  Zn  Zn114  1  0.68748073  0.68601185  0.68794637  1
  Zn  Zn115  1  0.31040680  0.31376455  0.31318602  1
  Zn  Zn116  1  0.31168624  0.31283290  0.81487512  1
  Zn  Zn117  1  0.31346281  0.81412493  0.30843360  1
  Zn  Zn118  1  0.31111234  0.81568305  0.80918853  1
  Zn  Zn119  1  0.81992675  0.32994653  0.28203406  1
  Zn  Zn120  1  0.81591683  0.31075722  0.81122503  1
  Zn  Zn121  1  0.81044221  0.81277709  0.31564264  1
  Zn  Zn122  1  0.81297799  0.81390270  0.80986190  1
  Zn  Zn123  1  0.18606950  0.43765566  0.43548671  1
  Zn  Zn124  1  0.18994607  0.43030652  0.93565349  1
  Zn  Zn125  1  0.18705191  0.93462215  0.43967321  1
  Zn  Zn126  1  0.18711749  0.93772916  0.93295919  1
  Zn  Zn127  1  0.68377303  0.43917571  0.43728965  1
  Zn  Zn128  1  0.69702461  0.43682792  0.94427996  1
  Zn  Zn129  1  0.68548132  0.93482696  0.43830727  1
  Zn  Zn130  1  0.68368067  0.94294593  0.93596188  1
  Zn  Zn131  1  0.31484366  0.05938320  0.05780334  1
  Zn  Zn132  1  0.31346691  0.06159023  0.56680552  1
  Zn  Zn133  1  0.30982380  0.55830953  0.06311905  1
  Zn  Zn134  1  0.31766499  0.56272783  0.56356804  1
  Zn  Zn135  1  0.81246457  0.06787867  0.06221704  1
  Zn  Zn136  1  0.81343350  0.06633216  0.56018397  1
  Zn  Zn137  1  0.81028304  0.56976901  0.06675855  1
  Zn  Zn138  1  0.81369990  0.55961917  0.56666910  1
  Zn  Zn139  1  0.43807159  0.43794369  0.18527796  1
  Zn  Zn140  1  0.43605162  0.43475169  0.68815791  1
  Zn  Zn141  1  0.43590277  0.93660969  0.19103146  1
  Zn  Zn142  1  0.43036134  0.93577736  0.69119778  1
  Zn  Zn143  1  0.93542499  0.45118665  0.19113813  1
  Zn  Zn144  1  0.94184230  0.43871609  0.69574454  1
  Zn  Zn145  1  0.93820952  0.93447491  0.18804564  1
  Zn  Zn146  1  0.93580041  0.94063220  0.68877455  1
  Zn  Zn147  1  0.06299716  0.06048676  0.31357549  1
  Zn  Zn148  1  0.06436169  0.05976233  0.80973282  1
  Zn  Zn149  1  0.06213699  0.56157688  0.31396626  1
  Zn  Zn150  1  0.06105158  0.55928760  0.81630054  1
  Zn  Zn151  1  0.56251216  0.06560258  0.31301856  1
  Zn  Zn152  1  0.56131804  0.06500019  0.81335853  1
  Zn  Zn153  1  0.55519382  0.56224880  0.31242806  1
  Zn  Zn154  1  0.56253528  0.56252210  0.81005897  1
  Zn  Zn155  1  0.43748768  0.18539347  0.43971329  1
  Zn  Zn156  1  0.44378084  0.19044912  0.93500047  1
  Zn  Zn157  1  0.43834533  0.68019428  0.43544242  1
  Zn  Zn158  1  0.43466111  0.69182231  0.93892038  1
  Zn  Zn159  1  0.93727973  0.18700539  0.43803488  1
  Zn  Zn160  1  0.94004258  0.18792844  0.94036755  1
  Zn  Zn161  1  0.93945131  0.68482646  0.44060806  1
  Zn  Zn162  1  0.93983209  0.68401425  0.94092557  1
  Zn  Zn163  1  0.07125664  0.31887247  0.05257772  1
  Zn  Zn164  1  0.06515376  0.31356750  0.55988018  1
  Zn  Zn165  1  0.06213658  0.80978250  0.05652669  1
  Zn  Zn166  1  0.06517744  0.80821982  0.56266906  1
  Zn  Zn167  1  0.56534573  0.30741404  0.05997263  1
  Zn  Zn168  1  0.56214910  0.31419759  0.56312812  1
  Zn  Zn169  1  0.56325256  0.80958391  0.06456854  1
  Zn  Zn170  1  0.56353801  0.81189464  0.56138826  1
  O  O171  1  0.12046888  0.11004567  0.12617005  1
  O  O172  1  0.11680081  0.13023483  0.61231188  1
  O  O173  1  0.13297969  0.60852650  0.12284339  1
  O  O174  1  0.11873721  0.62621590  0.61595096  1
  O  O175  1  0.61541900  0.12124572  0.12199554  1
  O  O176  1  0.61444868  0.11919615  0.62259826  1
  O  O177  1  0.61716292  0.62124717  0.11759157  1
  O  O178  1  0.61147014  0.62103334  0.62832400  1
  O  O179  1  0.37393325  0.38722747  0.37606680  1
  O  O180  1  0.38258294  0.38210537  0.87970649  1
  O  O181  1  0.38285420  0.88632969  0.36942601  1
  O  O182  1  0.38495610  0.87832375  0.87511151  1
  O  O183  1  0.88188664  0.38820824  0.36815702  1
  O  O184  1  0.89021172  0.37180005  0.87160573  1
  O  O185  1  0.88009627  0.88480383  0.37737089  1
  O  O186  1  0.88112734  0.88722011  0.86760897  1
  O  O187  1  0.25805559  0.00328523  0.37572778  1
  O  O188  1  0.26078770  -0.00346536  0.86333500  1
  O  O189  1  0.25614817  0.49759899  0.36302084  1
  O  O190  1  0.25955436  0.50472027  0.86907213  1
  O  O191  1  0.75610478  0.00335143  0.36877261  1
  O  O192  1  0.75759526  0.00715093  0.86923345  1
  O  O193  1  0.75735726  0.49968971  0.37134677  1
  O  O194  1  0.74911083  0.50853725  0.86781349  1
  O  O195  1  0.24540330  0.49592505  0.13734137  1
  O  O196  1  0.25163483  0.50002337  0.63460010  1
  O  O197  1  0.24164353  0.99469628  0.12566338  1
  O  O198  1  0.26184970  0.98413832  0.63409622  1
  O  O199  1  0.73328023  0.51162611  0.13854430  1
  O  O200  1  0.74209871  0.49790092  0.63189281  1
  O  O201  1  0.75097808  0.99870790  0.13806680  1
  O  O202  1  0.74612188  0.99512851  0.62736516  1
  O  O203  1  0.00695126  0.37445561  0.26307051  1
  O  O204  1  0.00710535  0.37856244  0.76663393  1
  O  O205  1  0.00644082  0.86577236  0.25692314  1
  O  O206  1  0.00433133  0.88404512  0.76106585  1
  O  O207  1  0.50526234  0.36369807  0.24745126  1
  O  O208  1  0.49806489  0.36232055  0.75674839  1
  O  O209  1  0.50596895  0.87077141  0.26049924  1
  O  O210  1  0.50047552  0.86358165  0.75281246  1
  O  O211  1  0.49516400  0.13384144  0.24397166  1
  O  O212  1  0.50452718  0.14042714  0.74362994  1
  O  O213  1  0.49014038  0.62922045  0.24151776  1
  O  O214  1  0.49506290  0.63639480  0.74395815  1
  O  O215  1  0.99307668  0.11460372  0.23966247  1
  O  O216  1  0.99337707  0.11709369  0.73600903  1
  O  O217  1  0.99154681  0.63649153  0.25462579  1
  O  O218  1  0.99278693  0.61709738  0.73761586  1
  O  O219  1  0.37030130  0.25311939  0.00168094  1
  O  O220  1  0.36808736  0.24961003  0.50669505  1
  O  O221  1  0.36935849  0.75742977  0.00355124  1
  O  O222  1  0.37885071  0.74531886  0.51156979  1
  O  O223  1  0.86109109  0.24093800  0.00220347  1
  O  O224  1  0.86612058  0.24504308  0.50755593  1
  O  O225  1  0.86550978  0.74489371  0.00982761  1
  O  O226  1  0.86733077  0.74973318  0.51083817  1
  O  O227  1  0.13386540  0.24183932  0.49086886  1
  O  O228  1  0.13653276  0.24722675  0.98933487  1
  O  O229  1  0.12128708  0.73491972  0.49155827  1
  O  O230  1  0.12926290  0.74714934  0.98679976  1
  O  O231  1  0.63025979  0.25081748  0.49235862  1
  O  O232  1  0.63887664  0.23434934  1.00869744  1
  O  O233  1  0.63395153  0.75375187  0.49179363  1
  O  O234  1  0.63020273  0.74442277  0.99313474  1
  O  O235  1  0.49409233  0.24070243  0.13419329  1
  O  O236  1  0.49615051  0.24567781  0.63435533  1
  O  O237  1  0.49986052  0.73883574  0.13270032  1
  O  O238  1  0.49312050  0.74595418  0.62900313  1
  O  O239  1  1.01724181  0.23417742  0.11977876  1
  O  O240  1  0.99245134  0.23859746  0.61381264  1
  O  O241  1  0.99328989  0.75546449  0.13486936  1
  O  O242  1  0.99003865  0.74070771  0.62013136  1
  O  O243  1  0.00805370  0.25977027  0.38445343  1
  O  O244  1  0.01312086  0.25857702  0.88188643  1
  O  O245  1  0.00551543  0.75498374  0.36945711  1
  O  O246  1  0.00417616  0.76154640  0.87845055  1
  O  O247  1  0.50749641  0.24267453  0.36491658  1
  O  O248  1  0.50186686  0.25765870  0.86036766  1
  O  O249  1  0.50449756  0.75705380  0.37214443  1
  O  O250  1  0.50402393  0.75734088  0.86669006  1
  O  O251  1  0.24364945  0.13035077  0.49782409  1
  O  O252  1  0.24892823  0.13668648  1.00319486  1
  O  O253  1  0.23542989  0.62057111  0.50422275  1
  O  O254  1  0.25054352  0.62357638  0.98620934  1
  O  O255  1  0.74683327  0.13337834  0.49190304  1
  O  O256  1  0.74529656  0.13254847  0.99285059  1
  O  O257  1  0.75035832  0.63546472  0.50717499  1
  O  O258  1  0.73779652  0.63807086  0.99435644  1
  O  O259  1  0.26449642  0.36294478  -0.00118615  1
  O  O260  1  0.25041136  0.36117530  0.49832727  1
  O  O261  1  0.24677809  0.87672816  0.01281832  1
  O  O262  1  0.25268615  0.88033277  0.51567798  1
  O  O263  1  0.74684861  0.35482636  0.00199130  1
  O  O264  1  0.74769809  0.36471265  0.50181330  1
  O  O265  1  0.74196548  0.86337595  -0.00084663  1
  O  O266  1  0.75205363  0.87291484  0.51207360  1
  O  O267  1  0.13279528  0.50150563  0.24403197  1
  O  O268  1  0.13925347  0.50366217  0.74916856  1
  O  O269  1  0.12536768  0.99087486  0.24287894  1
  O  O270  1  0.14190064  0.99511254  0.75568802  1
  O  O271  1  0.62476693  0.49703354  0.24645382  1
  O  O272  1  0.63529010  0.50882754  0.73923358  1
  O  O273  1  0.63309536  0.99330416  0.25190586  1
  O  O274  1  0.63190902  1.00091670  0.74232169  1
  O  O275  1  0.37441092  0.00707795  0.26096720  1
  O  O276  1  0.36509333  -0.00441299  0.76299090  1
  O  O277  1  0.36995798  0.50397193  0.25527795  1
  O  O278  1  0.36752364  0.50622854  0.75544616  1
  O  O279  1  0.86895550  0.00323863  0.25846830  1
  O  O280  1  0.86848990  0.01167827  0.75552280  1
  O  O281  1  0.86218085  0.51438491  0.25860188  1
  O  O282  1  0.86466728  0.50951001  0.75167027  1
  O  O283  1  0.11702172  0.36605053  0.37434437  1
  O  O284  1  0.11926276  0.36386114  0.87213302  1
  O  O285  1  0.12104643  0.86661092  0.37062010  1
  O  O286  1  0.11549779  0.86761773  0.87274997  1
  O  O287  1  0.62223135  0.36411060  0.36838712  1
  O  O288  1  0.61098018  0.38828263  0.88192222  1
  O  O289  1  0.61707260  0.87009632  0.36641492  1
  O  O290  1  0.61625921  0.87250674  0.87057960  1
  O  O291  1  0.38093452  0.12876023  0.12913232  1
  O  O292  1  0.38883162  0.13333187  0.62037851  1
  O  O293  1  0.38226257  0.62302575  0.12999382  1
  O  O294  1  0.38319398  0.63568021  0.63014066  1
  O  O295  1  0.88796547  0.11782446  0.13505676  1
  O  O296  1  0.88227990  0.13141785  0.63027889  1
  O  O297  1  0.86638300  0.64069199  0.14411535  1
  O  O298  1  0.88132442  0.63068268  0.63379612  1
  O  O299  1  0.25872584  0.25108891  0.11722174  1
  O  O300  1  0.25842064  0.24817945  0.61769384  1
  O  O301  1  0.24978855  0.75932508  0.12379616  1
  O  O302  1  0.26392891  0.75734185  0.62778073  1
  O  O303  1  0.75476244  0.24480735  0.12207347  1
  O  O304  1  0.75894921  0.25147135  0.61469846  1
  O  O305  1  0.75474250  0.75394625  0.11602266  1
  O  O306  1  0.75338730  0.75777321  0.61937124  1
  O  O307  1  0.24604960  0.24195894  0.38288850  1
  O  O308  1  0.23876579  0.25178865  0.88029508  1
  O  O309  1  0.23793279  0.75381507  0.36995588  1
  O  O310  1  0.24413781  0.74155050  0.87367887  1
  O  O311  1  0.74289202  0.24789733  0.37963111  1
  O  O312  1  0.75223502  0.23887758  0.87436522  1
  O  O313  1  0.74107042  0.75605859  0.38789749  1
  O  O314  1  0.74452505  0.74673160  0.87894877  1
  O  O315  1  0.00214737  0.11162905  0.00798580  1
  O  O316  1  0.00664737  0.11689703  0.50542322  1
  O  O317  1  0.00321569  0.61395679  -0.00316593  1
  O  O318  1  0.00527524  0.61551940  0.51038474  1
  O  O319  1  0.51057748  0.13244916  0.00916087  1
  O  O320  1  0.50415057  0.11733219  0.50821320  1
  O  O321  1  0.51130332  0.63115032  0.00597833  1
  O  O322  1  0.49499329  0.61216164  0.51024654  1
  O  O323  1  0.49806704  0.39022748  0.50599643  1
  O  O324  1  0.48862777  0.36292640  0.98956475  1
  O  O325  1  0.50353763  0.88187117  0.48827005  1
  O  O326  1  0.50300083  0.87298568  0.98825859  1
  O  O327  1  1.00512320  0.38962055  0.49068137  1
  O  O328  1  1.00609000  0.38365241  0.98497610  1
  O  O329  1  0.99999482  0.88111785  0.49671665  1
  O  O330  1  1.00134825  0.88717927  0.98989734  1
  O  O331  1  0.49202989  0.50159104  0.38477109  1
  O  O332  1  0.48728349  0.49418400  0.86580987  1
  O  O333  1  0.49507800  0.99502912  0.38235664  1
  O  O334  1  0.48802358  0.99103421  0.86484329  1
  O  O335  1  0.99118259  0.49492092  0.38083902  1
  O  O336  1  0.99447370  0.48905982  0.87673254  1
  O  O337  1  0.99327424  0.99367180  0.38408319  1
  O  O338  1  0.99209825  0.99610350  0.88065560  1
  O  O339  1  0.00631457  0.00105617  0.11776745  1
  O  O340  1  -0.00657350  0.00789178  0.61243762  1
  O  O341  1  0.01619959  0.49769684  0.12714871  1
  O  O342  1  0.00011477  0.50623146  0.61726365  1
  O  O343  1  0.49893895  0.01304203  0.13124349  1
  O  O344  1  0.49973089  0.00560949  0.62142444  1
  O  O345  1  0.50932533  0.51321227  0.12914708  1
  O  O346  1  0.50565970  0.50746938  0.62322854  1
  O  O347  1  0.24683239  0.38310529  0.24769260  1
  O  O348  1  0.24896728  0.38534503  0.74963618  1
  O  O349  1  0.24257158  0.87704809  0.23842676  1
  O  O350  1  0.24922067  0.88200804  0.73879440  1
  O  O351  1  0.72788764  0.39337664  0.25592551  1
  O  O352  1  0.75355862  0.38757945  0.75048556  1
  O  O353  1  0.74120870  0.88297004  0.25192895  1
  O  O354  1  0.74873957  0.88209335  0.73763035  1
  O  O355  1  0.25770580  0.12233215  0.25761850  1
  O  O356  1  0.25238636  0.10450101  0.73605892  1
  O  O357  1  0.26303671  0.61770337  0.24597568  1
  O  O358  1  0.25662239  0.61951829  0.75958303  1
  O  O359  1  0.75653807  0.11657795  0.25610171  1
  O  O360  1  0.75643039  0.12095117  0.75523330  1
  O  O361  1  0.75099106  0.61929844  0.25529761  1
  O  O362  1  0.75701815  0.61905678  0.75463478  1
  O  O363  1  0.37087178  0.11439040  0.37236366  1
  O  O364  1  0.38274754  0.11210993  0.87549897  1
  O  O365  1  0.37943571  0.61190015  0.36402654  1
  O  O366  1  0.37112787  0.61821738  0.87034137  1
  O  O367  1  0.87226245  0.11157573  0.37211826  1
  O  O368  1  0.87152811  0.11959722  0.86662079  1
  O  O369  1  0.87840375  0.61837926  0.36593539  1
  O  O370  1  0.86938874  0.63036216  0.86152311  1
  O  O371  1  0.13000465  0.38550323  0.12780844  1
  O  O372  1  0.12944640  0.37783342  0.62760620  1
  O  O373  1  0.12828093  0.88286355  0.12839674  1
  O  O374  1  0.14241831  0.86509690  0.62531055  1
  O  O375  1  0.61398599  0.38647901  0.13227009  1
  O  O376  1  0.62596420  0.38815869  0.62654596  1
  O  O377  1  0.62439092  0.87713332  0.13883142  1
  O  O378  1  0.63186216  0.88186117  0.62655627  1
  O  O379  1  0.13125963  0.24586519  0.26526813  1
  O  O380  1  0.13076598  0.24857179  0.76237593  1
  O  O381  1  0.11784589  0.75080549  0.25603781  1
  O  O382  1  0.12714110  0.75146680  0.76281089  1
  O  O383  1  0.61850940  0.25863900  0.25467168  1
  O  O384  1  0.61754710  0.25305982  0.74403723  1
  O  O385  1  0.62078385  0.75769524  0.25643243  1
  O  O386  1  0.61672151  0.75103879  0.75616422  1
  O  O387  1  0.38111875  0.24542312  0.24654609  1
  O  O388  1  0.37839410  0.25132049  0.74030776  1
  O  O389  1  0.38146598  0.74111811  0.24880822  1
  O  O390  1  0.38274918  0.74451066  0.74394332  1
  O  O391  1  0.87912883  0.22826848  0.26689471  1
  O  O392  1  0.87165881  0.23657479  0.73964260  1
  O  O393  1  0.88116637  0.74749850  0.24988373  1
  O  O394  1  0.86800824  0.74202604  0.73622896  1
  O  O395  1  0.38062383  0.49835090  0.49163323  1
  O  O396  1  0.37242987  0.48978766  0.99039772  1
  O  O397  1  0.38764801  1.00422104  0.49351212  1
  O  O398  1  0.37030925  0.99523451  0.98071726  1
  O  O399  1  0.88197211  0.50592246  0.49096729  1
  O  O400  1  0.86429126  0.50182842  0.99984895  1
  O  O401  1  0.88203945  0.99809315  0.49257836  1
  O  O402  1  0.87947750  1.00463442  0.98825163  1
  O  O403  1  0.11792369  0.00129043  0.00581469  1
  O  O404  1  0.11540477  0.00855398  0.49451198  1
  O  O405  1  0.13630217  0.49826801  0.01525593  1
  O  O406  1  0.11790715  0.51086726  0.49908056  1
  O  O407  1  0.63285408  0.01782091  0.00569189  1
  O  O408  1  0.61315927  0.00115898  0.50473032  1
  O  O409  1  0.63173597  0.51083724  0.00895044  1
  O  O410  1  0.61757283  0.50033236  0.50939309  1
  O  O411  1  0.37730911  0.36761151  0.11562261  1
  O  O412  1  0.37145674  0.36448115  0.62103912  1
  O  O413  1  0.36561820  0.87546818  0.12492225  1
  O  O414  1  0.37011716  0.85993252  0.62533674  1
  O  O415  1  0.86776021  0.36403359  0.17932034  1
  O  O416  1  0.87755358  0.36214922  0.63147109  1
  O  O417  1  0.87048903  0.85991846  0.13253177  1
  O  O418  1  0.86849832  0.86751548  0.62527809  1
  O  O419  1  0.12795878  0.12903975  0.38473015  1
  O  O420  1  0.11606426  0.13936669  0.87596992  1
  O  O421  1  0.12085240  0.63070029  0.38825292  1
  O  O422  1  0.13294752  0.63056194  0.87469518  1
  O  O423  1  0.63182351  0.13770163  0.37321243  1
  O  O424  1  0.63432457  0.12108993  0.88398278  1
  O  O425  1  0.61808760  0.63918089  0.37057136  1
  O  O426  1  0.62724732  0.63098512  0.88148386  1
