# generated using pymatgen
data_V85Zn86O256
_symmetry_space_group_name_H-M   'P 1'
_cell_length_a   16.98877501
_cell_length_b   16.98506159
_cell_length_c   16.97907621
_cell_angle_alpha   89.94047586
_cell_angle_beta   90.06911466
_cell_angle_gamma   90.01996264
_symmetry_Int_Tables_number   1
_chemical_formula_structural   V85Zn86O256
_chemical_formula_sum   'V85 Zn86 O256'
_cell_volume   4899.39745077
_cell_formula_units_Z   1
loop_
 _symmetry_equiv_pos_site_id
 _symmetry_equiv_pos_as_xyz
  1  'x, y, z'
loop_
 _atom_site_type_symbol
 _atom_site_label
 _atom_site_symmetry_multiplicity
 _atom_site_fract_x
 _atom_site_fract_y
 _atom_site_fract_z
 _atom_site_occupancy
  V  V0  1  0.74832909  0.00019175  0.24994976  1
  V  V1  1  0.74875109  0.25053885  0.50039133  1
  V  V2  1  0.49602902  0.24834478  0.24865663  1
  V  V3  1  0.00358804  0.12221222  0.62490735  1
  V  V4  1  0.61932046  -0.00015473  0.12328707  1
  V  V5  1  0.12968895  0.74817922  0.37462570  1
  V  V6  1  0.87628647  0.62314660  0.25248740  1
  V  V7  1  0.45265420  -0.05550346  -0.05355687  1
  V  V8  1  0.37404576  0.62475029  0.24558619  1
  V  V9  1  0.62475963  0.12538434  0.49905452  1
  V  V10  1  0.35808319  0.00019674  0.37319631  1
  V  V11  1  0.13823638  0.49189336  0.11111618  1
  V  V12  1  0.37704779  0.37358957  0.50123033  1
  V  V13  1  0.62313487  0.74576584  0.37229755  1
  V  V14  1  0.75078612  0.74915326  0.49716975  1
  V  V15  1  0.50171221  0.49299036  0.00331506  1
  V  V16  1  0.75121792  0.87639085  0.12588429  1
  V  V17  1  0.19144126  0.93460102  0.08117629  1
  V  V18  1  0.24935463  0.75506079  0.00026432  1
  V  V19  1  0.37089047  0.51005672  0.87491587  1
  V  V20  1  0.37001369  0.76115786  0.12018095  1
  V  V21  1  0.13830476  0.88913033  0.25643249  1
  V  V22  1  0.74176867  0.38081449  0.63057339  1
  V  V23  1  0.62031478  0.87260228  0.75880095  1
  V  V24  1  0.87779378  0.25064179  0.12480225  1
  V  V25  1  0.74973606  0.75049410  0.00018298  1
  V  V26  1  0.49339731  0.12294305  0.12092899  1
  V  V27  1  0.50860971  0.72711705  0.73318808  1
  V  V28  1  -0.00463603  0.87594050  0.85509924  1
  V  V29  1  0.36555336  0.25939762  0.11381233  1
  V  V30  1  0.74929270  0.12609744  0.37344914  1
  V  V31  1  0.74609885  0.38132892  0.12540640  1
  V  V32  1  0.00976048  0.11319580  0.11168643  1
  V  V33  1  -0.00030046  0.00120314  0.50052034  1
  V  V34  1  0.12825058  0.24304506  0.37216512  1
  V  V35  1  0.48871232  0.37346470  0.87557537  1
  V  V36  1  0.50262518  -0.00049124  0.49334099  1
  V  V37  1  0.62114062  0.12494979  0.00101292  1
  V  V38  1  0.74964872  0.12511166  0.87530414  1
  V  V39  1  0.88685455  0.88015240  0.00352171  1
  V  V40  1  0.75108878  -0.00041714  0.75401405  1
  V  V41  1  0.25072550  0.12063988  0.87362305  1
  V  V42  1  0.87645966  0.12447900  0.24847316  1
  V  V43  1  0.36651744  0.62253371  0.73963526  1
  V  V44  1  0.12890326  0.61572722  0.50840808  1
  V  V45  1  0.13067284  0.37564675  0.24863991  1
  V  V46  1  0.49582725  0.25236061  0.74660426  1
  V  V47  1  0.87423647  0.37491568  0.49863600  1
  V  V48  1  0.50207883  0.50333685  0.50848908  1
  V  V49  1  0.25084045  0.49759441  0.24604347  1
  V  V50  1  0.87345279  0.24944247  0.62583495  1
  V  V51  1  0.62247981  0.25677352  0.86980713  1
  V  V52  1  0.75057570  0.87307733  0.62292588  1
  V  V53  1  0.12421133  0.74876572  0.86373778  1
  V  V54  1  0.37679732  0.49886587  0.37459357  1
  V  V55  1  -0.00046873  0.37378045  0.37389769  1
  V  V56  1  -0.00540660  0.50746977  -0.01028780  1
  V  V57  1  0.75024748  0.49659768  0.77210511  1
  V  V58  1  0.62552444  0.62381015  0.51453008  1
  V  V59  1  -0.00234486  0.37557846  0.87081864  1
  V  V60  1  0.13231245  0.12378365  0.50251044  1
  V  V61  1  0.25181250  0.62323747  0.37423564  1
  V  V62  1  0.25724856  0.74751596  0.51213085  1
  V  V63  1  0.87664067  0.50422705  0.37502387  1
  V  V64  1  0.49742563  0.75112528  0.24784817  1
  V  V65  1  0.87650022  0.37993828  -0.00324206  1
  V  V66  1  0.62826860  0.00206908  0.62399439  1
  V  V67  1  0.13134846  0.63043612  -0.00166367  1
  V  V68  1  0.24327353  0.38522251  0.63011077  1
  V  V69  1  0.00495392  0.49598751  0.51049967  1
  V  V70  1  0.62239366  0.38317714  0.24633814  1
  V  V71  1  0.13608934  0.88337105  0.73680307  1
  V  V72  1  0.62408052  0.25136464  0.37191872  1
  V  V73  1  0.00113877  0.87639142  0.37530287  1
  V  V74  1  0.50531317  0.62067879  0.12249060  1
  V  V75  1  0.37777592  0.86755040  0.50720493  1
  V  V76  1  0.00599802  0.25136192  0.74769456  1
  V  V77  1  0.61630705  0.74652396  0.88099286  1
  V  V78  1  0.00043418  0.24917002  0.24815645  1
  V  V79  1  0.35973204  0.12213772  0.25236775  1
  V  V80  1  0.00225692  0.74802342  0.25515289  1
  V  V81  1  0.74898275  0.25062331  0.00001537  1
  V  V82  1  0.00322458  0.62169724  0.12588620  1
  V  V83  1  0.87557667  0.74921861  0.12719923  1
  V  V84  1  0.25070483  0.25147510  0.49688629  1
  Zn  Zn85  1  0.00008199  0.62794293  0.63311105  1
  Zn  Zn86  1  0.11986306  0.23567195  0.88471470  1
  Zn  Zn87  1  0.75845635  0.62116215  0.88596600  1
  Zn  Zn88  1  0.88633507  0.74924828  0.64040017  1
  Zn  Zn89  1  0.12556689  0.38956123  0.74514785  1
  Zn  Zn90  1  0.37041191  0.10652965  0.74650779  1
  Zn  Zn91  1  0.28366784  0.93818159  0.66073859  1
  Zn  Zn92  1  0.49856375  0.12575993  0.62570287  1
  Zn  Zn93  1  0.36920886  0.24772851  0.62837901  1
  Zn  Zn94  1  0.87622036  0.87570350  0.50138128  1
  Zn  Zn95  1  0.88449465  0.62261646  0.76110760  1
  Zn  Zn96  1  0.62793434  0.61893729  0.00561184  1
  Zn  Zn97  1  0.87648217  0.12530726  0.75300815  1
  Zn  Zn98  1  0.74678542  0.50196684  0.24897167  1
  Zn  Zn99  1  0.62415341  0.87418886  0.25123521  1
  Zn  Zn100  1  0.61833809  0.50191787  0.64164323  1
  Zn  Zn101  1  0.49989300  0.87458585  0.37293450  1
  Zn  Zn102  1  0.88393425  0.00869833  0.88456820  1
  Zn  Zn103  1  0.87357778  -0.00170695  0.37505329  1
  Zn  Zn104  1  0.22952532  0.26141540  -0.00092692  1
  Zn  Zn105  1  0.74922440  0.62198079  0.37476547  1
  Zn  Zn106  1  0.50084352  0.37580240  0.37446623  1
  Zn  Zn107  1  0.18689402  0.18503711  0.18001848  1
  Zn  Zn108  1  0.19007789  0.18742916  0.68872415  1
  Zn  Zn109  1  0.18891278  0.68747729  0.18499473  1
  Zn  Zn110  1  0.18808183  0.68690280  0.68866212  1
  Zn  Zn111  1  0.68613307  0.19074609  0.18589266  1
  Zn  Zn112  1  0.68460136  0.18900407  0.68964315  1
  Zn  Zn113  1  0.68828475  0.68552845  0.18842042  1
  Zn  Zn114  1  0.71947807  0.69690663  0.70439550  1
  Zn  Zn115  1  0.31248860  0.31124663  0.31089967  1
  Zn  Zn116  1  0.30937806  0.30717750  0.81558388  1
  Zn  Zn117  1  0.31576925  0.81277351  0.31877020  1
  Zn  Zn118  1  0.32113535  0.93901984  0.82501164  1
  Zn  Zn119  1  0.81052149  0.31450097  0.31146975  1
  Zn  Zn120  1  0.81456578  0.31194812  0.81108131  1
  Zn  Zn121  1  0.81332499  0.81172451  0.31478304  1
  Zn  Zn122  1  0.81180709  0.81212242  0.81763166  1
  Zn  Zn123  1  0.18984646  0.43450372  0.43551254  1
  Zn  Zn124  1  0.17710699  0.44065064  0.91264153  1
  Zn  Zn125  1  0.20370956  0.95139025  0.48453656  1
  Zn  Zn126  1  0.17363041  0.94260100  0.92218380  1
  Zn  Zn127  1  0.68756240  0.43802453  0.43761094  1
  Zn  Zn128  1  0.67849218  0.43298866  0.94424824  1
  Zn  Zn129  1  0.68471687  0.93447819  0.43383228  1
  Zn  Zn130  1  0.68287969  0.93630042  0.94068906  1
  Zn  Zn131  1  0.31475223  0.06909986  0.05052631  1
  Zn  Zn132  1  0.31941194  0.07107241  0.55765244  1
  Zn  Zn133  1  0.31716892  0.56579778  0.05541489  1
  Zn  Zn134  1  0.31575342  0.56157947  0.56422096  1
  Zn  Zn135  1  0.81313974  0.06267906  0.06287026  1
  Zn  Zn136  1  0.81496390  0.06278135  0.56213877  1
  Zn  Zn137  1  0.81405675  0.56266016  0.06483953  1
  Zn  Zn138  1  0.81530090  0.56592290  0.56598826  1
  Zn  Zn139  1  0.43691572  0.43571723  0.18511648  1
  Zn  Zn140  1  0.43522666  0.43478306  0.69158880  1
  Zn  Zn141  1  0.43263947  0.93977453  0.18726052  1
  Zn  Zn142  1  0.45239273  0.93246240  0.68491668  1
  Zn  Zn143  1  0.94276282  0.43840728  0.18345283  1
  Zn  Zn144  1  0.92918570  0.43895571  0.68840287  1
  Zn  Zn145  1  0.93934516  0.93629276  0.19234947  1
  Zn  Zn146  1  0.93228210  0.94128445  0.68561222  1
  Zn  Zn147  1  0.06223394  0.06298446  0.31322736  1
  Zn  Zn148  1  0.06633329  0.05894155  0.80888159  1
  Zn  Zn149  1  0.06388965  0.56047359  0.31580511  1
  Zn  Zn150  1  0.06717944  0.56218308  0.80270446  1
  Zn  Zn151  1  0.55988994  0.06499767  0.30877975  1
  Zn  Zn152  1  0.56212130  0.06773925  0.81126848  1
  Zn  Zn153  1  0.55916569  0.56416668  0.31654699  1
  Zn  Zn154  1  0.57453981  0.55694424  0.82026531  1
  Zn  Zn155  1  0.43586308  0.18436937  0.43459295  1
  Zn  Zn156  1  0.42935112  0.17922838  0.93455268  1
  Zn  Zn157  1  0.44065523  0.68349499  0.43902520  1
  Zn  Zn158  1  0.43460117  0.68909116  0.93698654  1
  Zn  Zn159  1  0.93810105  0.18701587  0.43663811  1
  Zn  Zn160  1  0.94125387  0.19002910  0.94091221  1
  Zn  Zn161  1  0.95102406  0.69799763  0.46674493  1
  Zn  Zn162  1  0.93930125  0.69221336  0.93313944  1
  Zn  Zn163  1  0.09198195  0.33242054  0.04206004  1
  Zn  Zn164  1  0.06553020  0.31207954  0.56409897  1
  Zn  Zn165  1  0.05973809  0.81213108  0.06782152  1
  Zn  Zn166  1  0.06552709  0.80877662  0.55980065  1
  Zn  Zn167  1  0.55856004  0.31136240  0.06148054  1
  Zn  Zn168  1  0.56143873  0.31362603  0.56141568  1
  Zn  Zn169  1  0.56344640  0.81054271  0.06756397  1
  Zn  Zn170  1  0.56718609  0.81404651  0.56222031  1
  O  O171  1  0.10767727  0.12447601  0.12961595  1
  O  O172  1  0.11262428  0.13510806  0.61419075  1
  O  O173  1  0.12124843  0.61517040  0.11785572  1
  O  O174  1  0.12412306  0.62763027  0.61102106  1
  O  O175  1  0.61682071  0.12024474  0.12279939  1
  O  O176  1  0.62559346  0.11889992  0.61714177  1
  O  O177  1  0.60912833  0.62760315  0.12809608  1
  O  O178  1  0.63831786  0.61889138  0.61423362  1
  O  O179  1  0.37455334  0.38074861  0.38484353  1
  O  O180  1  0.38532026  0.38442909  0.86851191  1
  O  O181  1  0.38069943  0.88769010  0.37919211  1
  O  O182  1  0.39125020  0.88384597  0.89058963  1
  O  O183  1  0.87961597  0.37967418  0.38016955  1
  O  O184  1  0.88126118  0.36724411  0.88904537  1
  O  O185  1  0.88991292  0.87524956  0.37448924  1
  O  O186  1  0.88593013  0.87278569  0.88264386  1
  O  O187  1  0.26131106  -0.00324222  0.38544589  1
  O  O188  1  0.24721684  0.01122830  0.87393727  1
  O  O189  1  0.25754333  0.50478370  0.36894345  1
  O  O190  1  0.27465033  0.50017913  0.88535772  1
  O  O191  1  0.74914376  0.00472329  0.36401098  1
  O  O192  1  0.74651442  0.00927965  0.86874590  1
  O  O193  1  0.76415767  0.49826050  0.37261809  1
  O  O194  1  0.74975083  0.48988841  0.87401294  1
  O  O195  1  0.24156377  0.50573888  0.12533266  1
  O  O196  1  0.25242149  0.48355257  0.61956906  1
  O  O197  1  0.25648130  0.99813785  0.12255544  1
  O  O198  1  0.23713105  1.00036282  0.58303797  1
  O  O199  1  0.75447247  0.48468534  0.12833273  1
  O  O200  1  0.74828075  0.48391402  0.61844447  1
  O  O201  1  0.74442153  0.99862977  0.13681196  1
  O  O202  1  0.74757055  0.99558505  0.63164056  1
  O  O203  1  0.00464530  0.36793010  0.25588057  1
  O  O204  1  -0.00417124  0.37056041  0.75469649  1
  O  O205  1  0.00854376  0.86756196  0.25783648  1
  O  O206  1  -0.00868199  0.86734241  0.75432021  1
  O  O207  1  0.50615425  0.36689076  0.25049759  1
  O  O208  1  0.50160251  0.36247623  0.75924324  1
  O  O209  1  0.50042608  0.86110322  0.24900279  1
  O  O210  1  0.51871864  0.85958866  0.74276353  1
  O  O211  1  0.49358363  0.13329753  0.24146269  1
  O  O212  1  0.49746107  0.13780479  0.74791359  1
  O  O213  1  0.49360926  0.63254146  0.24497654  1
  O  O214  1  0.51979509  0.62682656  0.74574130  1
  O  O215  1  0.98996070  0.13154947  0.25009231  1
  O  O216  1  0.99772191  0.13124271  0.74014909  1
  O  O217  1  0.99548749  0.62863908  0.24805159  1
  O  O218  1  1.00025044  0.62561075  0.74663761  1
  O  O219  1  0.37868837  0.24999693  0.01397640  1
  O  O220  1  0.36762743  0.25699159  0.49576318  1
  O  O221  1  0.36112359  0.74442629  0.00658877  1
  O  O222  1  0.37053970  0.75563741  0.49214303  1
  O  O223  1  0.86930250  0.25773801  0.00875716  1
  O  O224  1  0.86910271  0.25400941  0.50573932  1
  O  O225  1  0.86845097  0.75942715  0.00981714  1
  O  O226  1  0.85438248  0.75556442  0.48755386  1
  O  O227  1  0.12975724  0.24557985  0.49098029  1
  O  O228  1  0.11157837  0.23353388  0.99972410  1
  O  O229  1  0.13681454  0.74100558  0.48798395  1
  O  O230  1  0.12851159  0.74419777  1.00545302  1
  O  O231  1  0.62883927  0.24543213  0.49232232  1
  O  O232  1  0.63147706  0.24369435  0.99503980  1
  O  O233  1  0.62991279  0.74240249  0.49123884  1
  O  O234  1  0.63293712  0.74889399  0.99786959  1
  O  O235  1  0.49231729  0.24392903  0.13491630  1
  O  O236  1  0.50305937  0.25211206  0.63805169  1
  O  O237  1  0.49277909  0.74213725  0.13170843  1
  O  O238  1  0.51573398  0.74264761  0.63499181  1
  O  O239  1  0.98432814  0.23797776  0.13219622  1
  O  O240  1  0.99072102  0.24546917  0.62740184  1
  O  O241  1  0.99496247  0.74189154  0.13494158  1
  O  O242  1  0.98415471  0.73607171  0.58079520  1
  O  O243  1  0.00669411  0.25537455  0.36889043  1
  O  O244  1  -0.00939503  0.25326052  0.86034602  1
  O  O245  1  0.00988448  0.75610532  0.37751407  1
  O  O246  1  0.01438721  0.76855216  0.88586940  1
  O  O247  1  0.50380016  0.24986331  0.36254013  1
  O  O248  1  0.50335378  0.25409763  0.86883388  1
  O  O249  1  0.50550626  0.74812401  0.36453744  1
  O  O250  1  0.51507863  0.74162352  0.87066461  1
  O  O251  1  0.23795440  0.13671738  0.49645606  1
  O  O252  1  0.25592624  0.13349233  0.97948564  1
  O  O253  1  0.24723602  0.62588020  0.49335581  1
  O  O254  1  0.23718343  0.63430212  1.00148554  1
  O  O255  1  0.74557797  0.13077518  0.49376932  1
  O  O256  1  0.74518094  0.13246989  0.99426301  1
  O  O257  1  0.74339175  0.63220455  0.49525143  1
  O  O258  1  0.74781070  0.63580287  1.00950484  1
  O  O259  1  0.19722732  0.37874493  0.00774236  1
  O  O260  1  0.25749895  0.37042348  0.50532733  1
  O  O261  1  0.23588097  0.87176349  0.00942282  1
  O  O262  1  0.26438700  0.85651795  0.48864896  1
  O  O263  1  0.75619548  0.36980217  0.00736765  1
  O  O264  1  0.75473412  0.36786249  0.50705417  1
  O  O265  1  0.75509718  0.86788510  0.00965430  1
  O  O266  1  0.74894369  0.87060841  0.50666862  1
  O  O267  1  0.13211632  0.49389426  0.24366783  1
  O  O268  1  0.14067850  0.48297497  0.80610945  1
  O  O269  1  0.12839287  0.98787110  0.25935226  1
  O  O270  1  0.11473696  0.98069697  0.73997564  1
  O  O271  1  0.62367114  0.48639053  0.25668417  1
  O  O272  1  0.64274741  0.48897201  0.75296443  1
  O  O273  1  0.63229511  1.00047001  0.24209424  1
  O  O274  1  0.63327973  0.99348738  0.74602289  1
  O  O275  1  0.37729399  0.00585923  0.26503035  1
  O  O276  1  0.36714518  -0.01147107  0.73178009  1
  O  O277  1  0.36957187  0.50330594  0.25369499  1
  O  O278  1  0.38538175  0.51185563  0.76178027  1
  O  O279  1  0.86582565  0.00851900  0.25242178  1
  O  O280  1  0.86080344  0.00302005  0.75470057  1
  O  O281  1  0.87791476  0.50533615  0.25685197  1
  O  O282  1  0.85334331  0.49691882  0.74778994  1
  O  O283  1  0.11916915  0.36770211  0.36517364  1
  O  O284  1  0.10044018  0.35483730  0.87346299  1
  O  O285  1  0.11617126  0.86509349  0.36701210  1
  O  O286  1  0.11174557  0.87035137  0.85765683  1
  O  O287  1  0.62474933  0.36662235  0.36670120  1
  O  O288  1  0.61476092  0.35995840  0.88158412  1
  O  O289  1  0.62178430  0.86000784  0.37137785  1
  O  O290  1  0.63392617  0.86322807  0.86745412  1
  O  O291  1  0.38073522  0.13161401  0.13369456  1
  O  O292  1  0.38143090  0.13194891  0.62694419  1
  O  O293  1  0.38277944  0.63198555  0.13135014  1
  O  O294  1  0.38047603  0.61457908  0.63995015  1
  O  O295  1  0.87184737  0.13206945  0.13637537  1
  O  O296  1  0.88157965  0.13680620  0.62409882  1
  O  O297  1  0.88306315  0.62894443  0.13380948  1
  O  O298  1  0.87898338  0.62790444  0.63146581  1
  O  O299  1  0.26155280  0.24531594  0.11809715  1
  O  O300  1  0.24851986  0.25807488  0.60890654  1
  O  O301  1  0.25699717  0.74682122  0.11378033  1
  O  O302  1  0.25082066  0.74432643  0.61072362  1
  O  O303  1  0.76014674  0.25786487  0.12230137  1
  O  O304  1  0.75531484  0.25687904  0.62209822  1
  O  O305  1  0.75527877  0.75610062  0.12142944  1
  O  O306  1  0.73884548  0.76166262  0.61002723  1
  O  O307  1  0.23969213  0.25920279  0.38585582  1
  O  O308  1  0.24333409  0.24515624  0.88049593  1
  O  O309  1  0.24517517  0.73903280  0.37695535  1
  O  O310  1  0.22456507  0.76207093  0.89259161  1
  O  O311  1  0.74425022  0.24565299  0.37976363  1
  O  O312  1  0.74194055  0.24581594  0.87713691  1
  O  O313  1  0.73896452  0.74858258  0.37787493  1
  O  O314  1  0.74376880  0.75316668  0.89378479  1
  O  O315  1  -0.01282011  0.11771262  0.01333762  1
  O  O316  1  0.00545079  0.12173745  0.50577084  1
  O  O317  1  0.00619465  0.62221894  0.00584390  1
  O  O318  1  0.01493243  0.60684888  0.49117703  1
  O  O319  1  0.50597729  0.13538710  0.01444582  1
  O  O320  1  0.50805580  0.11773421  0.49906521  1
  O  O321  1  0.50114773  0.61978191  0.00958563  1
  O  O322  1  0.51043923  0.61411003  0.49823141  1
  O  O323  1  0.49160148  0.37834283  0.49540958  1
  O  O324  1  0.50041102  0.38119869  0.99177121  1
  O  O325  1  0.49694231  0.88064122  0.49653730  1
  O  O326  1  0.50972469  0.88461488  1.00527304  1
  O  O327  1  0.99591041  0.37821955  0.49385783  1
  O  O328  1  0.99215137  0.38551651  0.99465151  1
  O  O329  1  1.00225460  0.88573213  0.49225953  1
  O  O330  1  0.98860530  0.87428645  1.00195431  1
  O  O331  1  0.49174962  0.49731567  0.38373609  1
  O  O332  1  0.49911401  0.48927993  0.88192713  1
  O  O333  1  0.50555258  0.99742384  0.38494784  1
  O  O334  1  0.51421636  0.99871705  0.88404587  1
  O  O335  1  0.99137041  0.49088085  0.37883845  1
  O  O336  1  0.99434684  0.49162320  0.88653900  1
  O  O337  1  0.99635204  0.99215417  0.37944711  1
  O  O338  1  0.99789520  0.98240149  0.86918906  1
  O  O339  1  -0.00807960  0.01662467  0.13403885  1
  O  O340  1  -0.00862028  0.01278058  0.61592708  1
  O  O341  1  0.00908222  0.50605935  0.11408200  1
  O  O342  1  -0.00286840  0.49587750  0.61225052  1
  O  O343  1  0.50947431  0.01118737  0.13668158  1
  O  O344  1  0.51205982  0.00048980  0.60993732  1
  O  O345  1  0.49110522  0.50822690  0.11664173  1
  O  O346  1  0.50516631  0.48646845  0.61223227  1
  O  O347  1  0.23933062  0.38100653  0.25306652  1
  O  O348  1  0.25236246  0.36642534  0.73146662  1
  O  O349  1  0.23584986  0.87058410  0.25914151  1
  O  O350  1  0.23962385  0.88037567  0.75024735  1
  O  O351  1  0.74066515  0.37475085  0.24192398  1
  O  O352  1  0.75486731  0.37923892  0.73672523  1
  O  O353  1  0.75067258  0.88444113  0.24564317  1
  O  O354  1  0.74213732  0.88344413  0.74368290  1
  O  O355  1  0.26093100  0.13145643  0.25124112  1
  O  O356  1  0.25719409  0.13574502  0.76016845  1
  O  O357  1  0.25520657  0.61769129  0.25376545  1
  O  O358  1  0.26796660  0.63262422  0.74886320  1
  O  O359  1  0.75503694  0.11977609  0.25313928  1
  O  O360  1  0.74900286  0.11817665  0.75841599  1
  O  O361  1  0.76102401  0.62130537  0.25180621  1
  O  O362  1  0.74508202  0.60145239  0.76169521  1
  O  O363  1  0.37871006  0.10911339  0.36768609  1
  O  O364  1  0.36263670  0.12441534  0.86402292  1
  O  O365  1  0.37113268  0.61803879  0.36641432  1
  O  O366  1  0.38512966  0.61433267  0.86409239  1
  O  O367  1  0.86790839  0.12645089  0.36338765  1
  O  O368  1  0.86154124  0.12643209  0.87548864  1
  O  O369  1  0.87750797  0.61448111  0.37052659  1
  O  O370  1  0.87045070  0.62877046  0.87672167  1
  O  O371  1  0.10885542  0.38779000  0.14187369  1
  O  O372  1  0.13727820  0.37698384  0.62558133  1
  O  O373  1  0.12591715  0.87420977  0.14379332  1
  O  O374  1  0.12315895  0.86256565  0.63876945  1
  O  O375  1  0.63468624  0.36566943  0.13382245  1
  O  O376  1  0.64062604  0.37410995  0.61985753  1
  O  O377  1  0.63277217  0.88415614  0.13049201  1
  O  O378  1  0.63620884  0.88319087  0.63056184  1
  O  O379  1  0.12276532  0.25643078  0.25426742  1
  O  O380  1  0.10923517  0.25632642  0.74230986  1
  O  O381  1  0.12125307  0.74782406  0.26202262  1
  O  O382  1  0.12943929  0.75607210  0.76096898  1
  O  O383  1  0.61600238  0.25631860  0.25354198  1
  O  O384  1  0.61335435  0.24520271  0.76045050  1
  O  O385  1  0.61620724  0.74861704  0.25559410  1
  O  O386  1  0.62746327  0.75382450  0.76108540  1
  O  O387  1  0.38057709  0.24174732  0.24723661  1
  O  O388  1  0.39040899  0.25426416  0.74857892  1
  O  O389  1  0.38047688  0.74407939  0.24548399  1
  O  O390  1  0.40500561  0.72629781  0.75110322  1
  O  O391  1  0.87701153  0.24442432  0.24411117  1
  O  O392  1  0.88113168  0.24847970  0.73852710  1
  O  O393  1  0.88172514  0.74292005  0.24761374  1
  O  O394  1  0.83187720  0.73587945  0.74006782  1
  O  O395  1  0.38321232  0.49332770  0.49511873  1
  O  O396  1  0.39015940  0.50815633  0.98714062  1
  O  O397  1  0.38666143  0.99501407  0.48741812  1
  O  O398  1  0.39578024  1.00554368  1.00524195  1
  O  O399  1  0.88313853  0.49425137  0.49231748  1
  O  O400  1  0.88301466  0.48992108  1.00908666  1
  O  O401  1  0.88520952  0.99947843  0.49495006  1
  O  O402  1  0.86275894  0.98516249  0.99742398  1
  O  O403  1  0.13076553  -0.01510971  0.02044187  1
  O  O404  1  0.10786005  0.01420024  0.48836998  1
  O  O405  1  0.11465397  0.51399978  0.00000030  1
  O  O406  1  0.11817628  0.50467396  0.49189956  1
  O  O407  1  0.63584225  0.00945237  0.01724666  1
  O  O408  1  0.62226754  0.00546690  0.50211851  1
  O  O409  1  0.60905954  0.50166826  0.00137915  1
  O  O410  1  0.61750855  0.50872522  0.49646019  1
  O  O411  1  0.37443712  0.35697158  0.13161170  1
  O  O412  1  0.36813273  0.37133169  0.61296211  1
  O  O413  1  0.37692941  0.85998693  0.12960352  1
  O  O414  1  0.37779194  0.87769006  0.60911825  1
  O  O415  1  0.87130686  0.36734287  0.11855793  1
  O  O416  1  0.86663160  0.36482651  0.61714330  1
  O  O417  1  0.87171206  0.87001049  0.12186720  1
  O  O418  1  0.86239792  0.87067349  0.62291722  1
  O  O419  1  0.11800053  0.13877673  0.38175657  1
  O  O420  1  0.13926272  0.12464757  0.86132662  1
  O  O421  1  0.13278534  0.62992046  0.38060617  1
  O  O422  1  0.11606369  0.64541292  0.88437856  1
  O  O423  1  0.63110107  0.13221436  0.37705127  1
  O  O424  1  0.63436156  0.13436807  0.88081248  1
  O  O425  1  0.62686392  0.63485012  0.37919425  1
  O  O426  1  0.63670828  0.63349078  0.88489709  1
