# generated using pymatgen
data_V85Zn86O256
_symmetry_space_group_name_H-M   'P 1'
_cell_length_a   16.92275656
_cell_length_b   16.92922918
_cell_length_c   16.92868544
_cell_angle_alpha   90.03843147
_cell_angle_beta   89.91459212
_cell_angle_gamma   89.96424081
_symmetry_Int_Tables_number   1
_chemical_formula_structural   V85Zn86O256
_chemical_formula_sum   'V85 Zn86 O256'
_cell_volume   4849.87853162
_cell_formula_units_Z   1
loop_
 _symmetry_equiv_pos_site_id
 _symmetry_equiv_pos_as_xyz
  1  'x, y, z'
loop_
 _atom_site_type_symbol
 _atom_site_label
 _atom_site_symmetry_multiplicity
 _atom_site_fract_x
 _atom_site_fract_y
 _atom_site_fract_z
 _atom_site_occupancy
  V  V0  1  0.74718430  0.62467985  0.36947858  1
  V  V1  1  -0.00046669  0.73651973  0.74539806  1
  V  V2  1  0.50323837  0.12781788  0.11420359  1
  V  V3  1  0.49971625  0.37325201  0.87557696  1
  V  V4  1  0.49661305  0.51016217  0.50511365  1
  V  V5  1  0.38362753  0.87519453  0.49285386  1
  V  V6  1  0.24830449  0.37588354  0.62902225  1
  V  V7  1  0.62461824  0.24501862  0.87891188  1
  V  V8  1  0.37165860  0.25426622  0.12686036  1
  V  V9  1  0.87493494  0.37610174  0.49917499  1
  V  V10  1  0.50304139  0.25038667  0.24878449  1
  V  V11  1  0.75166217  -0.00056091  0.24996495  1
  V  V12  1  0.87650843  0.24786113  0.62705432  1
  V  V13  1  0.49712684  0.86730701  0.88376162  1
  V  V14  1  0.74865650  0.75428720  0.50303791  1
  V  V15  1  0.36874983  0.62185702  0.24724274  1
  V  V16  1  -0.00228382  0.50259123  0.50381039  1
  V  V17  1  0.25435578  0.12218717  0.37428236  1
  V  V18  1  0.37693533  0.62463328  0.74400455  1
  V  V19  1  0.87226235  0.87706480  0.51208117  1
  V  V20  1  0.00070787  0.11953759  0.62879758  1
  V  V21  1  -0.00127009  0.88500332  0.86915432  1
  V  V22  1  0.12157571  0.25622111  0.87515519  1
  V  V23  1  0.37788822  0.74865659  0.62281222  1
  V  V24  1  0.62523003  0.37682522  0.75168277  1
  V  V25  1  0.37580507  0.37526060  0.50119976  1
  V  V26  1  0.13922763  0.37830972  0.24625228  1
  V  V27  1  0.12105379  0.75020327  0.87137449  1
  V  V28  1  0.62772971  0.24887667  0.37601231  1
  V  V29  1  0.24933651  0.75355178  -0.00337779  1
  V  V30  1  0.50089778  0.24150198  0.74684595  1
  V  V31  1  0.62848926  0.38634889  0.25051564  1
  V  V32  1  0.87641521  0.73036740  0.62551919  1
  V  V33  1  0.62016917  0.50820288  0.62727127  1
  V  V34  1  0.87816151  0.12579444  0.25219833  1
  V  V35  1  -0.00054671  0.74408833  0.24497640  1
  V  V36  1  0.75756384  0.86615713  0.11981552  1
  V  V37  1  0.36941501  0.37712722  0.00403125  1
  V  V38  1  0.12512780  0.86984329  0.25370608  1
  V  V39  1  0.62214813  0.76001007  0.37566980  1
  V  V40  1  0.75113106  0.37853197  0.62763470  1
  V  V41  1  0.75348064  0.51693788  0.75610139  1
  V  V42  1  0.12502983  -0.00025953  0.11894265  1
  V  V43  1  0.49823984  0.75807204  0.25314572  1
  V  V44  1  0.87512401  0.84540000  -0.00859926  1
  V  V45  1  0.88017075  0.51331293  0.86961297  1
  V  V46  1  0.74505360  0.24951705  -0.00363980  1
  V  V47  1  0.00263672  0.25360210  0.24924089  1
  V  V48  1  0.12286392  0.88036084  0.73877625  1
  V  V49  1  -0.00847015  0.00408595  -0.00501918  1
  V  V50  1  0.75152156  0.38234715  0.12661711  1
  V  V51  1  0.11915450  0.62855908  0.49945844  1
  V  V52  1  0.50200191  0.62876257  0.12368388  1
  V  V53  1  0.36992801  0.50017549  0.37204184  1
  V  V54  1  0.24513970  0.24772049  0.00421540  1
  V  V55  1  -0.00111718  0.49780436  0.00764499  1
  V  V56  1  0.24159382  0.62478320  0.37062367  1
  V  V57  1  0.50436381  0.75171495  0.74880744  1
  V  V58  1  0.00750806  0.12644863  0.12134407  1
  V  V59  1  0.63627432  0.64759485  -0.01183651  1
  V  V60  1  0.12521083  0.25133204  0.37730881  1
  V  V61  1  0.37268199  0.75309285  0.12068947  1
  V  V62  1  0.87461852  0.62748826  0.23927372  1
  V  V63  1  0.24982928  0.87465667  0.12059381  1
  V  V64  1  0.37306889  0.50169473  0.87412347  1
  V  V65  1  0.87581457  0.25230298  0.12434572  1
  V  V66  1  0.50717752  0.50264433  -0.00040184  1
  V  V67  1  0.62071698  0.12560523  0.51355369  1
  V  V68  1  0.00127036  0.86646324  0.37773066  1
  V  V69  1  0.24619988  0.12423703  0.87765959  1
  V  V70  1  0.37051497  -0.00639938  0.88232132  1
  V  V71  1  0.87129193  0.50144721  0.36797874  1
  V  V72  1  0.62689471  0.00584580  0.12621863  1
  V  V73  1  0.12482589  0.11881427  0.50463654  1
  V  V74  1  0.24451615  0.75211252  0.49645932  1
  V  V75  1  0.86214755  0.11845365  0.76285247  1
  V  V76  1  0.11630176  0.62744588  0.00279993  1
  V  V77  1  0.62925338  -0.01801167  0.63333232  1
  V  V78  1  0.12170866  0.50450008  0.62692635  1
  V  V79  1  0.68278940  0.06803641  -0.05584389  1
  V  V80  1  0.24847391  0.00132337  0.74067432  1
  V  V81  1  0.87860007  0.37297343  -0.01313200  1
  V  V82  1  0.87809715  -0.00122347  0.37799617  1
  V  V83  1  0.13947484  0.50122091  0.12856467  1
  V  V84  1  0.37799962  0.24276535  0.62482936  1
  Zn  Zn85  1  0.50129006  0.00336732  0.49841866  1
  Zn  Zn86  1  0.37619256  0.12301960  0.24999897  1
  Zn  Zn87  1  0.25151586  -0.00048369  0.24900235  1
  Zn  Zn88  1  -0.00433164  0.25308885  0.75734594  1
  Zn  Zn89  1  0.50136595  0.37836638  0.37491424  1
  Zn  Zn90  1  0.24784610  0.87906858  0.61982591  1
  Zn  Zn91  1  0.11623348  0.38070415  0.75589477  1
  Zn  Zn92  1  0.24801761  0.62671686  0.87320017  1
  Zn  Zn93  1  0.49709222  -0.00181861  -0.00114931  1
  Zn  Zn94  1  0.74961325  0.25020065  0.50061357  1
  Zn  Zn95  1  0.80610115  -0.05409209  0.82018444  1
  Zn  Zn96  1  0.74984837  0.12452507  0.37873289  1
  Zn  Zn97  1  0.63089575  0.50863415  0.12721080  1
  Zn  Zn98  1  0.37691541  0.11992542  0.74714463  1
  Zn  Zn99  1  0.24947705  0.24919507  0.50250798  1
  Zn  Zn100  1  0.61956743  0.62926582  0.49993275  1
  Zn  Zn101  1  0.38435374  -0.01025245  0.36478116  1
  Zn  Zn102  1  0.63611979  0.86916995  0.75674875  1
  Zn  Zn103  1  0.00422997  -0.00231438  0.50370464  1
  Zn  Zn104  1  0.24761852  0.50231448  0.75143272  1
  Zn  Zn105  1  0.00151032  0.37792132  0.37308813  1
  Zn  Zn106  1  0.62143505  0.87928102  0.25094780  1
  Zn  Zn107  1  0.18848662  0.18782218  0.18912420  1
  Zn  Zn108  1  0.18807252  0.18802374  0.68956503  1
  Zn  Zn109  1  0.18034123  0.68915794  0.18714385  1
  Zn  Zn110  1  0.18997999  0.68751730  0.68526426  1
  Zn  Zn111  1  0.68918377  0.18875834  0.18765938  1
  Zn  Zn112  1  0.69024644  0.18848384  0.68953488  1
  Zn  Zn113  1  0.68583773  0.68794320  0.18934708  1
  Zn  Zn114  1  0.68789609  0.68960335  0.68419994  1
  Zn  Zn115  1  0.31238715  0.31024688  0.31421121  1
  Zn  Zn116  1  0.31086139  0.31245026  0.81193199  1
  Zn  Zn117  1  0.30822060  0.80822216  0.31183130  1
  Zn  Zn118  1  0.31152582  0.81473302  0.81010870  1
  Zn  Zn119  1  0.81123932  0.31502454  0.31163350  1
  Zn  Zn120  1  0.81094389  0.31091450  0.81040089  1
  Zn  Zn121  1  0.81441127  0.81265517  0.31231618  1
  Zn  Zn122  1  0.81412459  0.76472188  0.81932604  1
  Zn  Zn123  1  0.18838229  0.43753732  0.43858758  1
  Zn  Zn124  1  0.18887719  0.43717026  0.94199859  1
  Zn  Zn125  1  0.18994886  0.93869819  0.43532362  1
  Zn  Zn126  1  0.18112244  0.93809948  0.93484104  1
  Zn  Zn127  1  0.68673041  0.43960664  0.43879604  1
  Zn  Zn128  1  0.69186859  0.43751569  0.93548578  1
  Zn  Zn129  1  0.68805481  0.94063619  0.44045678  1
  Zn  Zn130  1  0.69658707  0.83185163  0.92481276  1
  Zn  Zn131  1  0.31240645  0.06625181  0.06383695  1
  Zn  Zn132  1  0.31292135  0.06196723  0.55833587  1
  Zn  Zn133  1  0.31101961  0.56857478  0.05774418  1
  Zn  Zn134  1  0.30818135  0.56451316  0.56228622  1
  Zn  Zn135  1  0.81887785  0.06048272  0.06747712  1
  Zn  Zn136  1  0.80712822  0.06446795  0.56517788  1
  Zn  Zn137  1  0.81168666  0.56232004  0.05775230  1
  Zn  Zn138  1  0.80539834  0.56194685  0.55626216  1
  Zn  Zn139  1  0.43917798  0.43887423  0.18713747  1
  Zn  Zn140  1  0.43795420  0.43409861  0.68844036  1
  Zn  Zn141  1  0.43436985  0.93990422  0.18284433  1
  Zn  Zn142  1  0.43996123  0.93680256  0.68366644  1
  Zn  Zn143  1  0.94107488  0.43788114  0.18592289  1
  Zn  Zn144  1  0.93977181  0.43752172  0.69104579  1
  Zn  Zn145  1  0.93754209  0.93451848  0.18590006  1
  Zn  Zn146  1  0.93682177  0.94054643  0.68723115  1
  Zn  Zn147  1  0.06551636  0.05989675  0.31118580  1
  Zn  Zn148  1  0.06555195  0.06924875  0.80992949  1
  Zn  Zn149  1  0.06028978  0.55931787  0.31236456  1
  Zn  Zn150  1  0.06016066  0.55927341  0.81829982  1
  Zn  Zn151  1  0.55992206  0.06451053  0.31574355  1
  Zn  Zn152  1  0.55640769  0.05240400  0.80601831  1
  Zn  Zn153  1  0.55762929  0.56792666  0.31554336  1
  Zn  Zn154  1  0.56058584  0.56737577  0.81282092  1
  Zn  Zn155  1  0.44174328  0.18767957  0.43696684  1
  Zn  Zn156  1  0.43161870  0.18625853  0.93445258  1
  Zn  Zn157  1  0.43405140  0.68948126  0.43415032  1
  Zn  Zn158  1  0.43564008  0.68640416  0.93729873  1
  Zn  Zn159  1  0.93948489  0.18786443  0.44011485  1
  Zn  Zn160  1  0.93779684  0.18582945  0.94004442  1
  Zn  Zn161  1  0.93515715  0.68696913  0.43512320  1
  Zn  Zn162  1  0.93147983  0.69228935  0.94105036  1
  Zn  Zn163  1  0.06475403  0.31749683  0.06246730  1
  Zn  Zn164  1  0.06001818  0.31334853  0.56483472  1
  Zn  Zn165  1  0.05098186  0.81109950  0.05907990  1
  Zn  Zn166  1  0.05825593  0.81017328  0.56272972  1
  Zn  Zn167  1  0.56359960  0.31645690  0.06310057  1
  Zn  Zn168  1  0.56144665  0.31642444  0.56254063  1
  Zn  Zn169  1  0.56539188  0.81699689  0.06269569  1
  Zn  Zn170  1  0.56148656  0.81270875  0.56696573  1
  O  O171  1  0.11685833  0.11538101  0.13206331  1
  O  O172  1  0.11480432  0.13644189  0.61613701  1
  O  O173  1  0.12625150  0.61217466  0.11838796  1
  O  O174  1  0.13104109  0.61228713  0.61478243  1
  O  O175  1  0.61916246  0.11496424  0.13030922  1
  O  O176  1  0.62493201  0.12992875  0.61496858  1
  O  O177  1  0.61784702  0.62821223  0.11428704  1
  O  O178  1  0.62901474  0.61173154  0.62053061  1
  O  O179  1  0.37469566  0.38233549  0.38234502  1
  O  O180  1  0.38013338  0.38142886  0.88176289  1
  O  O181  1  0.36833038  0.87093618  0.38874645  1
  O  O182  1  0.38067508  0.88337791  0.87194126  1
  O  O183  1  0.87415669  0.38404952  0.38012463  1
  O  O184  1  0.87204583  0.37666500  0.88480365  1
  O  O185  1  0.88175211  0.88122826  0.38342002  1
  O  O186  1  0.89193055  0.88804613  0.88036243  1
  O  O187  1  0.25547451  0.00974777  0.37177567  1
  O  O188  1  0.25232568  0.00572599  0.86993314  1
  O  O189  1  0.26228907  0.50814929  0.38089618  1
  O  O190  1  0.26220794  0.50036641  0.87592485  1
  O  O191  1  0.76164529  -0.00066064  0.36782790  1
  O  O192  1  0.74009551  0.00698755  0.89231892  1
  O  O193  1  0.75842147  0.51095644  0.38130460  1
  O  O194  1  0.76564705  0.49444653  0.86765012  1
  O  O195  1  0.23847315  0.50173393  0.11914935  1
  O  O196  1  0.24146499  0.49269223  0.62525524  1
  O  O197  1  0.24258757  0.99295362  0.12324997  1
  O  O198  1  0.25313779  1.00105321  0.63686030  1
  O  O199  1  0.74791725  0.48655899  0.11900965  1
  O  O200  1  0.74500628  0.49582157  0.63296335  1
  O  O201  1  0.74514592  0.99712091  0.13230921  1
  O  O202  1  0.72817323  1.00312173  0.62013109  1
  O  O203  1  0.00814600  0.36752862  0.25141926  1
  O  O204  1  0.00482119  0.36481244  0.74264835  1
  O  O205  1  0.00267854  0.86497466  0.25602565  1
  O  O206  1  0.00557868  0.87334329  0.75288169  1
  O  O207  1  0.50850516  0.36569750  0.24921113  1
  O  O208  1  0.50613562  0.36744766  0.75770592  1
  O  O209  1  0.49957392  0.86142114  0.23942887  1
  O  O210  1  0.49569600  0.86435556  0.75863212  1
  O  O211  1  0.50177451  0.13908732  0.24016168  1
  O  O212  1  0.49759153  0.13757537  0.75330934  1
  O  O213  1  0.49296973  0.63419129  0.24088906  1
  O  O214  1  0.48544324  0.63453461  0.75658137  1
  O  O215  1  0.99796661  0.13201534  0.24290297  1
  O  O216  1  0.99304839  0.13161253  0.74299360  1
  O  O217  1  0.99193027  0.63769246  0.26267448  1
  O  O218  1  1.00705004  0.63766533  0.75248017  1
  O  O219  1  0.36844011  0.25860644  0.00621008  1
  O  O220  1  0.37649585  0.25951427  0.50651858  1
  O  O221  1  0.36079880  0.74183594  0.00749401  1
  O  O222  1  0.36813521  0.75594219  0.50415760  1
  O  O223  1  0.86906587  0.25578396  0.00457993  1
  O  O224  1  0.87225532  0.25736824  0.50672927  1
  O  O225  1  0.93169925  0.76746532  0.02940280  1
  O  O226  1  0.87040091  0.75480847  0.50877045  1
  O  O227  1  0.12468041  0.24408960  0.49144584  1
  O  O228  1  0.13861159  0.25797639  0.99372248  1
  O  O229  1  0.13079530  0.74056726  0.50549149  1
  O  O230  1  0.12485272  0.74317319  0.99459330  1
  O  O231  1  0.62501720  0.24552436  0.49411329  1
  O  O232  1  0.63204801  0.25374042  0.99339530  1
  O  O233  1  0.63101596  0.75011441  0.49571158  1
  O  O234  1  0.63357530  0.75349584  0.99115273  1
  O  O235  1  0.49668508  0.24582891  0.12952408  1
  O  O236  1  0.49074535  0.26080912  0.63571996  1
  O  O237  1  0.49585177  0.74328231  0.12662300  1
  O  O238  1  0.48638633  0.75193280  0.63214083  1
  O  O239  1  0.99906207  0.24383445  0.12847336  1
  O  O240  1  0.98638159  0.24217070  0.62193613  1
  O  O241  1  1.01656150  0.74397991  0.14815938  1
  O  O242  1  0.98524976  0.75081439  0.63015960  1
  O  O243  1  0.01145519  0.25046658  0.36922385  1
  O  O244  1  0.01926631  0.24433492  0.88164513  1
  O  O245  1  -0.00280479  0.76220297  0.37094573  1
  O  O246  1  0.00276627  0.76078370  0.86337238  1
  O  O247  1  0.51053129  0.25406734  0.36637714  1
  O  O248  1  0.50402669  0.25393456  0.86985807  1
  O  O249  1  0.50797840  0.74384522  0.36467305  1
  O  O250  1  0.48771234  0.76100248  0.86700385  1
  O  O251  1  0.24286991  0.12840685  0.49373685  1
  O  O252  1  0.25451330  0.13686065  0.99252977  1
  O  O253  1  0.23998234  0.63070152  0.49231939  1
  O  O254  1  0.23723832  0.63685280  0.99800884  1
  O  O255  1  0.73732859  0.13078073  0.49795589  1
  O  O256  1  0.74713443  0.12913620  1.00248827  1
  O  O257  1  0.74768653  0.63773711  0.48834674  1
  O  O258  1  0.73183683  0.62180727  1.00206762  1
  O  O259  1  0.26429351  0.36903079  -0.00102820  1
  O  O260  1  0.26062445  0.37474942  0.50881822  1
  O  O261  1  0.23891001  0.86255530  0.00605385  1
  O  O262  1  0.25347773  0.86666166  0.50035479  1
  O  O263  1  0.75716445  0.36700617  0.00659370  1
  O  O264  1  0.75454189  0.37728372  0.51309643  1
  O  O265  1  0.76240193  0.87688878  0.01142259  1
  O  O266  1  0.75859500  0.86231449  0.49321491  1
  O  O267  1  0.12064896  0.49509803  0.23651456  1
  O  O268  1  0.12585470  0.50054771  0.74171143  1
  O  O269  1  0.12342140  0.98713782  0.23828390  1
  O  O270  1  0.13467570  0.99201669  0.75469760  1
  O  O271  1  0.61658461  0.48990301  0.24959577  1
  O  O272  1  0.63004627  0.49802139  0.74626445  1
  O  O273  1  0.63401044  0.99967905  0.24494685  1
  O  O274  1  0.62501901  0.99139796  0.73842529  1
  O  O275  1  0.37060207  0.00508374  0.24918221  1
  O  O276  1  0.36622349  -0.00047948  0.75737860  1
  O  O277  1  0.38021138  0.51225876  0.25639814  1
  O  O278  1  0.37577180  0.50624722  0.75723642  1
  O  O279  1  0.87137928  0.00394064  0.25667240  1
  O  O280  1  0.86991712  0.01043361  0.75014096  1
  O  O281  1  0.88423017  0.50698929  0.26245117  1
  O  O282  1  0.86996729  0.49906615  0.76211876  1
  O  O283  1  0.12491894  0.36878296  0.36920252  1
  O  O284  1  0.13439695  0.36110825  0.87493656  1
  O  O285  1  0.11364922  0.88484955  0.36623358  1
  O  O286  1  0.11576489  0.86955306  0.86394849  1
  O  O287  1  0.62431787  0.37044763  0.36829512  1
  O  O288  1  0.61959058  0.36935199  0.87008509  1
  O  O289  1  0.63069978  0.86393084  0.37238906  1
  O  O290  1  0.59914257  0.87964820  0.87408566  1
  O  O291  1  0.38365027  0.13809341  0.12663059  1
  O  O292  1  0.37146624  0.13914186  0.62395723  1
  O  O293  1  0.38020731  0.63014232  0.13015175  1
  O  O294  1  0.37066204  0.63247632  0.63212371  1
  O  O295  1  0.88472091  0.13268216  0.13268477  1
  O  O296  1  0.87902901  0.13194593  0.63093736  1
  O  O297  1  0.86897038  0.61667733  0.13998268  1
  O  O298  1  0.87590618  0.63227134  0.61693190  1
  O  O299  1  0.25957655  0.24559771  0.11771465  1
  O  O300  1  0.25742121  0.25917699  0.62439956  1
  O  O301  1  0.24956384  0.75662833  0.11772581  1
  O  O302  1  0.25872805  0.75017119  0.61248939  1
  O  O303  1  0.75365775  0.25639421  0.11441489  1
  O  O304  1  0.76001929  0.25972432  0.62565871  1
  O  O305  1  0.74572774  0.76849043  0.13173360  1
  O  O306  1  0.76345407  0.74595019  0.61704353  1
  O  O307  1  0.23883718  0.24435483  0.37754275  1
  O  O308  1  0.24669867  0.24385491  0.88287633  1
  O  O309  1  0.25248600  0.73895793  0.38749315  1
  O  O310  1  0.24119272  0.75192462  0.88104434  1
  O  O311  1  0.73857768  0.25117394  0.37616248  1
  O  O312  1  0.74380653  0.25342464  0.88819766  1
  O  O313  1  0.74348919  0.74523850  0.38018812  1
  O  O314  1  0.82524632  0.76057310  0.93107223  1
  O  O315  1  -0.00113700  0.12112736  0.01325798  1
  O  O316  1  0.00753434  0.12319453  0.50750562  1
  O  O317  1  0.01066964  0.61614971  -0.00579717  1
  O  O318  1  0.01166068  0.62017129  0.49245232  1
  O  O319  1  0.49568502  0.12643831  0.01129183  1
  O  O320  1  0.51646431  0.12870898  0.50011556  1
  O  O321  1  0.50956628  0.62250097  0.00563915  1
  O  O322  1  0.49739467  0.61400230  0.49678098  1
  O  O323  1  0.48846616  0.38530266  0.49858285  1
  O  O324  1  0.49074507  0.38327419  0.99619113  1
  O  O325  1  0.48518051  0.86833696  0.49897519  1
  O  O326  1  0.49546815  0.87449963  0.98882903  1
  O  O327  1  0.99243913  0.38394671  0.49758519  1
  O  O328  1  0.98937190  0.38215613  1.00372949  1
  O  O329  1  0.99293376  0.87782382  0.49379366  1
  O  O330  1  0.99936325  0.88827192  0.98707697  1
  O  O331  1  0.48680500  0.50033824  0.38243809  1
  O  O332  1  0.49068509  0.49670247  0.88162615  1
  O  O333  1  0.49515240  1.00514231  0.38310355  1
  O  O334  1  0.48704090  0.99035331  0.87621016  1
  O  O335  1  0.99177115  0.49910094  0.38645879  1
  O  O336  1  0.98717912  0.49791999  0.88433222  1
  O  O337  1  0.98913663  0.99318320  0.37459698  1
  O  O338  1  1.01285348  0.99809274  0.88390334  1
  O  O339  1  0.00518660  0.00705524  0.12019851  1
  O  O340  1  -0.00274007  0.01497206  0.62299625  1
  O  O341  1  0.00605089  0.49980090  0.11184819  1
  O  O342  1  0.00558701  0.49891057  0.61219075  1
  O  O343  1  0.50798299  0.00785286  0.12100953  1
  O  O344  1  0.51880699  -0.00754564  0.61717779  1
  O  O345  1  0.50066005  0.51369762  0.11752535  1
  O  O346  1  0.50801425  0.49417150  0.61813935  1
  O  O347  1  0.23884153  0.37287911  0.25202291  1
  O  O348  1  0.24840824  0.37898769  0.73842574  1
  O  O349  1  0.24033382  0.87320512  0.24265639  1
  O  O350  1  0.24041188  0.88247477  0.74648794  1
  O  O351  1  0.74063146  0.37025920  0.23912201  1
  O  O352  1  0.74529057  0.38217672  0.74105384  1
  O  O353  1  0.75331242  0.88645557  0.24095213  1
  O  O354  1  0.73950957  0.85101387  0.81151223  1
  O  O355  1  0.25070350  0.12347444  0.26029925  1
  O  O356  1  0.25162983  0.11737089  0.75697253  1
  O  O357  1  0.25644751  0.63260015  0.25748280  1
  O  O358  1  0.26152118  0.62373309  0.75282774  1
  O  O359  1  0.75829446  0.11511365  0.25089571  1
  O  O360  1  0.76293184  0.12784386  0.75280742  1
  O  O361  1  0.75752763  0.63160794  0.26077003  1
  O  O362  1  0.74687943  0.61699694  0.75254504  1
  O  O363  1  0.36195841  0.13313671  0.37490151  1
  O  O364  1  0.36300536  0.11814648  0.87038354  1
  O  O365  1  0.36539110  0.61953439  0.36679606  1
  O  O366  1  0.37175638  0.61601632  0.86968153  1
  O  O367  1  0.87466094  0.11754588  0.37116765  1
  O  O368  1  0.87844329  0.12871014  0.86115780  1
  O  O369  1  0.86630397  0.61962721  0.36871686  1
  O  O370  1  0.87760667  0.61204939  0.87666833  1
  O  O371  1  0.12405798  0.38971404  0.13177541  1
  O  O372  1  0.13326581  0.38592138  0.62088784  1
  O  O373  1  0.13086178  0.87820083  0.13059131  1
  O  O374  1  0.12463313  0.87302920  0.63480589  1
  O  O375  1  0.63281463  0.37806285  0.13336173  1
  O  O376  1  0.63264526  0.38451456  0.63049218  1
  O  O377  1  0.63544446  0.88937295  0.12455167  1
  O  O378  1  0.63232083  0.87660812  0.63206802  1
  O  O379  1  0.12158065  0.25828999  0.25594753  1
  O  O380  1  0.12809848  0.25241690  0.76656077  1
  O  O381  1  0.11756095  0.76096925  0.25708148  1
  O  O382  1  0.11890962  0.75684118  0.75061441  1
  O  O383  1  0.62060116  0.25762014  0.25611192  1
  O  O384  1  0.61950556  0.25490864  0.75706741  1
  O  O385  1  0.61565101  0.75295420  0.25730518  1
  O  O386  1  0.60863665  0.74791892  0.74342731  1
  O  O387  1  0.38420800  0.25180143  0.24297880  1
  O  O388  1  0.38312258  0.25079983  0.74251478  1
  O  O389  1  0.37951895  0.74070711  0.24374971  1
  O  O390  1  0.37705086  0.74391863  0.74056398  1
  O  O391  1  0.88204361  0.24711940  0.24501296  1
  O  O392  1  0.87417628  0.24052787  0.74307852  1
  O  O393  1  0.88879373  0.74384244  0.25265912  1
  O  O394  1  0.88214228  0.74693553  0.73356270  1
  O  O395  1  0.37860886  0.49539239  0.49557018  1
  O  O396  1  0.38350065  0.49698252  0.99554641  1
  O  O397  1  0.37506549  0.98364777  0.50127408  1
  O  O398  1  0.37307414  1.00420790  0.98658669  1
  O  O399  1  0.88046853  0.49740448  0.49267977  1
  O  O400  1  0.88003421  0.49383324  0.99096933  1
  O  O401  1  0.87391956  0.99382529  0.49412654  1
  O  O402  1  0.88971370  0.99874174  1.00261869  1
  O  O403  1  0.11593608  -0.00468102  0.01349450  1
  O  O404  1  0.12434097  0.01468513  0.49575066  1
  O  O405  1  0.11961989  0.50441797  0.00789653  1
  O  O406  1  0.11678684  0.50589844  0.50452688  1
  O  O407  1  0.62322488  0.00943470  0.00684660  1
  O  O408  1  0.62552734  0.01266740  0.50554598  1
  O  O409  1  0.61242219  0.49522018  0.00088910  1
  O  O410  1  0.61417405  0.50114839  0.50764866  1
  O  O411  1  0.38251863  0.36421547  0.11825464  1
  O  O412  1  0.36744968  0.37003893  0.61885530  1
  O  O413  1  0.35773321  0.86966128  0.12678594  1
  O  O414  1  0.37044666  0.86624369  0.61338562  1
  O  O415  1  0.86857180  0.37016418  0.11895004  1
  O  O416  1  0.86764741  0.37016203  0.62121619  1
  O  O417  1  0.86313227  0.87961516  0.11602975  1
  O  O418  1  0.87750948  0.87213897  0.61391170  1
  O  O419  1  0.13212901  0.13149531  0.38013037  1
  O  O420  1  0.13900164  0.13701344  0.87398181  1
  O  O421  1  0.13569150  0.61636646  0.38118706  1
  O  O422  1  0.12689866  0.63117607  0.88305918  1
  O  O423  1  0.62872840  0.13566947  0.38138807  1
  O  O424  1  0.62255056  0.12237262  0.87808073  1
  O  O425  1  0.63145922  0.63472037  0.37586106  1
  O  O426  1  0.62047662  0.62544503  0.89149167  1
