# generated using pymatgen
data_V85Zn86O256
_symmetry_space_group_name_H-M   'P 1'
_cell_length_a   16.94457212
_cell_length_b   16.93607625
_cell_length_c   16.93975615
_cell_angle_alpha   89.94333068
_cell_angle_beta   90.01515235
_cell_angle_gamma   89.99950674
_symmetry_Int_Tables_number   1
_chemical_formula_structural   V85Zn86O256
_chemical_formula_sum   'V85 Zn86 O256'
_cell_volume   4861.27661000
_cell_formula_units_Z   1
loop_
 _symmetry_equiv_pos_site_id
 _symmetry_equiv_pos_as_xyz
  1  'x, y, z'
loop_
 _atom_site_type_symbol
 _atom_site_label
 _atom_site_symmetry_multiplicity
 _atom_site_fract_x
 _atom_site_fract_y
 _atom_site_fract_z
 _atom_site_occupancy
  V  V0  1  0.12418136  0.24305078  0.88547249  1
  V  V1  1  0.74586728  0.75583246  -0.00762076  1
  V  V2  1  0.74779180  0.50166737  0.25093001  1
  V  V3  1  0.12358905  0.49973229  0.12256198  1
  V  V4  1  0.49943803  0.37556248  0.37052950  1
  V  V5  1  0.37172170  0.61975967  0.74889370  1
  V  V6  1  0.37967318  0.23397020  0.11914466  1
  V  V7  1  0.62127727  0.36868272  0.75281792  1
  V  V8  1  0.00153448  0.87973135  0.38609009  1
  V  V9  1  0.12613717  0.62465034  0.49775157  1
  V  V10  1  0.37466360  0.37459155  0.49866505  1
  V  V11  1  0.87302655  0.24760659  0.62398687  1
  V  V12  1  0.37437219  0.50098431  0.37423030  1
  V  V13  1  0.24519535  -0.00299965  0.74583121  1
  V  V14  1  0.25038284  0.62591841  0.37013403  1
  V  V15  1  0.88265422  0.37467375  0.49409654  1
  V  V16  1  0.50273302  0.62941831  0.12365736  1
  V  V17  1  0.87606985  -0.01366550  0.88360671  1
  V  V18  1  0.24749401  0.24651785  0.49525917  1
  V  V19  1  0.75955052  0.74614524  0.49646240  1
  V  V20  1  0.74669664  0.37427323  0.62202150  1
  V  V21  1  0.37759914  0.87801106  0.00469955  1
  V  V22  1  0.12631984  0.86944530  0.76215789  1
  V  V23  1  0.73290679  0.88012575  0.12384653  1
  V  V24  1  0.87440585  0.12137301  0.75187214  1
  V  V25  1  0.73910981  0.13261961  0.87683367  1
  V  V26  1  0.25629657  0.01062336  0.25193662  1
  V  V27  1  0.37601315  0.24362036  0.62459500  1
  V  V28  1  0.75352550  0.49756565  0.75088216  1
  V  V29  1  0.88727762  0.74786816  0.62508553  1
  V  V30  1  0.50542828  0.86942727  0.87625239  1
  V  V31  1  0.74984694  0.25004391  0.49507240  1
  V  V32  1  -0.00276398  0.62930271  0.12626833  1
  V  V33  1  0.50054982  0.24453593  0.75634995  1
  V  V34  1  -0.00359005  0.50043134  -0.00246366  1
  V  V35  1  0.38962890  0.87832173  0.49383653  1
  V  V36  1  0.11709172  0.24954832  0.37329798  1
  V  V37  1  0.82717718  0.44294182  0.93581618  1
  V  V38  1  0.12304779  0.87892388  0.24728910  1
  V  V39  1  0.62762596  0.24868203  0.37125848  1
  V  V40  1  0.00135092  0.49799867  0.49185899  1
  V  V41  1  0.12015784  0.37478305  0.24967530  1
  V  V42  1  0.75267320  0.87210124  0.62017504  1
  V  V43  1  0.62815798  0.76574599  0.37394053  1
  V  V44  1  0.87314512  0.50124130  0.37257485  1
  V  V45  1  0.73830443  -0.00408298  0.24817127  1
  V  V46  1  0.37256057  0.49066840  0.87719818  1
  V  V47  1  0.38930334  0.00583550  0.37553387  1
  V  V48  1  0.50563504  0.76385691  0.25636020  1
  V  V49  1  -0.00230002  0.24781930  0.24176177  1
  V  V50  1  0.50217506  0.62219344  0.62249515  1
  V  V51  1  0.24663107  0.37388122  0.62494117  1
  V  V52  1  0.62573203  0.49630768  0.62337270  1
  V  V53  1  0.49372030  0.23806449  0.24607677  1
  V  V54  1  0.12286507  0.37325186  0.75011878  1
  V  V55  1  0.00448591  0.00007314  -0.00244233  1
  V  V56  1  0.62530122  0.86318521  0.75169145  1
  V  V57  1  0.12533772  0.75033156  0.37056674  1
  V  V58  1  0.74760877  -0.00332950  0.74973614  1
  V  V59  1  -0.00367517  0.37552504  0.88170646  1
  V  V60  1  -0.00084021  0.24628655  0.75089760  1
  V  V61  1  0.49351234  0.49551857  0.00145377  1
  V  V62  1  0.50243947  0.49654324  0.49878160  1
  V  V63  1  0.61075321  0.00049218  0.62098090  1
  V  V64  1  0.62666399  0.37475621  0.24295477  1
  V  V65  1  0.37665354  0.62842036  0.24946022  1
  V  V66  1  0.87947035  -0.00022303  0.37566698  1
  V  V67  1  0.25061012  0.87737508  0.12674145  1
  V  V68  1  0.86718697  0.62927886  0.25264527  1
  V  V69  1  0.00736550  0.74565241  0.77325106  1
  V  V70  1  0.12108396  0.01665950  0.12106452  1
  V  V71  1  0.12216010  0.49507695  0.62164793  1
  V  V72  1  0.37893129  0.74938329  0.62379069  1
  V  V73  1  0.87212781  0.76373110  0.12370835  1
  V  V74  1  0.63127980  0.62243084  0.48824272  1
  V  V75  1  0.51241821  0.00394436  0.01264343  1
  V  V76  1  0.25044232  0.75138409  0.49761932  1
  V  V77  1  0.87577923  0.61910585  0.75706633  1
  V  V78  1  0.87045557  0.25422966  0.10965111  1
  V  V79  1  0.26189400  0.37814589  0.11965094  1
  V  V80  1  0.37752752  0.12034237  0.74620877  1
  V  V81  1  0.62497532  0.13682801  0.01055332  1
  V  V82  1  0.61529072  0.63488597  -0.01391797  1
  V  V83  1  0.87764814  0.12298467  0.24164792  1
  V  V84  1  0.37749032  0.00161656  0.87648411  1
  Zn  Zn85  1  0.24611198  0.49982908  0.75415236  1
  Zn  Zn86  1  0.00274935  0.09690662  0.62208399  1
  Zn  Zn87  1  0.62666178  0.50231468  0.12220411  1
  Zn  Zn88  1  0.24418536  0.62703298  0.88033227  1
  Zn  Zn89  1  0.24890627  0.50158864  0.24763772  1
  Zn  Zn90  1  0.75143228  0.12260843  0.37355191  1
  Zn  Zn91  1  0.23861726  0.75639789  -0.00826937  1
  Zn  Zn92  1  0.50413740  0.74223587  0.75841552  1
  Zn  Zn93  1  0.74640074  0.62659961  0.87502017  1
  Zn  Zn94  1  0.49690142  0.36614394  0.88230110  1
  Zn  Zn95  1  0.25231045  0.12660892  0.37343214  1
  Zn  Zn96  1  0.11626789  0.10077290  0.49901154  1
  Zn  Zn97  1  0.00227284  0.62276016  0.62637422  1
  Zn  Zn98  1  0.12034097  0.63970268  -0.00991397  1
  Zn  Zn99  1  0.37796692  0.75531169  0.13132075  1
  Zn  Zn100  1  0.25023542  0.87600438  0.62502756  1
  Zn  Zn101  1  -0.00341212  0.75531883  0.25051087  1
  Zn  Zn102  1  0.25544915  0.24891977  -0.00097056  1
  Zn  Zn103  1  0.91823136  0.92695805  0.54136400  1
  Zn  Zn104  1  0.24294888  0.11862842  0.88186756  1
  Zn  Zn105  1  0.61509137  0.11431817  0.49962576  1
  Zn  Zn106  1  0.75259084  0.37534924  0.11076237  1
  Zn  Zn107  1  0.19321747  0.19159466  0.18617934  1
  Zn  Zn108  1  0.18906160  0.18172567  0.69056285  1
  Zn  Zn109  1  0.18490148  0.69286987  0.17524227  1
  Zn  Zn110  1  0.18640184  0.68823151  0.68532043  1
  Zn  Zn111  1  0.69462734  0.18816261  0.18690136  1
  Zn  Zn112  1  0.68522278  0.18424747  0.68684172  1
  Zn  Zn113  1  0.68578545  0.69176272  0.18699869  1
  Zn  Zn114  1  0.69126716  0.68309228  0.68255638  1
  Zn  Zn115  1  0.31029872  0.31319005  0.30698225  1
  Zn  Zn116  1  0.31009627  0.31046373  0.81224273  1
  Zn  Zn117  1  0.31504905  0.81850678  0.31218078  1
  Zn  Zn118  1  0.31480862  0.81238134  0.81394299  1
  Zn  Zn119  1  0.81526878  0.31526890  0.30802909  1
  Zn  Zn120  1  0.80760875  0.30721646  0.80936877  1
  Zn  Zn121  1  0.81251664  0.81828376  0.31369225  1
  Zn  Zn122  1  0.81395856  0.80810243  0.80932057  1
  Zn  Zn123  1  0.18726006  0.43318707  0.43322479  1
  Zn  Zn124  1  0.18622783  0.43867223  0.93991707  1
  Zn  Zn125  1  0.19670642  0.93476578  0.43148249  1
  Zn  Zn126  1  0.18815653  0.93733782  0.93709347  1
  Zn  Zn127  1  0.69073164  0.43465649  0.43238542  1
  Zn  Zn128  1  0.66316504  0.44146268  0.93574257  1
  Zn  Zn129  1  0.69424274  0.93826968  0.44033938  1
  Zn  Zn130  1  0.68741912  0.93855250  0.93702649  1
  Zn  Zn131  1  0.30867298  0.06355988  0.05818258  1
  Zn  Zn132  1  0.30864825  0.06011927  0.55933383  1
  Zn  Zn133  1  0.31194307  0.56756685  0.06051466  1
  Zn  Zn134  1  0.31123437  0.56142283  0.56192817  1
  Zn  Zn135  1  0.81011222  0.06484039  0.06139367  1
  Zn  Zn136  1  0.80417026  0.06817228  0.56325762  1
  Zn  Zn137  1  0.80347251  0.57450534  0.06947093  1
  Zn  Zn138  1  0.81443157  0.56389721  0.56500338  1
  Zn  Zn139  1  0.44026328  0.44132772  0.18769044  1
  Zn  Zn140  1  0.43718466  0.43301416  0.68784325  1
  Zn  Zn141  1  0.44079431  0.94517972  0.19120160  1
  Zn  Zn142  1  0.43582526  0.93160676  0.68864094  1
  Zn  Zn143  1  0.93596641  0.43380979  0.18549454  1
  Zn  Zn144  1  0.93774111  0.43415601  0.68412593  1
  Zn  Zn145  1  0.94043165  0.94165410  0.18702271  1
  Zn  Zn146  1  0.93838428  0.92729491  0.70857059  1
  Zn  Zn147  1  0.06310083  0.06575328  0.31139426  1
  Zn  Zn148  1  0.05982528  0.05778628  0.81301645  1
  Zn  Zn149  1  0.05889874  0.56237139  0.30925860  1
  Zn  Zn150  1  0.06292869  0.56113776  0.81529893  1
  Zn  Zn151  1  0.56387491  0.06396045  0.31141342  1
  Zn  Zn152  1  0.56042938  0.05679801  0.80970908  1
  Zn  Zn153  1  0.56264177  0.56547714  0.31060053  1
  Zn  Zn154  1  0.55773724  0.55673094  0.81118891  1
  Zn  Zn155  1  0.44157404  0.18345083  0.43881879  1
  Zn  Zn156  1  0.43732171  0.18219381  0.94000553  1
  Zn  Zn157  1  0.44271788  0.68892887  0.43621579  1
  Zn  Zn158  1  0.40885217  0.69601346  0.93010512  1
  Zn  Zn159  1  0.93863835  0.18374861  0.43039827  1
  Zn  Zn160  1  0.93788095  0.17725422  0.93713088  1
  Zn  Zn161  1  0.94128245  0.68709163  0.43539784  1
  Zn  Zn162  1  0.92823670  0.68433155  0.94383238  1
  Zn  Zn163  1  0.05747459  0.31364614  0.06527134  1
  Zn  Zn164  1  0.06371602  0.24326457  0.56560503  1
  Zn  Zn165  1  0.05630108  0.82173159  0.05709230  1
  Zn  Zn166  1  0.08369844  0.92913051  0.57998035  1
  Zn  Zn167  1  0.56268894  0.31100187  0.06425428  1
  Zn  Zn168  1  0.55072919  0.28496376  0.55250345  1
  Zn  Zn169  1  0.55988268  0.81294712  0.06373508  1
  Zn  Zn170  1  0.56687519  0.81015013  0.56188141  1
  O  O171  1  0.13144897  0.11470907  0.12599971  1
  O  O172  1  0.11277182  0.14566650  0.61772165  1
  O  O173  1  0.11208847  0.61405851  0.13135053  1
  O  O174  1  0.12626794  0.61373327  0.61619735  1
  O  O175  1  0.63182606  0.13007231  0.10971969  1
  O  O176  1  0.63086175  0.10245808  0.62807074  1
  O  O177  1  0.61291653  0.62701396  0.12021038  1
  O  O178  1  0.62039299  0.61675849  0.61542832  1
  O  O179  1  0.37847082  0.38105471  0.37649479  1
  O  O180  1  0.37618170  0.38576806  0.86862297  1
  O  O181  1  0.37521597  0.88495079  0.38697315  1
  O  O182  1  0.38318287  0.88685039  0.88376258  1
  O  O183  1  0.87088696  0.38960656  0.38014624  1
  O  O184  1  0.87918563  0.37368413  0.87272357  1
  O  O185  1  0.88809453  0.88489007  0.37118795  1
  O  O186  1  0.86999588  0.88821110  0.87004810  1
  O  O187  1  0.26108002  0.00344562  0.36565158  1
  O  O188  1  0.26074487  -0.00057012  0.86743071  1
  O  O189  1  0.25583311  0.50723028  0.37084027  1
  O  O190  1  0.25798686  0.49996383  0.87429279  1
  O  O191  1  0.75663446  -0.00267639  0.36198686  1
  O  O192  1  0.75700011  0.00292892  0.86503049  1
  O  O193  1  0.75700916  0.49983290  0.36094785  1
  O  O194  1  0.75422437  0.49723321  0.87275766  1
  O  O195  1  0.24220225  0.49200441  0.12448838  1
  O  O196  1  0.24307964  0.48683494  0.62286541  1
  O  O197  1  0.24362810  0.99477674  0.13012345  1
  O  O198  1  0.25735748  0.99798028  0.64175749  1
  O  O199  1  0.74861298  0.49794231  0.13722076  1
  O  O200  1  0.74452113  0.49332996  0.62921279  1
  O  O201  1  0.75482687  0.98810287  0.13357121  1
  O  O202  1  0.75198663  0.99003682  0.63612489  1
  O  O203  1  0.00916332  0.36555540  0.24419351  1
  O  O204  1  0.00296577  0.37012273  0.76224009  1
  O  O205  1  0.01075051  0.87696476  0.25561820  1
  O  O206  1  0.00961590  0.85422105  0.75811888  1
  O  O207  1  0.51148417  0.37290152  0.25185487  1
  O  O208  1  0.50669795  0.36596724  0.75123138  1
  O  O209  1  0.49639827  0.86289805  0.24942870  1
  O  O210  1  0.50821428  0.87086736  0.75770970  1
  O  O211  1  0.50325246  0.13989920  0.24909404  1
  O  O212  1  0.48717375  0.12824753  0.75066795  1
  O  O213  1  0.49473867  0.63232690  0.24383915  1
  O  O214  1  0.49204999  0.62344177  0.74076402  1
  O  O215  1  0.99115821  0.13463143  0.25053785  1
  O  O216  1  0.99125666  0.12996887  0.74690297  1
  O  O217  1  0.98729480  0.62507979  0.23976764  1
  O  O218  1  0.99369054  0.63094497  0.74847948  1
  O  O219  1  0.38216038  0.25134785  0.01560858  1
  O  O220  1  0.36605135  0.25554873  0.50615050  1
  O  O221  1  0.38938961  0.77296445  0.01431546  1
  O  O222  1  0.37268177  0.75668307  0.50146311  1
  O  O223  1  0.87921877  0.24401308  0.01130166  1
  O  O224  1  0.86561074  0.25728321  0.49768796  1
  O  O225  1  0.85963693  0.74370875  0.01350681  1
  O  O226  1  0.86703735  0.74084902  0.50703616  1
  O  O227  1  0.13585620  0.26957427  0.48315939  1
  O  O228  1  0.11758908  0.25338012  0.98633222  1
  O  O229  1  0.13878519  0.74012064  0.48862996  1
  O  O230  1  0.13018357  0.74820456  1.02632454  1
  O  O231  1  0.64427451  0.27188931  0.48509746  1
  O  O232  1  0.61651516  0.23588845  0.99576779  1
  O  O233  1  0.63441566  0.74268795  0.49172766  1
  O  O234  1  0.63028054  0.74439851  1.00395304  1
  O  O235  1  0.48877567  0.25648383  0.13581035  1
  O  O236  1  0.47922895  0.26111317  0.64065885  1
  O  O237  1  0.50110569  0.74542941  0.13790339  1
  O  O238  1  0.49128973  0.74179667  0.62118586  1
  O  O239  1  0.98799956  0.25180239  0.13334216  1
  O  O240  1  0.98660467  0.26613868  0.64496625  1
  O  O241  1  0.98851603  0.74393712  0.12832394  1
  O  O242  1  0.98798700  0.74562672  0.62643160  1
  O  O243  1  0.01110757  0.25029775  0.36182579  1
  O  O244  1  0.00353808  0.25375176  0.86830499  1
  O  O245  1  0.00767022  0.75863432  0.37177685  1
  O  O246  1  -0.00269158  0.74269782  0.87113638  1
  O  O247  1  0.50523354  0.25700111  0.35988703  1
  O  O248  1  0.48934326  0.24986664  0.86089469  1
  O  O249  1  0.51826697  0.74560055  0.37068595  1
  O  O250  1  0.49107254  0.76543554  0.87597997  1
  O  O251  1  0.24518131  0.14011634  0.50172973  1
  O  O252  1  0.25532411  0.13508545  0.99282845  1
  O  O253  1  0.24871486  0.63176758  0.49122608  1
  O  O254  1  0.24348915  0.63420893  1.00418186  1
  O  O255  1  0.74100606  0.13756317  0.49512639  1
  O  O256  1  0.73594123  0.11771302  0.98653034  1
  O  O257  1  0.74257682  0.63388199  0.50585272  1
  O  O258  1  0.73477804  0.63589152  0.99839726  1
  O  O259  1  0.24239928  0.36824171  0.01634271  1
  O  O260  1  0.25604524  0.36832963  0.50503694  1
  O  O261  1  0.26102572  0.87753450  0.00914824  1
  O  O262  1  0.26043783  0.85958524  0.50002843  1
  O  O263  1  0.75368653  0.39169885  -0.00830431  1
  O  O264  1  0.76177569  0.37366928  0.50362719  1
  O  O265  1  0.74351145  0.87147580  0.01400647  1
  O  O266  1  0.75013243  0.86476522  0.51278303  1
  O  O267  1  0.12243919  0.49295527  0.23903306  1
  O  O268  1  0.12116600  0.48618858  0.74373819  1
  O  O269  1  0.13283941  0.99806682  0.24150111  1
  O  O270  1  0.13312287  0.98796676  0.75814548  1
  O  O271  1  0.63121927  0.49438983  0.24877574  1
  O  O272  1  0.63054339  0.49130006  0.74318142  1
  O  O273  1  0.63954082  1.00311912  0.25229916  1
  O  O274  1  0.63154342  0.98798987  0.74070449  1
  O  O275  1  0.37149302  -0.00312466  0.26632067  1
  O  O276  1  0.37221330  0.00318289  0.75664791  1
  O  O277  1  0.37629482  0.51317104  0.25575418  1
  O  O278  1  0.37239629  0.50432505  0.75308822  1
  O  O279  1  0.87044665  0.00710646  0.25567453  1
  O  O280  1  0.86769554  0.00428038  0.75920039  1
  O  O281  1  0.86915476  0.50431963  0.25489251  1
  O  O282  1  0.86734781  0.50640085  0.74260125  1
  O  O283  1  0.13210315  0.36819944  0.35613651  1
  O  O284  1  0.11514863  0.36830041  0.86959369  1
  O  O285  1  0.12169326  0.87219526  0.36369409  1
  O  O286  1  0.14232307  0.86250821  0.86378781  1
  O  O287  1  0.62089092  0.36704449  0.36406279  1
  O  O288  1  0.62009031  0.37327082  0.85723451  1
  O  O289  1  0.62643034  0.86405969  0.38158835  1
  O  O290  1  0.61856896  0.87953422  0.86368390  1
  O  O291  1  0.37545592  0.13587001  0.12542247  1
  O  O292  1  0.36770190  0.13284859  0.63158337  1
  O  O293  1  0.38588691  0.62865748  0.13361233  1
  O  O294  1  0.38222495  0.62792254  0.62719893  1
  O  O295  1  0.86766517  0.13509379  0.13463993  1
  O  O296  1  0.87355519  0.12888181  0.63662067  1
  O  O297  1  0.87867057  0.63541505  0.13434412  1
  O  O298  1  0.87518614  0.63191775  0.63774388  1
  O  O299  1  0.26708861  0.25952896  0.12777629  1
  O  O300  1  0.25560536  0.25909446  0.61939521  1
  O  O301  1  0.25913157  0.76992207  0.13328803  1
  O  O302  1  0.26453895  0.74369997  0.61399588  1
  O  O303  1  0.76514262  0.25544162  0.12538261  1
  O  O304  1  0.75371028  0.25273711  0.61540577  1
  O  O305  1  0.75185910  0.76395354  0.12164589  1
  O  O306  1  0.75934305  0.75497377  0.61839969  1
  O  O307  1  0.24449806  0.24893488  0.37919107  1
  O  O308  1  0.23251573  0.25373613  0.87610415  1
  O  O309  1  0.24755305  0.74550362  0.37805154  1
  O  O310  1  0.29403991  0.73505812  0.89113744  1
  O  O311  1  0.74424252  0.25020868  0.37628928  1
  O  O312  1  0.74870391  0.23111177  0.87012233  1
  O  O313  1  0.74229575  0.75540665  0.38436027  1
  O  O314  1  0.75257293  0.75249234  0.88877498  1
  O  O315  1  -0.00810751  0.10345355  0.00216092  1
  O  O316  1  0.00643067  0.14792262  0.51199748  1
  O  O317  1  -0.00229160  0.61852459  0.01221451  1
  O  O318  1  0.00797056  0.61581702  0.50103959  1
  O  O319  1  0.51388469  0.11293925  -0.00675661  1
  O  O320  1  0.52305945  0.17684745  0.51168026  1
  O  O321  1  0.50045973  0.62602323  0.00690038  1
  O  O322  1  0.50923482  0.61666185  0.50352481  1
  O  O323  1  0.49362416  0.37591713  0.49149193  1
  O  O324  1  0.50928672  0.39073845  0.99950325  1
  O  O325  1  0.48771365  0.86956045  0.50151165  1
  O  O326  1  0.50015097  0.88793098  0.99587824  1
  O  O327  1  0.98461162  0.38189527  0.50238820  1
  O  O328  1  0.99733375  0.38179129  0.98996331  1
  O  O329  1  1.00747628  0.87416585  0.48835473  1
  O  O330  1  0.98855424  0.89732294  1.01196969  1
  O  O331  1  0.49588233  0.49481668  0.37956006  1
  O  O332  1  0.49284086  0.49451506  0.88407697  1
  O  O333  1  0.48923622  1.00537634  0.37576702  1
  O  O334  1  0.49473558  0.99002863  0.88035497  1
  O  O335  1  0.99341538  0.50114249  0.38474985  1
  O  O336  1  0.99774206  0.49255069  0.88885059  1
  O  O337  1  0.99215980  0.99415224  0.37144252  1
  O  O338  1  0.98523299  1.00009802  0.87995637  1
  O  O339  1  0.01695316  0.00289692  0.12421476  1
  O  O340  1  -0.01156383  -0.01721140  0.62074259  1
  O  O341  1  0.00238025  0.50455185  0.11669254  1
  O  O342  1  0.00456193  0.49889138  0.61126379  1
  O  O343  1  0.50095308  0.00094377  0.11108130  1
  O  O344  1  0.51223434  -0.00614300  0.62721105  1
  O  O345  1  0.50048008  0.51074193  0.11767399  1
  O  O346  1  0.50579724  0.50062506  0.61682699  1
  O  O347  1  0.24204296  0.37810687  0.23594686  1
  O  O348  1  0.23975508  0.37474672  0.74195454  1
  O  O349  1  0.24480599  0.88798692  0.24624404  1
  O  O350  1  0.25135743  0.88115387  0.75019781  1
  O  O351  1  0.73858519  0.38206461  0.24913267  1
  O  O352  1  0.74278029  0.37652141  0.74246057  1
  O  O353  1  0.75198151  0.88759998  0.23996990  1
  O  O354  1  0.74448582  0.87674830  0.74153581  1
  O  O355  1  0.25070614  0.11437463  0.25033625  1
  O  O356  1  0.25950856  0.11715305  0.75675595  1
  O  O357  1  0.26007678  0.62625682  0.25001845  1
  O  O358  1  0.26281474  0.62125132  0.74599841  1
  O  O359  1  0.75666667  0.11211507  0.25045421  1
  O  O360  1  0.75331656  0.11504413  0.75620544  1
  O  O361  1  0.75959049  0.61909732  0.24428621  1
  O  O362  1  0.75482361  0.61676179  0.75350609  1
  O  O363  1  0.37266302  0.11064773  0.38603103  1
  O  O364  1  0.37716715  0.11226624  0.86770224  1
  O  O365  1  0.37198452  0.62133757  0.36868926  1
  O  O366  1  0.38119028  0.60714111  0.86072611  1
  O  O367  1  0.87277484  0.11876028  0.36171186  1
  O  O368  1  0.86378618  0.11744312  0.86476419  1
  O  O369  1  0.88023946  0.61329443  0.36574467  1
  O  O370  1  0.86943019  0.62714631  0.86172113  1
  O  O371  1  0.13076626  0.38023003  0.13167873  1
  O  O372  1  0.13115201  0.37495826  0.63368285  1
  O  O373  1  0.13241509  0.88539165  0.13613738  1
  O  O374  1  0.13749387  0.86062224  0.65045929  1
  O  O375  1  0.63065109  0.37816928  0.12996495  1
  O  O376  1  0.63024662  0.37788902  0.63115836  1
  O  O377  1  0.63471407  0.87509482  0.12894146  1
  O  O378  1  0.63274453  0.88090893  0.62990973  1
  O  O379  1  0.11867040  0.25465921  0.25081304  1
  O  O380  1  0.11657122  0.25860336  0.75764271  1
  O  O381  1  0.12435585  0.76108116  0.25254352  1
  O  O382  1  0.11144011  0.74512757  0.75221482  1
  O  O383  1  0.61920726  0.25611379  0.25211864  1
  O  O384  1  0.61185242  0.25449947  0.73953139  1
  O  O385  1  0.62289824  0.74660492  0.26700524  1
  O  O386  1  0.62376987  0.75901895  0.74085389  1
  O  O387  1  0.38795695  0.25444465  0.24160651  1
  O  O388  1  0.37441054  0.23934052  0.74399336  1
  O  O389  1  0.38498074  0.74230952  0.25544558  1
  O  O390  1  0.38003391  0.74059248  0.73785730  1
  O  O391  1  0.88201438  0.24330112  0.24652960  1
  O  O392  1  0.87923365  0.23944146  0.74779396  1
  O  O393  1  0.87286385  0.74334683  0.24591693  1
  O  O394  1  0.88674619  0.74279441  0.74582819  1
  O  O395  1  0.38084653  0.49406415  0.49417866  1
  O  O396  1  0.38351614  0.50552568  0.99157693  1
  O  O397  1  0.37018852  0.98668511  0.49149942  1
  O  O398  1  0.38639983  0.99609482  0.99469770  1
  O  O399  1  0.87979709  0.49746179  0.49218012  1
  O  O400  1  0.87767526  0.50862476  1.00242472  1
  O  O401  1  0.86292625  1.00678912  0.48268423  1
  O  O402  1  0.87279936  1.00225442  0.98613810  1
  O  O403  1  0.12053916  -0.00327592  0.01157419  1
  O  O404  1  0.14023355  -0.00800670  0.50778897  1
  O  O405  1  0.11376983  0.49843248  0.01176346  1
  O  O406  1  0.11773601  0.50068449  0.49928949  1
  O  O407  1  0.61562413  0.00713972  -0.00221367  1
  O  O408  1  0.62971731  -0.00222609  0.51506789  1
  O  O409  1  0.61147776  0.51677588  0.00304740  1
  O  O410  1  0.62369938  0.50386765  0.50148484  1
  O  O411  1  0.36328420  0.37816383  0.12902221  1
  O  O412  1  0.36417224  0.36926019  0.62025469  1
  O  O413  1  0.36782253  0.88499039  0.12100090  1
  O  O414  1  0.37352493  0.86578738  0.61395078  1
  O  O415  1  0.87220896  0.36021088  0.12438434  1
  O  O416  1  0.86536022  0.36819131  0.61701078  1
  O  O417  1  0.86871859  0.86556910  0.13409195  1
  O  O418  1  0.86807290  0.86506351  0.62873990  1
  O  O419  1  0.12858784  0.13539492  0.37963721  1
  O  O420  1  0.12219964  0.14039521  0.86700649  1
  O  O421  1  0.13048106  0.62879761  0.37526587  1
  O  O422  1  0.13005000  0.62091729  0.87800835  1
  O  O423  1  0.62688832  0.13904761  0.37586781  1
  O  O424  1  0.63670793  0.11690615  0.87350354  1
  O  O425  1  0.62569620  0.62741022  0.38623391  1
  O  O426  1  0.62202805  0.62406246  0.88286114  1
