# generated using pymatgen
data_V85Zn86O256
_symmetry_space_group_name_H-M   'P 1'
_cell_length_a   16.95270332
_cell_length_b   16.97246326
_cell_length_c   16.95573785
_cell_angle_alpha   89.97908642
_cell_angle_beta   90.00206933
_cell_angle_gamma   89.99570386
_symmetry_Int_Tables_number   1
_chemical_formula_structural   V85Zn86O256
_chemical_formula_sum   'V85 Zn86 O256'
_cell_volume   4878.65942887
_cell_formula_units_Z   1
loop_
 _symmetry_equiv_pos_site_id
 _symmetry_equiv_pos_as_xyz
  1  'x, y, z'
loop_
 _atom_site_type_symbol
 _atom_site_label
 _atom_site_symmetry_multiplicity
 _atom_site_fract_x
 _atom_site_fract_y
 _atom_site_fract_z
 _atom_site_occupancy
  V  V0  1  0.76222412  0.76037949  0.00916205  1
  V  V1  1  0.62476535  0.87465143  0.74843873  1
  V  V2  1  0.74983639  0.12641830  0.88443607  1
  V  V3  1  0.12132496  0.12465123  0.00254343  1
  V  V4  1  0.37044325  0.36882517  0.49874936  1
  V  V5  1  0.11767654  0.36918544  0.74961930  1
  V  V6  1  0.49958216  0.62473840  0.13001479  1
  V  V7  1  0.74994064  0.49908349  0.23813658  1
  V  V8  1  -0.00764774  0.87452304  0.88130677  1
  V  V9  1  0.62948160  0.37323655  0.75291095  1
  V  V10  1  0.75032178  0.62711084  0.37545038  1
  V  V11  1  0.37652909  0.74945680  0.62564444  1
  V  V12  1  0.25424992  -0.00397363  0.75463826  1
  V  V13  1  0.49325755  0.88101106  0.87390895  1
  V  V14  1  0.12433566  0.87850406  0.25059772  1
  V  V15  1  0.62387230  0.74880675  0.87404597  1
  V  V16  1  0.62431257  0.62829111  0.00325227  1
  V  V17  1  0.43201457  0.18283664  0.29817316  1
  V  V18  1  0.12460316  0.87476753  0.75059788  1
  V  V19  1  0.38021920  0.87631865  0.49602043  1
  V  V20  1  0.12371651  0.74704218  0.88069982  1
  V  V21  1  0.00226145  0.24474472  0.25876444  1
  V  V22  1  -0.00067764  0.61112780  0.12061861  1
  V  V23  1  -0.00039449  0.75325408  0.23795271  1
  V  V24  1  0.87466402  0.24926341  0.62398401  1
  V  V25  1  0.12215647  0.62420629  0.49868163  1
  V  V26  1  0.11958370  0.37612347  0.24840028  1
  V  V27  1  0.24687884  0.62324445  0.37106664  1
  V  V28  1  0.75227938  0.37045474  0.61841334  1
  V  V29  1  -0.00105559  0.75087594  0.75038221  1
  V  V30  1  0.50323366  0.00350960  0.50175096  1
  V  V31  1  0.37272750  0.62491942  0.24652831  1
  V  V32  1  0.12339553  0.75188967  0.37208418  1
  V  V33  1  0.49828060  0.74826841  0.74414220  1
  V  V34  1  0.11636432  0.24573875  0.87142195  1
  V  V35  1  0.74940634  0.25476425  0.01134763  1
  V  V36  1  0.37257382  0.88817715  -0.00227207  1
  V  V37  1  -0.00547054  -0.00187316  0.00910457  1
  V  V38  1  0.62913823  0.50514132  0.62725442  1
  V  V39  1  0.37497410  0.75384386  0.12106554  1
  V  V40  1  0.75081336  0.89338881  0.13265178  1
  V  V41  1  0.37963708  -0.00233118  0.37151255  1
  V  V42  1  0.25361785  0.00645752  0.25130100  1
  V  V43  1  0.62510083  0.48850542  0.12192467  1
  V  V44  1  0.37346736  0.24498373  0.11631896  1
  V  V45  1  0.61276826  0.62481407  0.50296519  1
  V  V46  1  0.87135809  0.00031584  0.37414461  1
  V  V47  1  0.87417544  0.75153336  0.62340649  1
  V  V48  1  0.88722631  0.49983037  0.88003040  1
  V  V49  1  0.88029141  0.13135675  0.75420269  1
  V  V50  1  0.74814848  0.75120060  0.49850459  1
  V  V51  1  0.24402917  0.36201376  0.62077390  1
  V  V52  1  0.87935311  0.37871937  0.00615300  1
  V  V53  1  0.25615471  0.12181493  0.87681022  1
  V  V54  1  0.75312698  0.62475745  0.87825175  1
  V  V55  1  0.12531199  0.49854500  0.62585265  1
  V  V56  1  0.87530609  0.12069099  0.24678244  1
  V  V57  1  -0.00091694  0.62527397  0.62392685  1
  V  V58  1  0.75096049  0.00139450  0.75115772  1
  V  V59  1  0.87543962  0.62450402  0.75115149  1
  V  V60  1  0.25015774  0.75154123  0.49865617  1
  V  V61  1  0.24592624  0.13722539  0.37749260  1
  V  V62  1  0.87489585  0.63337905  0.24525702  1
  V  V63  1  0.74988487  0.87694631  0.62078841  1
  V  V64  1  0.44047199  0.57326785  0.68269574  1
  V  V65  1  0.38202062  0.11727928  0.74681291  1
  V  V66  1  0.24326106  0.50073159  0.23662675  1
  V  V67  1  0.75014885  0.13928471  0.37828821  1
  V  V68  1  0.12876258  0.13849247  0.49898119  1
  V  V69  1  0.12217708  0.00545075  0.12806669  1
  V  V70  1  -0.00937469  0.49698186  0.49753202  1
  V  V71  1  0.87599569  -0.00021386  0.87846588  1
  V  V72  1  0.00401608  -0.00218870  0.50000362  1
  V  V73  1  0.63286968  0.13878805  0.50633450  1
  V  V74  1  0.50071857  0.23943619  0.74851859  1
  V  V75  1  0.37431962  0.49481775  0.37624701  1
  V  V76  1  0.62775415  0.25113169  0.88239543  1
  V  V77  1  0.48802214  0.37748062  0.87734310  1
  V  V78  1  0.12376897  0.60775908  0.00177706  1
  V  V79  1  0.26088709  0.61906073  0.86994368  1
  V  V80  1  0.88180000  0.25031022  0.12859571  1
  V  V81  1  0.61922160  0.00520210  0.62678230  1
  V  V82  1  0.51207745  0.12888025  0.11514671  1
  V  V83  1  0.00300633  0.12858851  0.63086715  1
  V  V84  1  0.61374033  0.74879659  0.36871249  1
  Zn  Zn85  1  0.12610420  -0.00071611  0.62536700  1
  Zn  Zn86  1  0.37119135  0.24115699  0.62214617  1
  Zn  Zn87  1  0.86926151  0.35769549  0.48371972  1
  Zn  Zn88  1  0.87469555  0.87584757  0.49727510  1
  Zn  Zn89  1  0.00054841  0.37189831  0.87721691  1
  Zn  Zn90  1  0.24337551  0.37441313  0.11976120  1
  Zn  Zn91  1  0.24911798  0.75144984  -0.00026387  1
  Zn  Zn92  1  0.58246871  0.31557643  0.30640154  1
  Zn  Zn93  1  0.36528749  0.38343443  -0.00098082  1
  Zn  Zn94  1  0.49224804  0.50542618  -0.00508997  1
  Zn  Zn95  1  0.75410092  0.49768102  0.75362924  1
  Zn  Zn96  1  0.49505555  0.76385808  0.25103335  1
  Zn  Zn97  1  0.25026559  0.87743456  0.12338087  1
  Zn  Zn98  1  0.53072057  0.45881329  0.46095024  1
  Zn  Zn99  1  -0.00335910  0.37255085  0.37436017  1
  Zn  Zn100  1  0.25838314  0.49919883  0.74946933  1
  Zn  Zn101  1  0.51536313  -0.00069078  0.00968852  1
  Zn  Zn102  1  0.87474862  0.49546396  0.36754379  1
  Zn  Zn103  1  0.24929490  0.87443179  0.62488935  1
  Zn  Zn104  1  0.61807509  0.90055334  0.23727185  1
  Zn  Zn105  1  -0.00422756  0.87363612  0.37370782  1
  Zn  Zn106  1  0.24546775  0.25186066  -0.00148829  1
  Zn  Zn107  1  0.18568014  0.18917942  0.18953865  1
  Zn  Zn108  1  0.18605338  0.18303716  0.69185425  1
  Zn  Zn109  1  0.18582174  0.68929259  0.18168773  1
  Zn  Zn110  1  0.18945835  0.68699068  0.68931799  1
  Zn  Zn111  1  0.68845393  0.19275043  0.19752880  1
  Zn  Zn112  1  0.69099024  0.18723527  0.69142604  1
  Zn  Zn113  1  0.68638880  0.68904004  0.18630155  1
  Zn  Zn114  1  0.68917318  0.68727030  0.68819634  1
  Zn  Zn115  1  0.30626965  0.31954647  0.31041994  1
  Zn  Zn116  1  0.30507493  0.30525254  0.80680115  1
  Zn  Zn117  1  0.31283762  0.81580836  0.30974011  1
  Zn  Zn118  1  0.31163737  0.80615657  0.81379144  1
  Zn  Zn119  1  0.79053622  0.30727320  0.30703715  1
  Zn  Zn120  1  0.81483110  0.31222948  0.81448468  1
  Zn  Zn121  1  0.80955258  0.81521967  0.30774149  1
  Zn  Zn122  1  0.81099557  0.81115603  0.81350662  1
  Zn  Zn123  1  0.18393584  0.43289626  0.43410720  1
  Zn  Zn124  1  0.19059357  0.43544617  0.93267008  1
  Zn  Zn125  1  0.18995725  0.94036330  0.43609594  1
  Zn  Zn126  1  0.18572368  0.93755548  0.93744748  1
  Zn  Zn127  1  0.69823094  0.43974692  0.43399098  1
  Zn  Zn128  1  0.69152238  0.43761965  0.94189989  1
  Zn  Zn129  1  0.67739331  0.94803812  0.41561885  1
  Zn  Zn130  1  0.68385693  0.93654578  0.94036894  1
  Zn  Zn131  1  0.31378255  0.06641248  0.06638108  1
  Zn  Zn132  1  0.30855453  0.05971332  0.56679216  1
  Zn  Zn133  1  0.31376236  0.56310398  0.05509545  1
  Zn  Zn134  1  0.30422382  0.55483133  0.55528367  1
  Zn  Zn135  1  0.81136679  0.06295965  0.06497482  1
  Zn  Zn136  1  0.81384586  0.06159469  0.56228207  1
  Zn  Zn137  1  0.81641273  0.56688438  0.06095412  1
  Zn  Zn138  1  0.80916903  0.56287225  0.56348764  1
  Zn  Zn139  1  0.43620869  0.43016391  0.18334079  1
  Zn  Zn140  1  0.44085573  0.41114039  0.68229347  1
  Zn  Zn141  1  0.44103364  0.94300609  0.18538999  1
  Zn  Zn142  1  0.43687726  0.93542009  0.68682174  1
  Zn  Zn143  1  0.93304444  0.43534497  0.18827610  1
  Zn  Zn144  1  0.93711147  0.43726119  0.68900998  1
  Zn  Zn145  1  0.92877362  0.93413169  0.18566063  1
  Zn  Zn146  1  0.93757573  0.94097498  0.68772491  1
  Zn  Zn147  1  0.05951801  0.06547576  0.31591782  1
  Zn  Zn148  1  0.06400931  0.05936752  0.81566258  1
  Zn  Zn149  1  0.06074722  0.55985087  0.30932746  1
  Zn  Zn150  1  0.06594767  0.56207481  0.81058636  1
  Zn  Zn151  1  0.57070556  0.06423812  0.31818856  1
  Zn  Zn152  1  0.56953023  0.05493873  0.83893256  1
  Zn  Zn153  1  0.55868818  0.47661581  0.30174656  1
  Zn  Zn154  1  0.56889905  0.55742203  0.81788926  1
  Zn  Zn155  1  0.44781223  0.19181531  0.46086631  1
  Zn  Zn156  1  0.43759045  0.18780121  0.93616311  1
  Zn  Zn157  1  0.43570501  0.68077619  0.43760043  1
  Zn  Zn158  1  0.43806546  0.69249744  0.93943662  1
  Zn  Zn159  1  0.93960621  0.18378144  0.43801754  1
  Zn  Zn160  1  0.93881852  0.18667458  0.94367699  1
  Zn  Zn161  1  0.93617469  0.68830642  0.43274358  1
  Zn  Zn162  1  0.93906683  0.68667802  0.94233702  1
  Zn  Zn163  1  0.05985361  0.31235850  0.06613739  1
  Zn  Zn164  1  0.05449071  0.31186709  0.56328199  1
  Zn  Zn165  1  0.06295691  0.81587854  0.06371445  1
  Zn  Zn166  1  0.06203834  0.81296534  0.56134483  1
  Zn  Zn167  1  0.55763743  0.30875353  0.06409553  1
  Zn  Zn168  1  0.55950355  0.31355778  0.57012381  1
  Zn  Zn169  1  0.56369662  0.81519546  0.06502652  1
  Zn  Zn170  1  0.56185167  0.81500722  0.55984719  1
  O  O171  1  0.12754626  0.11298484  0.11817252  1
  O  O172  1  0.11993905  0.12243986  0.61732755  1
  O  O173  1  0.11682871  0.62748710  0.10958945  1
  O  O174  1  0.12033625  0.61790203  0.62016610  1
  O  O175  1  0.61025518  0.13995726  0.13292982  1
  O  O176  1  0.63362963  0.11618324  0.61829611  1
  O  O177  1  0.61631061  0.62524984  0.11676639  1
  O  O178  1  0.63358138  0.61217938  0.62058499  1
  O  O179  1  0.36719155  0.38355908  0.38349541  1
  O  O180  1  0.38676055  0.36668804  0.86826660  1
  O  O181  1  0.37052015  0.88319982  0.38718410  1
  O  O182  1  0.38240391  0.85899081  0.88717789  1
  O  O183  1  0.87136664  0.37812781  0.37090438  1
  O  O184  1  0.87852181  0.38429043  0.87890833  1
  O  O185  1  0.87456572  0.88461769  0.37537272  1
  O  O186  1  0.88654911  0.87969889  0.86866192  1
  O  O187  1  0.26290081  0.01013100  0.37288242  1
  O  O188  1  0.24294948  0.00664798  0.86362459  1
  O  O189  1  0.25336577  0.50843530  0.36701945  1
  O  O190  1  0.24614185  0.51405053  0.86848326  1
  O  O191  1  0.77081470  0.01690826  0.39582547  1
  O  O192  1  0.75855884  0.00782392  0.87186404  1
  O  O193  1  0.75126010  0.51534945  0.36149059  1
  O  O194  1  0.75671040  0.51316932  0.87596470  1
  O  O195  1  0.25094692  0.50330429  0.13488491  1
  O  O196  1  0.23802891  0.49275261  0.62719737  1
  O  O197  1  0.24298718  1.00144893  0.13549362  1
  O  O198  1  0.24475417  0.99402829  0.63863170  1
  O  O199  1  0.74254113  0.51301742  0.13113158  1
  O  O200  1  0.74398458  0.49251149  0.63132208  1
  O  O201  1  0.74383602  0.99370509  0.12290641  1
  O  O202  1  0.74364229  0.99420525  0.63073131  1
  O  O203  1  0.00597491  0.36920518  0.24994611  1
  O  O204  1  0.01364593  0.37814685  0.75190258  1
  O  O205  1  0.00505213  0.86801817  0.24915077  1
  O  O206  1  0.00595713  0.87068595  0.75701107  1
  O  O207  1  0.51334545  0.38639936  0.24944660  1
  O  O208  1  0.51141903  0.36488296  0.76018564  1
  O  O209  1  0.50699892  0.87552433  0.24310851  1
  O  O210  1  0.50471876  0.86316536  0.75056322  1
  O  O211  1  0.49865683  0.12337606  0.24776633  1
  O  O212  1  0.49182717  0.12789955  0.76782730  1
  O  O213  1  0.48933329  0.62911426  0.23415848  1
  O  O214  1  0.49793499  0.62664871  0.75127897  1
  O  O215  1  0.99043217  0.13304744  0.25379611  1
  O  O216  1  0.99256150  0.11535822  0.74328262  1
  O  O217  1  0.99684786  0.63054823  0.23795895  1
  O  O218  1  0.99592770  0.63183995  0.74428164  1
  O  O219  1  0.37031569  0.25134051  0.00780147  1
  O  O220  1  0.37183760  0.25937529  0.50457204  1
  O  O221  1  0.37277995  0.75710327  0.01081130  1
  O  O222  1  0.37380226  0.75540994  0.50666678  1
  O  O223  1  0.87055342  0.25364676  0.00931149  1
  O  O224  1  0.88572533  0.24642983  0.51961501  1
  O  O225  1  0.86006144  0.75052554  -0.00549574  1
  O  O226  1  0.86664066  0.75098331  0.50440156  1
  O  O227  1  0.12040071  0.23671952  0.50275709  1
  O  O228  1  0.12313196  0.23886387  0.99584907  1
  O  O229  1  0.12874857  0.74402589  0.49308441  1
  O  O230  1  0.12417017  0.74966082  0.98851167  1
  O  O231  1  0.62004509  0.23718789  0.51124071  1
  O  O232  1  0.63544140  0.25767861  0.99255623  1
  O  O233  1  0.63196398  0.73963884  0.50408526  1
  O  O234  1  0.62953467  0.74087439  0.99267464  1
  O  O235  1  0.48738332  0.24162050  0.12491806  1
  O  O236  1  0.49662021  0.25133059  0.64491522  1
  O  O237  1  0.49110359  0.74353914  0.12340659  1
  O  O238  1  0.49501638  0.75000109  0.63499564  1
  O  O239  1  0.98685853  0.24834396  0.13465483  1
  O  O240  1  0.99563095  0.23532048  0.62935196  1
  O  O241  1  1.00675323  0.74361292  0.13499405  1
  O  O242  1  0.99426191  0.74406704  0.62911817  1
  O  O243  1  -0.00579139  0.25189741  0.36280839  1
  O  O244  1  0.01227127  0.24622473  0.87661415  1
  O  O245  1  0.00807471  0.74923170  0.36254148  1
  O  O246  1  0.00404732  0.75624585  0.87223847  1
  O  O247  1  0.49114568  0.23817755  0.35994018  1
  O  O248  1  0.50959802  0.25726203  0.86967940  1
  O  O249  1  0.50945092  0.74056949  0.37229887  1
  O  O250  1  0.50350599  0.75209728  0.86128712  1
  O  O251  1  0.23606684  0.11927487  0.49591841  1
  O  O252  1  0.23883182  0.12081580  0.99236282  1
  O  O253  1  0.24183544  0.63008725  0.49030197  1
  O  O254  1  0.23531199  0.62699548  0.99101197  1
  O  O255  1  0.73883298  0.12359944  0.50076944  1
  O  O256  1  0.75616270  0.13384220  0.98881720  1
  O  O257  1  0.74641960  0.63080600  0.49239776  1
  O  O258  1  0.74516168  0.63524446  0.99399539  1
  O  O259  1  0.24807549  0.36951898  0.00219137  1
  O  O260  1  0.25303044  0.37836483  0.50987560  1
  O  O261  1  0.25756154  0.87368494  -0.00045307  1
  O  O262  1  0.25709250  0.86813396  0.50166094  1
  O  O263  1  0.76498485  0.36450588  -0.00657309  1
  O  O264  1  0.75604423  0.38162822  0.51408058  1
  O  O265  1  0.74490900  0.86449928  0.00247645  1
  O  O266  1  0.75016130  0.86904903  0.50858722  1
  O  O267  1  0.13075343  0.49064897  0.24994820  1
  O  O268  1  0.12360557  0.49417892  0.73671982  1
  O  O269  1  0.12647607  0.99735466  0.24512453  1
  O  O270  1  0.12988164  0.98855399  0.74978790  1
  O  O271  1  0.64151688  0.51575789  0.23457862  1
  O  O272  1  0.62939754  0.49112942  0.74480359  1
  O  O273  1  0.64151845  0.98243956  0.31050722  1
  O  O274  1  0.63157964  0.99650633  0.74464395  1
  O  O275  1  0.36536375  -0.00367065  0.25954991  1
  O  O276  1  0.36502032  0.00289951  0.74606921  1
  O  O277  1  0.36331482  0.50618811  0.25449349  1
  O  O278  1  0.38193429  0.50724066  0.73296387  1
  O  O279  1  0.88267592  0.00914464  0.26154340  1
  O  O280  1  0.87016560  0.00936327  0.75704760  1
  O  O281  1  0.86689058  0.51635035  0.24436294  1
  O  O282  1  0.87405311  0.50746566  0.75876911  1
  O  O283  1  0.12076471  0.37676553  0.35712212  1
  O  O284  1  0.12329390  0.36502179  0.86682616  1
  O  O285  1  0.12304319  0.87139869  0.36645313  1
  O  O286  1  0.11590987  0.86761932  0.86703731  1
  O  O287  1  0.60417096  0.40354890  0.38556351  1
  O  O288  1  0.62478244  0.36781899  0.86876578  1
  O  O289  1  0.62798016  0.84452496  0.39237062  1
  O  O290  1  0.61601295  0.86408109  0.86550629  1
  O  O291  1  0.38244497  0.13870863  0.12580293  1
  O  O292  1  0.37063374  0.12390567  0.64095894  1
  O  O293  1  0.37955709  0.63409648  0.12528269  1
  O  O294  1  0.37800164  0.62674586  0.61836405  1
  O  O295  1  0.86829381  0.13042869  0.14063164  1
  O  O296  1  0.88164860  0.12884259  0.63434471  1
  O  O297  1  0.89112103  0.62789026  0.12758218  1
  O  O298  1  0.87859526  0.63126852  0.63103314  1
  O  O299  1  0.26131752  0.24520290  0.12303141  1
  O  O300  1  0.24659389  0.25939889  0.62995824  1
  O  O301  1  0.25867175  0.75474483  0.12173630  1
  O  O302  1  0.25851013  0.74852045  0.61778212  1
  O  O303  1  0.75925793  0.24266441  0.11416228  1
  O  O304  1  0.76001057  0.25908015  0.63151427  1
  O  O305  1  0.74837900  0.74964204  0.10988912  1
  O  O306  1  0.75488247  0.75607712  0.61958207  1
  O  O307  1  0.25316491  0.23581159  0.36874947  1
  O  O308  1  0.23801117  0.23780914  0.87576727  1
  O  O309  1  0.24438018  0.74319899  0.37780078  1
  O  O310  1  0.23881462  0.73805346  0.87544116  1
  O  O311  1  0.77475893  0.23263081  0.39895515  1
  O  O312  1  0.74695836  0.24517880  0.88384691  1
  O  O313  1  0.74750437  0.74070306  0.37947125  1
  O  O314  1  0.74498590  0.74183766  0.88158747  1
  O  O315  1  0.01350162  0.11291821  -0.00462673  1
  O  O316  1  0.01208803  0.11818896  0.50696196  1
  O  O317  1  0.00980220  0.62771867  0.01111892  1
  O  O318  1  0.00469498  0.62019130  0.50414233  1
  O  O319  1  0.50172982  0.12873620  0.01130578  1
  O  O320  1  0.51676551  0.11401546  0.50327431  1
  O  O321  1  0.50911630  0.62704976  0.00526724  1
  O  O322  1  0.51260998  0.62539397  0.50282023  1
  O  O323  1  0.47998882  0.37593805  0.51704962  1
  O  O324  1  0.49761573  0.37094590  0.98287545  1
  O  O325  1  0.49250025  0.88935406  0.50351380  1
  O  O326  1  0.49412972  0.87848390  0.99095139  1
  O  O327  1  0.99329567  0.38315706  0.49770243  1
  O  O328  1  0.98531394  0.36848391  0.99679650  1
  O  O329  1  0.99771672  0.88319843  0.49766166  1
  O  O330  1  1.00376449  0.88351745  0.99108007  1
  O  O331  1  0.47726456  0.51851585  0.37466480  1
  O  O332  1  0.50559026  0.48043622  0.87353955  1
  O  O333  1  0.48448761  1.01072557  0.38659267  1
  O  O334  1  0.48273501  0.97788051  0.85381059  1
  O  O335  1  0.99650677  0.50015531  0.38392259  1
  O  O336  1  0.98962449  0.50124912  0.87340284  1
  O  O337  1  0.99175751  0.99915202  0.38487750  1
  O  O338  1  0.99619660  0.99133589  0.88392292  1
  O  O339  1  0.00596453  -0.00632780  0.11617962  1
  O  O340  1  0.00211266  0.01009710  0.61896206  1
  O  O341  1  -0.00039013  0.51326092  0.12868245  1
  O  O342  1  0.00444659  0.50605517  0.61868554  1
  O  O343  1  0.49754229  0.02253686  0.12277967  1
  O  O344  1  0.51320330  -0.00335776  0.62195810  1
  O  O345  1  0.50866837  0.50937639  0.12022793  1
  O  O346  1  0.50455777  0.50631447  0.63597086  1
  O  O347  1  0.23846384  0.38418976  0.24514702  1
  O  O348  1  0.23886245  0.37903098  0.74150365  1
  O  O349  1  0.24172109  0.88907821  0.25127882  1
  O  O350  1  0.24213315  0.87808027  0.75280965  1
  O  O351  1  0.75896250  0.40202260  0.24496109  1
  O  O352  1  0.74088899  0.37433166  0.74529780  1
  O  O353  1  0.74247974  0.87156961  0.23554999  1
  O  O354  1  0.74416234  0.87960773  0.74333213  1
  O  O355  1  0.23876872  0.11269151  0.26169257  1
  O  O356  1  0.25562306  0.11444854  0.75751195  1
  O  O357  1  0.24994814  0.62012913  0.25389967  1
  O  O358  1  0.24568941  0.62190382  0.76476495  1
  O  O359  1  0.75998506  0.12671840  0.27120937  1
  O  O360  1  0.76013169  0.12020247  0.76024731  1
  O  O361  1  0.75942123  0.62749605  0.25442703  1
  O  O362  1  0.75743526  0.62642588  0.76168608  1
  O  O363  1  0.37493429  0.12619640  0.36912734  1
  O  O364  1  0.36158173  0.12843360  0.86883728  1
  O  O365  1  0.35964113  0.62257500  0.36993236  1
  O  O366  1  0.35866180  0.63232669  0.87988976  1
  O  O367  1  0.87327955  0.11850777  0.36954795  1
  O  O368  1  0.87088878  0.12281953  0.87020873  1
  O  O369  1  0.86795924  0.62314772  0.36421496  1
  O  O370  1  0.87093625  0.61977425  0.87365912  1
  O  O371  1  0.12524622  0.37103492  0.13982721  1
  O  O372  1  0.12600914  0.37967697  0.62836377  1
  O  O373  1  0.12768816  0.88724295  0.13222180  1
  O  O374  1  0.12539841  0.87039763  0.64025422  1
  O  O375  1  0.62412696  0.38960362  0.11210253  1
  O  O376  1  0.63163224  0.38373686  0.63235583  1
  O  O377  1  0.63991094  0.87417868  0.12266823  1
  O  O378  1  0.63099314  0.88257103  0.62997749  1
  O  O379  1  0.11271160  0.25807763  0.24647509  1
  O  O380  1  0.12793337  0.25653753  0.75859979  1
  O  O381  1  0.12007190  0.75788434  0.25219002  1
  O  O382  1  0.11885689  0.75390098  0.76071037  1
  O  O383  1  0.67818381  0.26721569  0.27863201  1
  O  O384  1  0.62080545  0.25697865  0.75593296  1
  O  O385  1  0.62216845  0.74411127  0.26467213  1
  O  O386  1  0.61706373  0.75219108  0.75252842  1
  O  O387  1  0.37396999  0.24750210  0.24328054  1
  O  O388  1  0.38268411  0.23767209  0.75001588  1
  O  O389  1  0.37341187  0.74501579  0.23957452  1
  O  O390  1  0.38007222  0.75147191  0.73409960  1
  O  O391  1  0.87800295  0.24304664  0.24389455  1
  O  O392  1  0.87391781  0.23719506  0.74501938  1
  O  O393  1  0.88477601  0.74100720  0.25391664  1
  O  O394  1  0.88078869  0.74455650  0.74534546  1
  O  O395  1  0.36789260  0.48896902  0.48839829  1
  O  O396  1  0.37980380  0.49570274  0.99906151  1
  O  O397  1  0.38075818  0.99442262  0.49822373  1
  O  O398  1  0.37722508  0.98998025  1.00319241  1
  O  O399  1  0.88559152  0.50330961  0.50070054  1
  O  O400  1  0.87046433  0.49173721  0.99250491  1
  O  O401  1  0.89010016  1.00096456  0.49781641  1
  O  O402  1  0.88597395  1.00854907  0.99353220  1
  O  O403  1  0.11811364  0.00352809  0.00884156  1
  O  O404  1  0.11524295  0.00171838  0.50292618  1
  O  O405  1  0.12270486  0.51015233  -0.00540879  1
  O  O406  1  0.11481967  0.50343856  0.50853698  1
  O  O407  1  0.60578429  0.01284435  -0.05493751  1
  O  O408  1  0.61853013  0.00438496  0.50770730  1
  O  O409  1  0.62615598  0.51403291  0.00419444  1
  O  O410  1  0.62627759  0.50767284  0.51144825  1
  O  O411  1  0.37027146  0.35844878  0.12310970  1
  O  O412  1  0.35909919  0.36960067  0.61847282  1
  O  O413  1  0.37421758  0.87003047  0.11559109  1
  O  O414  1  0.37332563  0.86569713  0.61370437  1
  O  O415  1  0.87533983  0.36514499  0.11824363  1
  O  O416  1  0.86772317  0.36499387  0.63096732  1
  O  O417  1  0.85286219  0.87780107  0.12328964  1
  O  O418  1  0.86833267  0.86920256  0.62529462  1
  O  O419  1  0.13155896  0.12055836  0.39088813  1
  O  O420  1  0.13215504  0.12778355  0.88100344  1
  O  O421  1  0.13243817  0.62894131  0.37646782  1
  O  O422  1  0.12353122  0.63082718  0.88586263  1
  O  O423  1  0.64154581  0.13097157  0.39165916  1
  O  O424  1  0.63930231  0.14500630  0.86339553  1
  O  O425  1  0.63567251  0.63589082  0.38892593  1
  O  O426  1  0.63382056  0.62867338  0.88134475  1
