# generated using pymatgen
data_V85Zn86O256
_symmetry_space_group_name_H-M   'P 1'
_cell_length_a   16.93553767
_cell_length_b   16.94143906
_cell_length_c   16.94982674
_cell_angle_alpha   90.01641977
_cell_angle_beta   89.98381452
_cell_angle_gamma   89.98816202
_symmetry_Int_Tables_number   1
_chemical_formula_structural   V85Zn86O256
_chemical_formula_sum   'V85 Zn86 O256'
_cell_volume   4863.11462271
_cell_formula_units_Z   1
loop_
 _symmetry_equiv_pos_site_id
 _symmetry_equiv_pos_as_xyz
  1  'x, y, z'
loop_
 _atom_site_type_symbol
 _atom_site_label
 _atom_site_symmetry_multiplicity
 _atom_site_fract_x
 _atom_site_fract_y
 _atom_site_fract_z
 _atom_site_occupancy
  V  V0  1  0.62692807  0.37810001  0.25034229  1
  V  V1  1  0.25780198  0.12847079  0.37356706  1
  V  V2  1  0.62255848  -0.00623904  0.13231857  1
  V  V3  1  0.62579166  0.24658383  0.87841597  1
  V  V4  1  -0.00253676  0.11937165  0.12843642  1
  V  V5  1  0.62790093  0.63389568  -0.00047172  1
  V  V6  1  0.37457318  0.62476633  0.25623001  1
  V  V7  1  0.00019867  0.12449172  0.62529096  1
  V  V8  1  0.25340225  0.00630437  0.24939878  1
  V  V9  1  0.24863561  0.24163485  -0.00544885  1
  V  V10  1  -0.00210044  0.25056309  0.75062120  1
  V  V11  1  0.62469054  0.37421378  0.74937868  1
  V  V12  1  0.75049125  0.87160617  0.11445719  1
  V  V13  1  0.12939917  -0.00163709  0.62654015  1
  V  V14  1  0.87563282  0.62019815  0.75318032  1
  V  V15  1  0.36954691  0.12382910  0.75408310  1
  V  V16  1  0.00055597  0.75028683  0.75008797  1
  V  V17  1  0.13122674  0.25418423  0.37732864  1
  V  V18  1  -0.00614726  0.74767572  0.25043039  1
  V  V19  1  0.87388217  0.37829816  0.49757119  1
  V  V20  1  0.49924302  0.24664631  0.74863728  1
  V  V21  1  0.49543570  0.25025133  0.25045827  1
  V  V22  1  0.24448654  0.88085494  0.12592355  1
  V  V23  1  0.37191147  0.24454105  0.12895120  1
  V  V24  1  -0.00448553  -0.00300372  0.50070257  1
  V  V25  1  0.75061403  0.51634336  0.25611232  1
  V  V26  1  0.25063323  0.50464418  0.24299002  1
  V  V27  1  -0.01449167  0.37791170  0.87943137  1
  V  V28  1  0.49953578  0.12482579  0.12628669  1
  V  V29  1  0.87282533  0.75423469  0.11316830  1
  V  V30  1  0.49957081  0.37613290  0.87480254  1
  V  V31  1  -0.01960412  -0.00370430  -0.00062227  1
  V  V32  1  0.36911069  0.74938052  0.62038459  1
  V  V33  1  0.49579541  0.74873342  0.75051721  1
  V  V34  1  0.37846202  0.87530389  -0.00020035  1
  V  V35  1  0.75544110  -0.00041139  0.24771776  1
  V  V36  1  0.62279934  0.12730108  0.49657053  1
  V  V37  1  0.00323250  0.37788803  0.37503480  1
  V  V38  1  0.37536219  0.00313938  0.87523971  1
  V  V39  1  0.01030553  0.50400128  0.50409150  1
  V  V40  1  0.36677752  0.24884739  0.62383241  1
  V  V41  1  0.37494485  0.37430681  -0.00140289  1
  V  V42  1  0.50368038  0.76198952  0.25958794  1
  V  V43  1  0.25455792  0.62573933  0.87237310  1
  V  V44  1  0.87562286  0.74849787  0.62084519  1
  V  V45  1  0.13460629  0.73829385  0.38501920  1
  V  V46  1  0.88342616  0.01305677  0.36624574  1
  V  V47  1  0.35944894  0.87721698  0.49357274  1
  V  V48  1  0.12449201  0.11326760  0.00039713  1
  V  V49  1  0.37314363  0.36968950  0.50100970  1
  V  V50  1  0.87404421  0.24984230  0.62385013  1
  V  V51  1  -0.00676732  0.24562858  0.25118342  1
  V  V52  1  0.25028598  0.74871537  0.00188761  1
  V  V53  1  0.12489993  0.75513754  0.87595783  1
  V  V54  1  0.35479977  0.51362090  0.39827849  1
  V  V55  1  0.13143166  0.12914646  0.49989288  1
  V  V56  1  0.87254723  0.51719240  0.37437303  1
  V  V57  1  0.01469315  0.62207175  0.62375215  1
  V  V58  1  0.12482008  0.24817250  0.87579636  1
  V  V59  1  0.75672818  0.74734162  0.49065123  1
  V  V60  1  -0.01799175  0.49691562  -0.00189713  1
  V  V61  1  -0.00922777  0.62411927  0.12839485  1
  V  V62  1  0.24647567  0.37235747  0.12105332  1
  V  V63  1  -0.01608669  0.87770249  0.87781947  1
  V  V64  1  0.12241680  0.62303932  0.00098387  1
  V  V65  1  0.74953812  0.37549053  0.62436220  1
  V  V66  1  0.37544333  0.50323657  0.86953425  1
  V  V67  1  0.12133114  0.50006446  0.12072609  1
  V  V68  1  0.62743557  0.50404591  0.62585417  1
  V  V69  1  0.62631185  0.25304077  0.37428591  1
  V  V70  1  0.75709295  0.88060655  0.62449565  1
  V  V71  1  0.24408039  0.49822421  0.74567576  1
  V  V72  1  0.62213693  0.50118893  0.12436913  1
  V  V73  1  0.49848274  0.11586069  0.62389437  1
  V  V74  1  0.75803742  0.25170890  -0.00067474  1
  V  V75  1  0.62941444  0.87709291  0.75028856  1
  V  V76  1  0.49816871  0.62544098  0.62682131  1
  V  V77  1  0.12401945  0.87791566  0.25038995  1
  V  V78  1  0.63026945  0.62561911  0.48919202  1
  V  V79  1  -0.00408715  0.87441181  0.37763599  1
  V  V80  1  0.37449265  0.74874230  0.12878432  1
  V  V81  1  0.86801255  0.11194691  0.75299336  1
  V  V82  1  0.75826452  0.37589787  0.12283739  1
  V  V83  1  0.55266943  -0.05992719  0.43879798  1
  V  V84  1  0.75367168  0.50002599  0.76195542  1
  Zn  Zn85  1  0.62817304  0.75847188  0.37180418  1
  Zn  Zn86  1  0.37977457  0.00117895  0.37618612  1
  Zn  Zn87  1  0.76370744  0.10799537  0.88366920  1
  Zn  Zn88  1  0.49993311  0.00034019  0.00203501  1
  Zn  Zn89  1  0.49947313  0.62600929  0.12627485  1
  Zn  Zn90  1  0.11956016  0.38038039  0.74643785  1
  Zn  Zn91  1  0.24758589  0.00020976  0.75606061  1
  Zn  Zn92  1  0.50629644  0.49690370  0.49757467  1
  Zn  Zn93  1  0.50083099  0.87231342  0.87438454  1
  Zn  Zn94  1  0.75604728  0.12992232  0.36664291  1
  Zn  Zn95  1  0.62891491  0.12173982  0.00349912  1
  Zn  Zn96  1  0.12609371  0.87813337  0.75198522  1
  Zn  Zn97  1  0.62584993  -0.00172743  0.62007342  1
  Zn  Zn98  1  0.24643643  0.86857053  0.62752440  1
  Zn  Zn99  1  0.62996672  0.74900824  0.87466596  1
  Zn  Zn100  1  0.49612722  0.38269156  0.37483680  1
  Zn  Zn101  1  0.50008932  0.50180222  -0.00039934  1
  Zn  Zn102  1  0.23918698  0.37520549  0.61844791  1
  Zn  Zn103  1  0.76202609  0.62770962  0.88779947  1
  Zn  Zn104  1  0.87529408  0.24868321  0.12614499  1
  Zn  Zn105  1  0.12438374  0.37608571  0.24957016  1
  Zn  Zn106  1  0.75146956  0.24781363  0.49804660  1
  Zn  Zn107  1  0.17869240  0.18655137  0.18799231  1
  Zn  Zn108  1  0.18662013  0.18747258  0.68910644  1
  Zn  Zn109  1  0.18277744  0.68899680  0.19248394  1
  Zn  Zn110  1  0.19032864  0.68618832  0.69344584  1
  Zn  Zn111  1  0.68849828  0.18588061  0.18749128  1
  Zn  Zn112  1  0.68708693  0.18551834  0.68583710  1
  Zn  Zn113  1  0.68368511  0.69305486  0.18588446  1
  Zn  Zn114  1  0.68997444  0.68911262  0.68905778  1
  Zn  Zn115  1  0.31075782  0.32020023  0.31346454  1
  Zn  Zn116  1  0.31108601  0.31312486  0.81151478  1
  Zn  Zn117  1  0.31065505  0.81270439  0.31427033  1
  Zn  Zn118  1  0.31350956  0.81562886  0.80899137  1
  Zn  Zn119  1  0.81240958  0.31829023  0.31234642  1
  Zn  Zn120  1  0.81018212  0.30692914  0.81202662  1
  Zn  Zn121  1  0.81590251  0.81961840  0.30688251  1
  Zn  Zn122  1  0.80844695  0.80608874  0.81180440  1
  Zn  Zn123  1  0.19686252  0.45381630  0.44202062  1
  Zn  Zn124  1  0.18180005  0.43477861  0.93403616  1
  Zn  Zn125  1  0.18335656  0.93908026  0.43464174  1
  Zn  Zn126  1  0.19233860  0.93690643  0.93577177  1
  Zn  Zn127  1  0.68967962  0.43967392  0.43663217  1
  Zn  Zn128  1  0.68757792  0.43740984  0.94112760  1
  Zn  Zn129  1  0.71663280  0.93564791  0.44006469  1
  Zn  Zn130  1  0.68683502  0.93740057  0.94084428  1
  Zn  Zn131  1  0.31198695  0.06230238  0.06318845  1
  Zn  Zn132  1  0.31329206  0.05977570  0.55877852  1
  Zn  Zn133  1  0.31486268  0.56312267  0.05994103  1
  Zn  Zn134  1  0.31589076  0.56158667  0.56391807  1
  Zn  Zn135  1  0.81127418  0.06643262  0.06822718  1
  Zn  Zn136  1  0.81372182  0.06412898  0.55885568  1
  Zn  Zn137  1  0.80827427  0.56538792  0.07067665  1
  Zn  Zn138  1  0.81560058  0.56475650  0.56488854  1
  Zn  Zn139  1  0.43603142  0.43555503  0.18834879  1
  Zn  Zn140  1  0.43584476  0.43815717  0.68705522  1
  Zn  Zn141  1  0.43138647  0.93879199  0.19080692  1
  Zn  Zn142  1  0.43668064  0.93425044  0.68550620  1
  Zn  Zn143  1  0.93481346  0.44042886  0.19321536  1
  Zn  Zn144  1  0.93976055  0.43829008  0.68679937  1
  Zn  Zn145  1  0.93592727  0.93687485  0.18456553  1
  Zn  Zn146  1  0.94151496  0.93416808  0.68831703  1
  Zn  Zn147  1  0.06994270  0.06366442  0.31095210  1
  Zn  Zn148  1  0.05838464  0.06328728  0.81562909  1
  Zn  Zn149  1  0.06235129  0.56244039  0.31037535  1
  Zn  Zn150  1  0.06123709  0.56377861  0.81609496  1
  Zn  Zn151  1  0.56748932  0.06952275  0.30420500  1
  Zn  Zn152  1  0.58910346  0.04215382  0.83193772  1
  Zn  Zn153  1  0.55206497  0.56349976  0.31378730  1
  Zn  Zn154  1  0.56308838  0.56470314  0.81170959  1
  Zn  Zn155  1  0.44100584  0.18997309  0.43899795  1
  Zn  Zn156  1  0.43970141  0.18668370  0.93766929  1
  Zn  Zn157  1  0.43932389  0.69067267  0.44109755  1
  Zn  Zn158  1  0.44241544  0.68652699  0.93915370  1
  Zn  Zn159  1  0.94335426  0.18996105  0.43968066  1
  Zn  Zn160  1  0.93768598  0.18492390  0.93718535  1
  Zn  Zn161  1  0.94604954  0.68972977  0.44083933  1
  Zn  Zn162  1  0.93832318  0.68636996  0.93671556  1
  Zn  Zn163  1  0.05951515  0.31011395  0.06075495  1
  Zn  Zn164  1  0.06492334  0.31500179  0.56229690  1
  Zn  Zn165  1  0.06013859  0.81529581  0.06219696  1
  Zn  Zn166  1  0.06363009  0.81218457  0.56039222  1
  Zn  Zn167  1  0.56480675  0.31358732  0.06187888  1
  Zn  Zn168  1  0.55836707  0.31024862  0.56301424  1
  Zn  Zn169  1  0.56229346  0.81334107  0.07103487  1
  Zn  Zn170  1  0.56864967  0.80501979  0.56641359  1
  O  O171  1  0.11016477  0.13176110  0.11170894  1
  O  O172  1  0.11988598  0.12131281  0.61798563  1
  O  O173  1  0.11391137  0.62120695  0.11943584  1
  O  O174  1  0.11382272  0.62970041  0.63014548  1
  O  O175  1  0.61468492  0.11903144  0.12557233  1
  O  O176  1  0.61869870  0.12109422  0.61689407  1
  O  O177  1  0.62343032  0.61813839  0.11744357  1
  O  O178  1  0.62249562  0.61788964  0.61844144  1
  O  O179  1  0.37400134  0.38350895  0.38862581  1
  O  O180  1  0.37969828  0.38113841  0.87986378  1
  O  O181  1  0.37155105  0.87542735  0.38960633  1
  O  O182  1  0.37768820  0.87855424  0.88543095  1
  O  O183  1  0.88195391  0.37959749  0.38551288  1
  O  O184  1  0.88684271  0.37050312  0.87256143  1
  O  O185  1  0.89093102  0.88818697  0.36961522  1
  O  O186  1  0.88490249  0.87078965  0.86849397  1
  O  O187  1  0.24839716  0.01140388  0.36869750  1
  O  O188  1  0.26864590  -0.00308299  0.87518834  1
  O  O189  1  0.25734680  0.47527222  0.34443578  1
  O  O190  1  0.25565962  0.50612586  0.87219642  1
  O  O191  1  0.76649781  0.00298708  0.36673509  1
  O  O192  1  0.69873844  0.01965441  0.86866652  1
  O  O193  1  0.75991549  0.49795357  0.36764375  1
  O  O194  1  0.74650376  0.50301722  0.86462222  1
  O  O195  1  0.24544083  0.49186716  0.12544508  1
  O  O196  1  0.25590003  0.50329810  0.64414214  1
  O  O197  1  0.25335994  0.99136004  0.13316190  1
  O  O198  1  0.23588371  1.00214881  0.62395862  1
  O  O199  1  0.73963964  0.49355222  0.13443359  1
  O  O200  1  0.74062225  0.49509598  0.62993606  1
  O  O201  1  0.74468277  0.99219551  0.12857921  1
  O  O202  1  0.75100217  0.98393546  0.61606653  1
  O  O203  1  0.00085910  0.37220397  0.26305973  1
  O  O204  1  -0.00149482  0.36866441  0.76059325  1
  O  O205  1  0.00776707  0.87106772  0.25329886  1
  O  O206  1  0.00479499  0.86849514  0.76025152  1
  O  O207  1  0.51020773  0.36786329  0.25027698  1
  O  O208  1  0.50552237  0.36887903  0.75391401  1
  O  O209  1  0.49107233  0.86033660  0.25012256  1
  O  O210  1  0.50979010  0.86500082  0.74660355  1
  O  O211  1  0.50099435  0.14074498  0.24038653  1
  O  O212  1  0.48975854  0.13267331  0.73975430  1
  O  O213  1  0.48897977  0.63475422  0.24557909  1
  O  O214  1  0.50740850  0.63256616  0.73624460  1
  O  O215  1  1.00936791  0.13247675  0.24099638  1
  O  O216  1  0.99103884  0.13189341  0.74463189  1
  O  O217  1  1.00451252  0.63423478  0.23908609  1
  O  O218  1  0.99548722  0.62823816  0.74420988  1
  O  O219  1  0.36572881  0.25354134  0.00517489  1
  O  O220  1  0.37878308  0.26111634  0.50768667  1
  O  O221  1  0.37015099  0.75451662  0.00876816  1
  O  O222  1  0.38091214  0.76529111  0.50720635  1
  O  O223  1  0.86225546  0.24780027  -0.00054947  1
  O  O224  1  0.87466170  0.25880161  0.50456644  1
  O  O225  1  0.87967189  0.74650369  0.01370084  1
  O  O226  1  0.87182685  0.74402322  0.51247435  1
  O  O227  1  0.11837985  0.24110076  0.48922783  1
  O  O228  1  0.13068099  0.24324005  0.99366218  1
  O  O229  1  0.12141289  0.75084733  0.48459619  1
  O  O230  1  0.13054184  0.74493550  0.99573386  1
  O  O231  1  0.62639732  0.24490557  0.49105313  1
  O  O232  1  0.63542222  0.25149020  0.99398385  1
  O  O233  1  0.63604962  0.74219641  0.49497873  1
  O  O234  1  0.61906755  0.73643046  1.00341263  1
  O  O235  1  0.49226648  0.24737773  0.13058732  1
  O  O236  1  0.49055959  0.24165752  0.63089257  1
  O  O237  1  0.48651824  0.75097824  0.13566002  1
  O  O238  1  0.49327948  0.74253996  0.62927705  1
  O  O239  1  0.99726131  0.24541557  0.13381005  1
  O  O240  1  0.99404361  0.24540321  0.63326510  1
  O  O241  1  0.99469135  0.74428693  0.12996590  1
  O  O242  1  0.99437148  0.74415890  0.62876230  1
  O  O243  1  0.00904768  0.25804026  0.37078572  1
  O  O244  1  0.00228866  0.25889509  0.87076371  1
  O  O245  1  0.00307989  0.75843754  0.36774036  1
  O  O246  1  0.00773841  0.75725149  0.87353744  1
  O  O247  1  0.50914580  0.25323819  0.36616315  1
  O  O248  1  0.50083625  0.26143944  0.86928513  1
  O  O249  1  0.50245370  0.74903834  0.36315960  1
  O  O250  1  0.50390942  0.74989260  0.86446198  1
  O  O251  1  0.23795719  0.12180614  0.49259500  1
  O  O252  1  0.24178453  0.13544669  1.00611939  1
  O  O253  1  0.27327613  0.55480493  0.45996548  1
  O  O254  1  0.24426803  0.62974162  0.99232326  1
  O  O255  1  0.73663422  0.12593170  0.49636941  1
  O  O256  1  0.74703839  0.13431872  0.99981352  1
  O  O257  1  0.74338523  0.63522406  0.50668675  1
  O  O258  1  0.73352162  0.61842432  1.00265643  1
  O  O259  1  0.25153550  0.36582996  0.00658455  1
  O  O260  1  0.26724850  0.38154022  0.50355859  1
  O  O261  1  0.25845503  0.86888589  0.00755479  1
  O  O262  1  0.25647808  0.87653238  0.50321488  1
  O  O263  1  0.74553469  0.36811262  0.01177155  1
  O  O264  1  0.75844707  0.37416267  0.50528515  1
  O  O265  1  0.74769828  0.87660654  0.01475023  1
  O  O266  1  0.75466974  0.86239246  0.51634015  1
  O  O267  1  0.13130973  0.49792035  0.23925342  1
  O  O268  1  0.14013518  0.50015187  0.76069268  1
  O  O269  1  0.13438891  0.98545308  0.25404871  1
  O  O270  1  0.12424239  1.00368555  0.74146918  1
  O  O271  1  0.62790671  0.49505636  0.24756871  1
  O  O272  1  0.63315352  0.49557197  0.74410720  1
  O  O273  1  0.63267566  1.00160169  0.23918970  1
  O  O274  1  0.61405705  0.97895991  0.73721076  1
  O  O275  1  0.35885978  -0.00306363  0.25802896  1
  O  O276  1  0.37706688  0.00690521  0.75719911  1
  O  O277  1  0.36863972  0.51032541  0.24699334  1
  O  O278  1  0.36525207  0.49601628  0.76334356  1
  O  O279  1  0.87250787  0.00196467  0.25612389  1
  O  O280  1  0.87893635  0.01369436  0.74321454  1
  O  O281  1  0.86360053  0.49807882  0.26224911  1
  O  O282  1  0.86467429  0.50657547  0.74254889  1
  O  O283  1  0.11913313  0.37102847  0.37709465  1
  O  O284  1  0.11423007  0.36186718  0.87176082  1
  O  O285  1  0.11503577  0.86958672  0.36746522  1
  O  O286  1  0.12221227  0.86335132  0.87885917  1
  O  O287  1  0.62218030  0.37135548  0.36777626  1
  O  O288  1  0.61955993  0.36755235  0.87016199  1
  O  O289  1  0.62092171  0.88282949  0.38856329  1
  O  O290  1  0.62277936  0.86989710  0.86122712  1
  O  O291  1  0.37838756  0.13857973  0.12434411  1
  O  O292  1  0.38047094  0.13049153  0.62624301  1
  O  O293  1  0.37455171  0.63369029  0.13203453  1
  O  O294  1  0.38671110  0.63349978  0.61642621  1
  O  O295  1  0.89144815  0.12941097  0.12201779  1
  O  O296  1  0.88034810  0.13039571  0.63002782  1
  O  O297  1  0.88478972  0.63239109  0.12568150  1
  O  O298  1  0.88274995  0.63157729  0.63486590  1
  O  O299  1  0.25374992  0.25418769  0.11944875  1
  O  O300  1  0.26342536  0.25107162  0.63040625  1
  O  O301  1  0.25861509  0.75577774  0.12382843  1
  O  O302  1  0.26501315  0.74540634  0.63066920  1
  O  O303  1  0.75130793  0.25788856  0.11924667  1
  O  O304  1  0.75614912  0.25806096  0.62310839  1
  O  O305  1  0.75722943  0.76346019  0.13240685  1
  O  O306  1  0.75948410  0.75557770  0.61868568  1
  O  O307  1  0.23873362  0.24638805  0.36675069  1
  O  O308  1  0.24027095  0.25461671  0.88408572  1
  O  O309  1  0.23347116  0.75087652  0.36937270  1
  O  O310  1  0.24575651  0.74349975  0.87907845  1
  O  O311  1  0.73863090  0.25095356  0.37358663  1
  O  O312  1  0.74051912  0.24619278  0.88150547  1
  O  O313  1  0.75245865  0.76244513  0.38676175  1
  O  O314  1  0.74262807  0.73724391  0.86629067  1
  O  O315  1  0.00423707  0.11259294  0.00296446  1
  O  O316  1  0.01024018  0.11933012  0.50629739  1
  O  O317  1  0.00357646  0.61590783  0.00573816  1
  O  O318  1  -0.00336768  0.61642543  0.51271549  1
  O  O319  1  0.49890819  0.12628279  0.01672701  1
  O  O320  1  0.51336536  0.13036707  0.50711786  1
  O  O321  1  0.50993295  0.62072788  0.00711280  1
  O  O322  1  0.51177025  0.62556873  0.51136057  1
  O  O323  1  0.49073067  0.37366470  0.49655052  1
  O  O324  1  0.49423920  0.37672391  0.99274836  1
  O  O325  1  0.50023729  0.87930081  0.50103077  1
  O  O326  1  0.48682913  0.87286532  1.00456014  1
  O  O327  1  0.99265195  0.38010326  0.49108068  1
  O  O328  1  0.99990801  0.38099276  0.98843404  1
  O  O329  1  1.00448259  0.88510601  0.49032061  1
  O  O330  1  1.00155743  0.88911780  0.99535687  1
  O  O331  1  0.47964685  0.50193657  0.37891680  1
  O  O332  1  0.49226272  0.49376356  0.87271999  1
  O  O333  1  0.50072548  1.00064648  0.37287067  1
  O  O334  1  0.49163072  0.99366788  0.88076507  1
  O  O335  1  0.99368986  0.49382301  0.37927156  1
  O  O336  1  1.00214069  0.48633254  0.88247028  1
  O  O337  1  1.00020253  0.99662824  0.37989179  1
  O  O338  1  1.00369505  0.99104598  0.88939638  1
  O  O339  1  -0.00236847  0.00422954  0.11028032  1
  O  O340  1  0.00825734  0.00319227  0.61797202  1
  O  O341  1  0.00020529  0.50555216  0.12007249  1
  O  O342  1  -0.00390972  0.51030383  0.61705292  1
  O  O343  1  0.50293683  0.00849040  0.13197988  1
  O  O344  1  0.49865485  0.01320865  0.62428696  1
  O  O345  1  0.51241732  0.49871069  0.12744553  1
  O  O346  1  0.51301444  0.50632669  0.62895542  1
  O  O347  1  0.24867689  0.37692615  0.23044970  1
  O  O348  1  0.24766757  0.38938746  0.75228613  1
  O  O349  1  0.24361370  0.88018601  0.24359583  1
  O  O350  1  0.24482452  0.88063677  0.74605774  1
  O  O351  1  0.73849695  0.38037460  0.24465939  1
  O  O352  1  0.74545314  0.38068809  0.74511099  1
  O  O353  1  0.75358463  0.89108596  0.24055416  1
  O  O354  1  0.73843822  0.86847995  0.73795796  1
  O  O355  1  0.23959785  0.11736879  0.25848330  1
  O  O356  1  0.26522978  0.12293558  0.74557765  1
  O  O357  1  0.25751595  0.61502300  0.24157739  1
  O  O358  1  0.24843575  0.61506185  0.76552132  1
  O  O359  1  0.74730495  0.10985310  0.24955102  1
  O  O360  1  0.76624519  0.12992066  0.74785503  1
  O  O361  1  0.74359225  0.61495829  0.24631104  1
  O  O362  1  0.75886939  0.61369227  0.74563548  1
  O  O363  1  0.36120932  0.12740878  0.38343157  1
  O  O364  1  0.38241356  0.11748268  0.86572565  1
  O  O365  1  0.37714140  0.62226124  0.36509399  1
  O  O366  1  0.36628457  0.61610693  0.88343151  1
  O  O367  1  0.87819883  0.11704466  0.37829486  1
  O  O368  1  0.87625046  0.12565179  0.85885488  1
  O  O369  1  0.88140590  0.61592204  0.37894728  1
  O  O370  1  0.87918796  0.62608694  0.85894060  1
  O  O371  1  0.13096461  0.38049106  0.12230511  1
  O  O372  1  0.12760882  0.36980878  0.63359457  1
  O  O373  1  0.13730184  0.86774568  0.13212340  1
  O  O374  1  0.12502402  0.88411601  0.62672906  1
  O  O375  1  0.63123069  0.38184455  0.13324136  1
  O  O376  1  0.62834333  0.38197231  0.62964805  1
  O  O377  1  0.63733009  0.87972314  0.12733820  1
  O  O378  1  0.63828620  0.87399522  0.62936858  1
  O  O379  1  0.11345345  0.25568534  0.25855329  1
  O  O380  1  0.11119056  0.24474092  0.75779031  1
  O  O381  1  0.11440703  0.76033348  0.25482283  1
  O  O382  1  0.11898034  0.74995214  0.76116096  1
  O  O383  1  0.61943244  0.25875660  0.25482577  1
  O  O384  1  0.62047882  0.25450139  0.75682598  1
  O  O385  1  0.60917341  0.74922223  0.25319498  1
  O  O386  1  0.61440539  0.75937775  0.74368960  1
  O  O387  1  0.38409506  0.26117618  0.24186605  1
  O  O388  1  0.37934709  0.24457715  0.74454238  1
  O  O389  1  0.37796310  0.74370028  0.24637214  1
  O  O390  1  0.38890657  0.75631441  0.74017753  1
  O  O391  1  0.88928022  0.25454349  0.25369427  1
  O  O392  1  0.88482136  0.24540859  0.74435088  1
  O  O393  1  0.88956083  0.75650207  0.24214378  1
  O  O394  1  0.88219648  0.74164090  0.73923327  1
  O  O395  1  0.38990743  0.48452206  0.50737457  1
  O  O396  1  0.37606177  0.49242539  0.99004544  1
  O  O397  1  0.37508169  0.98344489  0.49727062  1
  O  O398  1  0.37695133  0.99206323  0.99648487  1
  O  O399  1  0.87999057  0.49385423  0.49421568  1
  O  O400  1  0.88299127  0.50488865  1.00469231  1
  O  O401  1  0.89005610  1.00586972  0.49215091  1
  O  O402  1  0.88211083  1.00356879  0.99679383  1
  O  O403  1  0.12755709  0.01185400  -0.00505795  1
  O  O404  1  0.11570542  0.00782386  0.50483238  1
  O  O405  1  0.11713939  0.50446261  0.00420659  1
  O  O406  1  0.10925354  0.49716305  0.49764858  1
  O  O407  1  0.61748695  0.00059275  0.01888073  1
  O  O408  1  0.62170817  0.00227144  0.49353687  1
  O  O409  1  0.62212387  0.50498469  0.01065921  1
  O  O410  1  0.62563000  0.50618035  0.50795187  1
  O  O411  1  0.36810788  0.36584332  0.11764092  1
  O  O412  1  0.37421818  0.36653212  0.61803690  1
  O  O413  1  0.36431987  0.86880252  0.12042541  1
  O  O414  1  0.37200807  0.86837441  0.61349546  1
  O  O415  1  0.86130636  0.37404735  0.13232649  1
  O  O416  1  0.87245938  0.37163710  0.61401682  1
  O  O417  1  0.86241305  0.86865159  0.12530461  1
  O  O418  1  0.86497370  0.86541340  0.63425719  1
  O  O419  1  0.13217527  0.13432986  0.38217257  1
  O  O420  1  0.11510590  0.13898818  0.88496210  1
  O  O421  1  0.11937412  0.63921513  0.37040778  1
  O  O422  1  0.12979674  0.63620453  0.88231986  1
  O  O423  1  0.62597018  0.13611200  0.37987860  1
  O  O424  1  0.60203357  0.14586700  0.88324256  1
  O  O425  1  0.62132305  0.62365435  0.38728628  1
  O  O426  1  0.62224930  0.62206301  0.89217872  1
