# generated using pymatgen
data_V85Zn86O256
_symmetry_space_group_name_H-M   'P 1'
_cell_length_a   16.93199513
_cell_length_b   16.93486624
_cell_length_c   16.92651263
_cell_angle_alpha   89.91457941
_cell_angle_beta   89.96036912
_cell_angle_gamma   89.98472220
_symmetry_Int_Tables_number   1
_chemical_formula_structural   V85Zn86O256
_chemical_formula_sum   'V85 Zn86 O256'
_cell_volume   4853.51966398
_cell_formula_units_Z   1
loop_
 _symmetry_equiv_pos_site_id
 _symmetry_equiv_pos_as_xyz
  1  'x, y, z'
loop_
 _atom_site_type_symbol
 _atom_site_label
 _atom_site_symmetry_multiplicity
 _atom_site_fract_x
 _atom_site_fract_y
 _atom_site_fract_z
 _atom_site_occupancy
  V  V0  1  0.37534290  0.12453589  0.24727037  1
  V  V1  1  0.25180594  0.75620474  0.50061511  1
  V  V2  1  0.62622472  0.24790386  0.87727618  1
  V  V3  1  0.37359404  0.37737555  0.50116672  1
  V  V4  1  0.24457144  0.37181990  0.13045934  1
  V  V5  1  0.75003729  0.62807785  0.37697257  1
  V  V6  1  0.75210544  0.12859741  0.36664302  1
  V  V7  1  0.12351481  0.87690708  0.25050140  1
  V  V8  1  -0.00679323  -0.01233199  -0.00454214  1
  V  V9  1  0.37974405  0.49531272  0.87530268  1
  V  V10  1  0.12278387  0.00229392  0.12278683  1
  V  V11  1  0.86944539  0.12415238  0.74710018  1
  V  V12  1  0.74534718  0.75611048  0.50277430  1
  V  V13  1  0.11990606  0.63094443  0.50270858  1
  V  V14  1  -0.01963053  0.12830655  0.12896911  1
  V  V15  1  0.62479072  0.74532496  0.87635456  1
  V  V16  1  0.37059478  0.00191247  0.86291255  1
  V  V17  1  0.37397829  0.62644192  0.75202739  1
  V  V18  1  0.49878948  0.12317032  0.63304261  1
  V  V19  1  0.37594999  -0.00456644  0.37733411  1
  V  V20  1  0.88076598  0.49217096  0.87475863  1
  V  V21  1  0.12160139  0.37683662  0.74956298  1
  V  V22  1  0.25042438  0.12092342  0.85858286  1
  V  V23  1  0.12473063  0.88217142  0.75561468  1
  V  V24  1  0.25121983  0.87540062  0.12434522  1
  V  V25  1  -0.00295513  0.50310585  0.50212383  1
  V  V26  1  0.25031415  0.12448130  0.37464832  1
  V  V27  1  0.74937562  0.49973169  0.75050544  1
  V  V28  1  0.75907955  0.25056728  0.50254013  1
  V  V29  1  0.11978559  0.25504840  0.87484989  1
  V  V30  1  0.38575585  0.37198296  -0.00240599  1
  V  V31  1  0.50978144  0.51577433  0.01044873  1
  V  V32  1  0.37589760  0.75452356  0.62376862  1
  V  V33  1  0.74310611  0.00200031  0.24470025  1
  V  V34  1  0.75499159  0.87487865  0.12107419  1
  V  V35  1  0.24964212  0.25142645  0.49881144  1
  V  V36  1  0.62222415  0.37518418  0.75352277  1
  V  V37  1  0.50140599  0.37538309  0.37611123  1
  V  V38  1  0.49686343  -0.00373699  0.50329707  1
  V  V39  1  0.00763751  0.62494519  0.11791127  1
  V  V40  1  -0.00019281  0.00289092  0.50045476  1
  V  V41  1  0.75818271  0.37191432  0.62576899  1
  V  V42  1  -0.00077216  0.75106726  0.24962708  1
  V  V43  1  0.87290993  -0.01255928  0.87134125  1
  V  V44  1  -0.00104106  0.87703513  0.37589533  1
  V  V45  1  -0.00489395  0.13154391  0.62392178  1
  V  V46  1  -0.00756594  0.25387697  0.75043875  1
  V  V47  1  0.12355737  0.12358814  -0.00203283  1
  V  V48  1  0.62712878  0.25384490  0.37467888  1
  V  V49  1  0.87764361  0.62452361  0.24871951  1
  V  V50  1  0.74261355  0.37505797  0.12493636  1
  V  V51  1  0.87776263  0.74823657  0.62371613  1
  V  V52  1  0.62431498  0.63043232  0.49931328  1
  V  V53  1  0.50635330  -0.00169234  0.00616220  1
  V  V54  1  0.01022109  0.49994358  -0.00563541  1
  V  V55  1  0.62245076  0.87179333  0.24194235  1
  V  V56  1  0.37684769  0.73735597  0.13417553  1
  V  V57  1  0.87045067  0.87818847  0.50693064  1
  V  V58  1  0.62423351  0.12662616  0.50075738  1
  V  V59  1  0.25153497  0.24814257  -0.00098149  1
  V  V60  1  0.50109461  0.73769362  0.25550890  1
  V  V61  1  0.37533803  0.87486693  -0.00009122  1
  V  V62  1  0.37512052  0.50837231  0.36690692  1
  V  V63  1  0.63816916  -0.00285138  0.62838089  1
  V  V64  1  0.23985806  0.50190672  0.25315602  1
  V  V65  1  0.88230856  0.36878239  0.00639772  1
  V  V66  1  0.50660548  0.87422608  0.37682539  1
  V  V67  1  0.12436186  0.12798130  0.49950673  1
  V  V68  1  0.74763694  0.62079047  0.88180236  1
  V  V69  1  0.24742111  0.73803464  0.00257175  1
  V  V70  1  0.49507044  0.25169475  0.75769135  1
  V  V71  1  0.63901860  0.87773583  0.74752485  1
  V  V72  1  0.25092228  0.88209164  0.62957779  1
  V  V73  1  0.88049145  0.62288190  0.74629033  1
  V  V74  1  0.12121816  0.74690221  0.87968437  1
  V  V75  1  0.00008528  0.75596672  0.75189583  1
  V  V76  1  0.50034566  0.87570453  0.87285476  1
  V  V77  1  -0.00710229  0.26040689  0.24701626  1
  V  V78  1  0.50010078  0.50247072  0.50262769  1
  V  V79  1  0.87306798  0.00280881  0.36863645  1
  V  V80  1  0.75026718  0.12036453  0.87425492  1
  V  V81  1  0.75902354  0.75138991  -0.00096514  1
  V  V82  1  0.50240375  0.25043144  0.24851644  1
  V  V83  1  0.37474784  0.24632793  0.62860014  1
  V  V84  1  0.12245237  0.50799811  0.62705033  1
  Zn  Zn85  1  0.24971146  0.50016060  0.75174539  1
  Zn  Zn86  1  0.12783000  0.25717906  0.36024767  1
  Zn  Zn87  1  0.75938956  0.24532869  0.00444617  1
  Zn  Zn88  1  0.87868468  0.37234186  0.49786051  1
  Zn  Zn89  1  0.50121539  0.62749138  0.62718909  1
  Zn  Zn90  1  0.00454398  0.37954336  0.37219391  1
  Zn  Zn91  1  0.50227311  0.74885885  0.74946618  1
  Zn  Zn92  1  0.24719349  0.62078514  0.87917588  1
  Zn  Zn93  1  0.12666363  0.75254063  0.37646027  1
  Zn  Zn94  1  0.88051463  0.75365856  0.11502758  1
  Zn  Zn95  1  0.87643908  0.49808022  0.37394597  1
  Zn  Zn96  1  0.12453666  0.49744017  0.12371855  1
  Zn  Zn97  1  0.61978026  0.38576033  0.24290359  1
  Zn  Zn98  1  0.24975285  0.00078163  0.24910388  1
  Zn  Zn99  1  0.50981649  0.11910022  0.12959293  1
  Zn  Zn100  1  0.74677332  0.50262777  0.24273351  1
  Zn  Zn101  1  0.62513136  0.50101888  0.62618774  1
  Zn  Zn102  1  0.24854072  0.37798831  0.62585644  1
  Zn  Zn103  1  0.12864793  0.00417490  0.63225887  1
  Zn  Zn104  1  0.37541279  0.24774898  0.12474440  1
  Zn  Zn105  1  0.25195026  0.63242723  0.37184193  1
  Zn  Zn106  1  0.63151131  0.11913481  0.01015048  1
  Zn  Zn107  1  0.18449447  0.18698138  0.18650427  1
  Zn  Zn108  1  0.18361093  0.19176646  0.68455020  1
  Zn  Zn109  1  0.18699812  0.68455529  0.18958799  1
  Zn  Zn110  1  0.18898964  0.68981670  0.68914899  1
  Zn  Zn111  1  0.68953674  0.19427910  0.18264882  1
  Zn  Zn112  1  0.68646521  0.18763332  0.68765887  1
  Zn  Zn113  1  0.68749975  0.67688570  0.18787999  1
  Zn  Zn114  1  0.69068041  0.68862952  0.68691144  1
  Zn  Zn115  1  0.31300831  0.31512908  0.31312428  1
  Zn  Zn116  1  0.30874651  0.31334624  0.81356822  1
  Zn  Zn117  1  0.31436510  0.81575875  0.31295056  1
  Zn  Zn118  1  0.30975787  0.81115807  0.81292127  1
  Zn  Zn119  1  0.82196157  0.31457102  0.30739148  1
  Zn  Zn120  1  0.81114786  0.31131549  0.81569490  1
  Zn  Zn121  1  0.81165329  0.81207225  0.31445486  1
  Zn  Zn122  1  0.81163353  0.80942092  0.81069518  1
  Zn  Zn123  1  0.18322543  0.43784174  0.43651278  1
  Zn  Zn124  1  0.19298320  0.43356458  0.93568625  1
  Zn  Zn125  1  0.18730907  0.93842218  0.44062878  1
  Zn  Zn126  1  0.18725686  0.93402353  0.93627636  1
  Zn  Zn127  1  0.68888040  0.44142233  0.43531138  1
  Zn  Zn128  1  0.68810367  0.43398915  0.94014056  1
  Zn  Zn129  1  0.68399128  0.93838071  0.43642215  1
  Zn  Zn130  1  0.68854955  0.93270332  0.93652350  1
  Zn  Zn131  1  0.31540384  0.06171459  0.05798634  1
  Zn  Zn132  1  0.31426574  0.06355349  0.56393874  1
  Zn  Zn133  1  0.31811834  0.55590502  0.06630118  1
  Zn  Zn134  1  0.30785187  0.56755396  0.56413650  1
  Zn  Zn135  1  0.80837020  0.05540891  0.05786350  1
  Zn  Zn136  1  0.81419176  0.06741369  0.55845569  1
  Zn  Zn137  1  0.81693610  0.56013573  0.06185966  1
  Zn  Zn138  1  0.81027481  0.56390572  0.56548999  1
  Zn  Zn139  1  0.43379389  0.43634032  0.18424561  1
  Zn  Zn140  1  0.43789102  0.43635648  0.68822421  1
  Zn  Zn141  1  0.43622352  0.93383556  0.18863551  1
  Zn  Zn142  1  0.44012253  0.93400510  0.68870875  1
  Zn  Zn143  1  0.93434103  0.44188958  0.18223249  1
  Zn  Zn144  1  0.94063225  0.43815308  0.68364105  1
  Zn  Zn145  1  0.93385241  0.94044133  0.18646607  1
  Zn  Zn146  1  0.93894391  0.94004048  0.68721394  1
  Zn  Zn147  1  0.06267516  0.06787291  0.30977920  1
  Zn  Zn148  1  0.05847359  0.06541551  0.81438768  1
  Zn  Zn149  1  0.06500550  0.56577681  0.31751325  1
  Zn  Zn150  1  0.06141252  0.56740544  0.81211045  1
  Zn  Zn151  1  0.56533759  0.06233022  0.31145428  1
  Zn  Zn152  1  0.56281507  0.05969737  0.81251010  1
  Zn  Zn153  1  0.56866916  0.56245316  0.31534279  1
  Zn  Zn154  1  0.55845129  0.56039352  0.81765957  1
  Zn  Zn155  1  0.43794470  0.18563215  0.43801632  1
  Zn  Zn156  1  0.43542196  0.18030582  0.93647474  1
  Zn  Zn157  1  0.43551097  0.68979040  0.43925113  1
  Zn  Zn158  1  0.43494013  0.68747101  0.93883890  1
  Zn  Zn159  1  0.93728629  0.18961978  0.42821616  1
  Zn  Zn160  1  0.93923319  0.18138588  0.93605469  1
  Zn  Zn161  1  0.93806650  0.68829877  0.43663648  1
  Zn  Zn162  1  0.93829027  0.68345933  0.93232718  1
  Zn  Zn163  1  0.06094494  0.31085188  0.06498542  1
  Zn  Zn164  1  0.06258930  0.31522944  0.56177086  1
  Zn  Zn165  1  0.06442959  0.81164335  0.06159957  1
  Zn  Zn166  1  0.06177139  0.81541168  0.56752545  1
  Zn  Zn167  1  0.56376667  0.30817094  0.06277172  1
  Zn  Zn168  1  0.56622890  0.31327990  0.56624564  1
  Zn  Zn169  1  0.58400587  0.75906593  0.08208810  1
  Zn  Zn170  1  0.56174799  0.81481251  0.56438836  1
  O  O171  1  0.12370739  0.11117246  0.11753547  1
  O  O172  1  0.11781368  0.12257135  0.61799265  1
  O  O173  1  0.11154981  0.62197873  0.12846283  1
  O  O174  1  0.12876857  0.61967523  0.61865884  1
  O  O175  1  0.62296476  0.12791296  0.12299675  1
  O  O176  1  0.61720290  0.11851503  0.62135056  1
  O  O177  1  0.61288291  0.65638880  0.11549108  1
  O  O178  1  0.62442889  0.62340325  0.61485434  1
  O  O179  1  0.38104767  0.38100041  0.38732858  1
  O  O180  1  0.36847047  0.38180902  0.88478484  1
  O  O181  1  0.38486707  0.89035085  0.36949042  1
  O  O182  1  0.38061453  0.87813089  0.87952076  1
  O  O183  1  0.88310108  0.38033093  0.37915533  1
  O  O184  1  0.86950992  0.38735854  0.88196744  1
  O  O185  1  0.87940408  0.88232375  0.38461623  1
  O  O186  1  0.87381291  0.88883660  0.86686538  1
  O  O187  1  0.25934605  0.00505465  0.37590211  1
  O  O188  1  0.25714726  0.00927525  0.88249086  1
  O  O189  1  0.25640051  0.49862546  0.36532116  1
  O  O190  1  0.26146965  0.50271758  0.87428451  1
  O  O191  1  0.75348951  0.00815331  0.36942224  1
  O  O192  1  0.76433197  0.00458316  0.88011820  1
  O  O193  1  0.75650346  0.51683486  0.37935381  1
  O  O194  1  0.75618034  0.50472662  0.87041592  1
  O  O195  1  0.24896219  0.49305653  0.13634450  1
  O  O196  1  0.23764036  0.49869637  0.62753621  1
  O  O197  1  0.24132688  0.99233634  0.12167497  1
  O  O198  1  0.25118237  0.98661979  0.61997678  1
  O  O199  1  0.75874783  0.48305524  0.12282294  1
  O  O200  1  0.74682292  0.49190952  0.63275496  1
  O  O201  1  0.75250979  0.99111418  0.13435697  1
  O  O202  1  0.73673172  1.00514320  0.61617301  1
  O  O203  1  -0.00403493  0.36380483  0.24197268  1
  O  O204  1  0.00908351  0.36629356  0.74527683  1
  O  O205  1  0.00223186  0.87003548  0.25325748  1
  O  O206  1  0.00664600  0.86380041  0.74492156  1
  O  O207  1  0.49706592  0.36696342  0.25727551  1
  O  O208  1  0.50947406  0.36378439  0.74507334  1
  O  O209  1  0.50730386  0.87413824  0.25708684  1
  O  O210  1  0.50646282  0.87293454  0.76268211  1
  O  O211  1  0.49321954  0.13154136  0.25187020  1
  O  O212  1  0.50386310  0.13168172  0.73839603  1
  O  O213  1  0.49844126  0.63944649  0.26415872  1
  O  O214  1  0.48821967  0.62585611  0.74832085  1
  O  O215  1  0.99564680  0.11662229  0.23036246  1
  O  O216  1  0.99180676  0.13186889  0.74264056  1
  O  O217  1  0.99599517  0.63294802  0.24554619  1
  O  O218  1  0.98678268  0.63623098  0.75301429  1
  O  O219  1  0.36771377  0.25244439  -0.00064499  1
  O  O220  1  0.37185463  0.25731107  0.50564020  1
  O  O221  1  0.36952046  0.75607996  0.01257281  1
  O  O222  1  0.36478771  0.74781829  0.51089617  1
  O  O223  1  0.87914056  0.26627047  -0.01321926  1
  O  O224  1  0.86237610  0.24847826  0.49654307  1
  O  O225  1  0.86393106  0.74895116  -0.00708573  1
  O  O226  1  0.87159044  0.75807743  0.50644487  1
  O  O227  1  0.13079581  0.23861412  0.50355015  1
  O  O228  1  0.12954990  0.24596864  0.99185580  1
  O  O229  1  0.12881470  0.74605163  0.50229574  1
  O  O230  1  0.13414096  0.75381450  0.99278214  1
  O  O231  1  0.63163903  0.24568469  0.49356515  1
  O  O232  1  0.62145521  0.24582690  0.98396715  1
  O  O233  1  0.63506742  0.74573820  0.50638099  1
  O  O234  1  0.64073421  0.75831102  0.98035417  1
  O  O235  1  0.49657196  0.24936772  0.13884013  1
  O  O236  1  0.49506673  0.24298825  0.63296191  1
  O  O237  1  0.48328939  0.76034853  0.14295755  1
  O  O238  1  0.48999690  0.74977173  0.62727298  1
  O  O239  1  1.00063765  0.23501075  0.12976047  1
  O  O240  1  1.00447061  0.23921636  0.63377491  1
  O  O241  1  0.99893297  0.74499776  0.13019572  1
  O  O242  1  0.98603891  0.75380090  0.63216533  1
  O  O243  1  0.00282304  0.24966100  0.35855508  1
  O  O244  1  0.01084761  0.24073064  0.86478648  1
  O  O245  1  0.00170686  0.75888285  0.36662991  1
  O  O246  1  0.00721775  0.74844068  0.86594650  1
  O  O247  1  0.50476651  0.25363165  0.36795650  1
  O  O248  1  0.50562783  0.23823473  0.86246941  1
  O  O249  1  0.48609429  0.76212815  0.36410246  1
  O  O250  1  0.50772701  0.75722032  0.87615629  1
  O  O251  1  0.24319749  0.12929544  0.49582575  1
  O  O252  1  0.24401903  0.13541408  0.99753867  1
  O  O253  1  0.23956045  0.63973955  0.50112337  1
  O  O254  1  0.25462422  0.63534400  1.00508667  1
  O  O255  1  0.74341198  0.13276051  0.49062038  1
  O  O256  1  0.74965712  0.12685444  0.98962350  1
  O  O257  1  0.74412297  0.63319048  0.49687280  1
  O  O258  1  0.75729215  0.62936960  0.98705136  1
  O  O259  1  0.25649688  0.36121414  0.00432864  1
  O  O260  1  0.25917357  0.37084992  0.50215969  1
  O  O261  1  0.25322026  0.86662438  0.01101630  1
  O  O262  1  0.24209042  0.86385419  0.51060281  1
  O  O263  1  0.76209164  0.37261552  0.00644731  1
  O  O264  1  0.74994184  0.36807716  0.50744074  1
  O  O265  1  0.74845115  0.86805871  0.00987429  1
  O  O266  1  0.75746204  0.86785399  0.49239257  1
  O  O267  1  0.13690666  0.49904907  0.25081905  1
  O  O268  1  0.12290566  0.49443089  0.74545920  1
  O  O269  1  0.12579361  0.99567377  0.23966102  1
  O  O270  1  0.11582591  0.98672508  0.75306074  1
  O  O271  1  0.63348679  0.49684153  0.25702484  1
  O  O272  1  0.62838557  0.49110185  0.75141409  1
  O  O273  1  0.63583012  0.98989024  0.25397189  1
  O  O274  1  0.62204020  0.99153927  0.74025662  1
  O  O275  1  0.37493115  0.00812191  0.25772631  1
  O  O276  1  0.37723460  -0.00484370  0.76336643  1
  O  O277  1  0.36844175  0.49423007  0.26246766  1
  O  O278  1  0.37466250  0.50478119  0.75652261  1
  O  O279  1  0.86168070  -0.00647602  0.26250109  1
  O  O280  1  0.88339200  0.00928684  0.76325044  1
  O  O281  1  0.87332615  0.51469544  0.25027581  1
  O  O282  1  0.87352370  0.50546502  0.75480067  1
  O  O283  1  0.11791869  0.36752453  0.38290353  1
  O  O284  1  0.12862440  0.36236419  0.86790192  1
  O  O285  1  0.11735322  0.87783108  0.36791934  1
  O  O286  1  0.13091767  0.86173490  0.86633671  1
  O  O287  1  0.61767805  0.36878290  0.37796461  1
  O  O288  1  0.63356005  0.36321153  0.86185723  1
  O  O289  1  0.61232114  0.87836130  0.36658058  1
  O  O290  1  0.61857582  0.87018438  0.86614019  1
  O  O291  1  0.37788160  0.12346454  0.13755571  1
  O  O292  1  0.38298929  0.13791639  0.62073108  1
  O  O293  1  0.37299040  0.63918369  0.12665051  1
  O  O294  1  0.37469196  0.63621254  0.63219936  1
  O  O295  1  0.88251120  0.12181904  0.11795628  1
  O  O296  1  0.88233661  0.12164872  0.63351261  1
  O  O297  1  0.88549914  0.62913376  0.13237226  1
  O  O298  1  0.87076763  0.63452062  0.63497801  1
  O  O299  1  0.25180309  0.25318140  0.11796545  1
  O  O300  1  0.25897670  0.25163445  0.61847372  1
  O  O301  1  0.25738524  0.75504494  0.12416246  1
  O  O302  1  0.25572506  0.75986470  0.62041888  1
  O  O303  1  0.75496765  0.26611186  0.12009127  1
  O  O304  1  0.74306154  0.25753944  0.61402756  1
  O  O305  1  0.75709242  0.75583501  0.11435585  1
  O  O306  1  0.76283572  0.74934626  0.61399481  1
  O  O307  1  0.25053892  0.24226577  0.38104738  1
  O  O308  1  0.24248424  0.24140654  0.88083253  1
  O  O309  1  0.24955385  0.75402842  0.38436327  1
  O  O310  1  0.24536678  0.74768651  0.88808919  1
  O  O311  1  0.74705668  0.24489176  0.37773154  1
  O  O312  1  0.74258095  0.23938306  0.87673954  1
  O  O313  1  0.75772841  0.73922454  0.38899988  1
  O  O314  1  0.74617988  0.74059506  0.87702780  1
  O  O315  1  0.00546395  0.11778206  0.01009071  1
  O  O316  1  0.00485938  0.12569866  0.50485434  1
  O  O317  1  -0.00608388  0.61453533  0.00713254  1
  O  O318  1  0.01242540  0.62260144  0.49831418  1
  O  O319  1  0.49898090  0.10795786  0.00089890  1
  O  O320  1  0.50581473  0.12073003  0.51033563  1
  O  O321  1  0.49800366  0.61568145  0.00039273  1
  O  O322  1  0.50708618  0.62009802  0.50073713  1
  O  O323  1  0.49465988  0.38202533  0.49769521  1
  O  O324  1  0.48702613  0.36969021  1.00191600  1
  O  O325  1  0.50408519  0.88521703  0.49175821  1
  O  O326  1  0.49510514  0.88508904  0.98632982  1
  O  O327  1  0.99652552  0.38871085  0.50540867  1
  O  O328  1  0.98996420  0.38204192  1.00414472  1
  O  O329  1  0.99358595  0.88310853  0.49574532  1
  O  O330  1  0.99939717  0.88926502  1.00503688  1
  O  O331  1  0.49166248  0.49690692  0.38594485  1
  O  O332  1  0.48541524  0.50169936  0.88531935  1
  O  O333  1  0.49598646  0.99621239  0.38298920  1
  O  O334  1  0.49141472  0.99469735  0.87978312  1
  O  O335  1  0.99912273  0.50284786  0.38726314  1
  O  O336  1  0.99169857  0.50557541  0.88058291  1
  O  O337  1  0.99058688  0.99934222  0.37864808  1
  O  O338  1  0.98935028  1.00530500  0.88758281  1
  O  O339  1  0.00190285  0.00607917  0.11467738  1
  O  O340  1  0.00116805  0.01304722  0.61760426  1
  O  O341  1  0.00324929  0.50722078  0.11509374  1
  O  O342  1  0.01301864  0.50181766  0.61942594  1
  O  O343  1  0.49564386  -0.00514570  0.10918217  1
  O  O344  1  0.50160943  0.00685281  0.61956647  1
  O  O345  1  0.49426872  0.49525242  0.10903398  1
  O  O346  1  0.49969865  0.50183108  0.61270856  1
  O  O347  1  0.25557402  0.38522245  0.24202645  1
  O  O348  1  0.23484568  0.37540091  0.74764844  1
  O  O349  1  0.24426411  0.87743192  0.23888660  1
  O  O350  1  0.23809763  0.86878808  0.74150574  1
  O  O351  1  0.75384327  0.37562056  0.23483631  1
  O  O352  1  0.74573311  0.37866568  0.74390911  1
  O  O353  1  0.74135375  0.87945987  0.24787663  1
  O  O354  1  0.73866934  0.87420800  0.75108159  1
  O  O355  1  0.25799449  0.12310760  0.25589430  1
  O  O356  1  0.24286575  0.12734458  0.75938309  1
  O  O357  1  0.24905324  0.60830643  0.25185004  1
  O  O358  1  0.26254530  0.62370460  0.75147768  1
  O  O359  1  0.74368878  0.11803611  0.25999416  1
  O  O360  1  0.76297466  0.13006697  0.75365454  1
  O  O361  1  0.76000814  0.63105327  0.25924740  1
  O  O362  1  0.75993199  0.61927672  0.75701068  1
  O  O363  1  0.37203964  0.11595980  0.36745995  1
  O  O364  1  0.36236754  0.11476135  0.87643812  1
  O  O365  1  0.36926715  0.61140706  0.38512228  1
  O  O366  1  0.37158012  0.61883866  0.86814203  1
  O  O367  1  0.86352829  0.11419095  0.38064565  1
  O  O368  1  0.86647173  0.11809444  0.86791264  1
  O  O369  1  0.87035563  0.62579191  0.36613555  1
  O  O370  1  0.86717259  0.61385365  0.86656639  1
  O  O371  1  0.14009885  0.37596659  0.11833508  1
  O  O372  1  0.12635656  0.38346245  0.63320868  1
  O  O373  1  0.12978567  0.88466149  0.12843319  1
  O  O374  1  0.13195136  0.87968259  0.63530380  1
  O  O375  1  0.63817576  0.37237900  0.12263464  1
  O  O376  1  0.63431385  0.37588891  0.63754073  1
  O  O377  1  0.63494627  0.86191467  0.13741433  1
  O  O378  1  0.61884613  0.88542287  0.63538136  1
  O  O379  1  0.10315745  0.23516733  0.24705074  1
  O  O380  1  0.11569458  0.25696225  0.75510984  1
  O  O381  1  0.11442652  0.75679746  0.24986794  1
  O  O382  1  0.11613410  0.75698704  0.75397410  1
  O  O383  1  0.61706618  0.25699438  0.25775437  1
  O  O384  1  0.61782237  0.25387880  0.75819240  1
  O  O385  1  0.60720660  0.75732294  0.25621211  1
  O  O386  1  0.62532952  0.75709433  0.75802796  1
  O  O387  1  0.38288133  0.24052250  0.25275441  1
  O  O388  1  0.38257726  0.25812883  0.74069489  1
  O  O389  1  0.38044193  0.75300649  0.24151673  1
  O  O390  1  0.37658894  0.74252572  0.74500241  1
  O  O391  1  0.89287572  0.24166258  0.25054969  1
  O  O392  1  0.88617866  0.24323987  0.75693054  1
  O  O393  1  0.88696200  0.74414401  0.25022425  1
  O  O394  1  0.88002301  0.74471124  0.74391607  1
  O  O395  1  0.37891704  0.49369311  0.49788170  1
  O  O396  1  0.38053204  0.49034491  0.99429748  1
  O  O397  1  0.38858437  1.00733509  0.49273981  1
  O  O398  1  0.38240193  0.99188564  0.99216103  1
  O  O399  1  0.88940876  0.50672233  0.50453000  1
  O  O400  1  0.88502165  0.49065401  0.99150942  1
  O  O401  1  0.87797315  0.99451039  0.49139228  1
  O  O402  1  0.88530633  1.00120803  0.98738380  1
  O  O403  1  0.11332443  0.00125394  0.00307704  1
  O  O404  1  0.11834675  0.01298526  0.50099600  1
  O  O405  1  0.11370381  0.49350927  -0.00389254  1
  O  O406  1  0.11933353  0.51098100  0.50802981  1
  O  O407  1  0.60929794  -0.00089045  -0.00971303  1
  O  O408  1  0.61444732  0.00580898  0.50592282  1
  O  O409  1  0.60662392  0.49407260  -0.00920096  1
  O  O410  1  0.61536410  0.50794618  0.50137819  1
  O  O411  1  0.36250611  0.37059429  0.11502910  1
  O  O412  1  0.37557791  0.36618922  0.61511180  1
  O  O413  1  0.36484100  0.87061539  0.12127804  1
  O  O414  1  0.36722701  0.86359432  0.63307712  1
  O  O415  1  0.87156660  0.37542747  0.10936013  1
  O  O416  1  0.86202078  0.37701701  0.62359234  1
  O  O417  1  0.86055925  0.87114555  0.13234087  1
  O  O418  1  0.87742337  0.87280647  0.61249919  1
  O  O419  1  0.13206669  0.12655537  0.38277631  1
  O  O420  1  0.13071414  0.13168394  0.87990830  1
  O  O421  1  0.13131882  0.63140072  0.38643437  1
  O  O422  1  0.13026646  0.64111514  0.86785700  1
  O  O423  1  0.63180110  0.13236320  0.38009876  1
  O  O424  1  0.63817759  0.12752099  0.87087657  1
  O  O425  1  0.63394153  0.62678214  0.39059979  1
  O  O426  1  0.63552079  0.63288305  0.86577337  1
