# generated using pymatgen
data_V85Zn86O256
_symmetry_space_group_name_H-M   'P 1'
_cell_length_a   16.91891205
_cell_length_b   16.90686309
_cell_length_c   16.91497517
_cell_angle_alpha   89.96500121
_cell_angle_beta   89.97364242
_cell_angle_gamma   90.03285915
_symmetry_Int_Tables_number   1
_chemical_formula_structural   V85Zn86O256
_chemical_formula_sum   'V85 Zn86 O256'
_cell_volume   4838.45420377
_cell_formula_units_Z   1
loop_
 _symmetry_equiv_pos_site_id
 _symmetry_equiv_pos_as_xyz
  1  'x, y, z'
loop_
 _atom_site_type_symbol
 _atom_site_label
 _atom_site_symmetry_multiplicity
 _atom_site_fract_x
 _atom_site_fract_y
 _atom_site_fract_z
 _atom_site_occupancy
  V  V0  1  0.24600679  0.11990417  0.87535593  1
  V  V1  1  0.25175008  0.75820025  0.49744385  1
  V  V2  1  0.75263198  0.51214212  0.25148949  1
  V  V3  1  0.37503203  0.37342023  0.00362034  1
  V  V4  1  0.00319998  0.00892945  0.00056126  1
  V  V5  1  0.50037884  0.36717524  0.87784725  1
  V  V6  1  0.00207462  0.24905787  0.74696889  1
  V  V7  1  0.87545499  0.51361405  0.37022037  1
  V  V8  1  0.74146673  0.87840203  0.12697939  1
  V  V9  1  0.74828836  0.62509474  0.87898945  1
  V  V10  1  0.87065939  0.87697064  0.00389018  1
  V  V11  1  0.87610335  0.24968752  0.62419613  1
  V  V12  1  0.13677471  0.37625440  0.74681060  1
  V  V13  1  0.62061329  0.87475619  0.74603056  1
  V  V14  1  0.24527177  0.13035900  0.37148578  1
  V  V15  1  0.62571538  0.50629688  0.61920127  1
  V  V16  1  0.87594660  0.37499842  0.49673785  1
  V  V17  1  0.87552725  0.62530919  0.75228452  1
  V  V18  1  0.87023319  0.12513603  0.75274597  1
  V  V19  1  0.87510226  0.74476113  0.13338698  1
  V  V20  1  0.25158049  0.49773562  0.25002267  1
  V  V21  1  0.62862064  0.36964187  0.25299105  1
  V  V22  1  0.12149984  0.36152838  0.25276208  1
  V  V23  1  0.50751093  -0.00770150  0.49982857  1
  V  V24  1  0.74672954  0.00433252  0.24814471  1
  V  V25  1  0.74101503  0.00382769  0.74795577  1
  V  V26  1  0.50138540  0.50640208  0.49724837  1
  V  V27  1  0.87683933  0.50121789  0.87670263  1
  V  V28  1  0.24396576  -0.00483624  0.73249638  1
  V  V29  1  0.37034257  0.74458682  0.62751942  1
  V  V30  1  0.37395205  0.12336822  0.74698602  1
  V  V31  1  0.12853036  0.62686526  0.49695571  1
  V  V32  1  0.74970863  0.37427631  0.62351680  1
  V  V33  1  0.50843313  0.62678346  0.12274062  1
  V  V34  1  0.00166443  0.88131399  0.38155320  1
  V  V35  1  0.50349170  0.11939401  0.62368625  1
  V  V36  1  0.87393613  0.74868926  0.62465775  1
  V  V37  1  0.12540629  0.75240837  0.37319329  1
  V  V38  1  0.49842529  0.75388394  0.25408276  1
  V  V39  1  0.74386143  0.25189590  0.49170558  1
  V  V40  1  0.62338038  0.12639295  0.49417697  1
  V  V41  1  0.24222532  0.25553928  0.50283576  1
  V  V42  1  0.38085657  0.00091020  0.37122123  1
  V  V43  1  0.87707697  0.00231083  0.38181792  1
  V  V44  1  0.25598783  -0.00039557  0.24787400  1
  V  V45  1  0.86504978  0.00373829  0.87811368  1
  V  V46  1  0.49867993  -0.00011650  0.00439476  1
  V  V47  1  0.49518519  0.74089125  0.74945807  1
  V  V48  1  0.00290806  0.37698848  0.87494024  1
  V  V49  1  0.37500386  0.49406204  0.37948051  1
  V  V50  1  0.00151667  0.49853426  0.49569077  1
  V  V51  1  0.50146500  0.36804210  0.38136812  1
  V  V52  1  0.37765019  0.87521866  0.50023270  1
  V  V53  1  -0.00175759  0.62358724  0.62456440  1
  V  V54  1  0.12370729  0.49899478  0.12666202  1
  V  V55  1  0.62527128  0.37291813  0.75121395  1
  V  V56  1  0.00493628  0.10562895  0.62136943  1
  V  V57  1  0.12960100  0.75270398  0.87664748  1
  V  V58  1  0.74564073  0.87777112  0.62125149  1
  V  V59  1  0.86893357  0.37066432  -0.00044021  1
  V  V60  1  0.74466214  0.74435179  0.00262655  1
  V  V61  1  0.00130738  0.36063182  0.37193627  1
  V  V62  1  0.37537697  0.50337176  0.87050150  1
  V  V63  1  0.62223512  0.74625558  0.87818673  1
  V  V64  1  -0.00120980  0.87521901  0.87720517  1
  V  V65  1  0.00467709  0.13359585  0.12657668  1
  V  V66  1  0.37661958  0.23772488  0.12882893  1
  V  V67  1  0.13448273  0.49861736  0.62394094  1
  V  V68  1  0.50782414  0.50293954  0.00126271  1
  V  V69  1  0.74640825  0.73628400  0.49695866  1
  V  V70  1  0.25269034  0.62811098  0.86437044  1
  V  V71  1  0.12578149  0.00202944  0.12316700  1
  V  V72  1  0.74972761  0.49968587  0.75034741  1
  V  V73  1  0.50037252  0.24366232  0.25344021  1
  V  V74  1  0.62446101  0.73410872  0.37942439  1
  V  V75  1  0.86838007  0.24923861  0.12301970  1
  V  V76  1  0.13257836  0.62925628  0.00233920  1
  V  V77  1  0.62271745  0.87961300  0.26329082  1
  V  V78  1  0.24619841  0.24451913  0.00023867  1
  V  V79  1  0.36862171  0.75018887  0.11836091  1
  V  V80  1  0.64062319  0.24295765  0.88014438  1
  V  V81  1  0.12581392  0.24724599  0.87674436  1
  V  V82  1  0.63668254  0.12136934  0.00483163  1
  V  V83  1  0.88094403  0.13026741  0.25203789  1
  V  V84  1  0.37430980  0.26024741  0.61730189  1
  Zn  Zn85  1  0.50034735  0.24667038  0.74909647  1
  Zn  Zn86  1  0.49942237  0.62409159  0.62355640  1
  Zn  Zn87  1  0.49687823  0.87580740  0.87483484  1
  Zn  Zn88  1  0.25515056  0.62519426  0.37375629  1
  Zn  Zn89  1  0.12197243  0.87579642  0.24907350  1
  Zn  Zn90  1  0.12432641  0.11095788  0.50140572  1
  Zn  Zn91  1  -0.00119850  0.62372972  0.12942638  1
  Zn  Zn92  1  0.12296707  0.88347986  0.74719140  1
  Zn  Zn93  1  0.24973728  0.37128689  0.12602383  1
  Zn  Zn94  1  0.74812893  0.37423036  0.12466503  1
  Zn  Zn95  1  0.37709349  0.62263464  0.24911136  1
  Zn  Zn96  1  0.24427833  0.86899455  0.12207742  1
  Zn  Zn97  1  -0.00698327  0.74614134  0.25696573  1
  Zn  Zn98  1  0.00150941  0.50290257  0.00099705  1
  Zn  Zn99  1  0.26079433  0.50144873  0.74236410  1
  Zn  Zn100  1  0.37504001  -0.00403724  0.87233163  1
  Zn  Zn101  1  0.62877432  0.50006239  0.12391238  1
  Zn  Zn102  1  0.87558735  0.87878315  0.50174331  1
  Zn  Zn103  1  0.50467700  0.11904375  0.13012809  1
  Zn  Zn104  1  0.74746547  0.12997626  0.37184846  1
  Zn  Zn105  1  0.36510248  0.87182629  -0.00622806  1
  Zn  Zn106  1  -0.00288878  0.75375623  0.75270537  1
  Zn  Zn107  1  0.19101128  0.18223589  0.18665126  1
  Zn  Zn108  1  0.18799964  0.18615671  0.68547693  1
  Zn  Zn109  1  0.18663276  0.68288444  0.19202525  1
  Zn  Zn110  1  0.15277988  0.73978322  0.65453098  1
  Zn  Zn111  1  0.68692705  0.18938547  0.18737907  1
  Zn  Zn112  1  0.68454756  0.18830015  0.68481562  1
  Zn  Zn113  1  0.68515330  0.68991609  0.18988254  1
  Zn  Zn114  1  0.68738902  0.68836702  0.68897307  1
  Zn  Zn115  1  0.31439379  0.31215644  0.31357753  1
  Zn  Zn116  1  0.31574901  0.30903178  0.81239627  1
  Zn  Zn117  1  0.31433127  0.81760898  0.31095245  1
  Zn  Zn118  1  0.31116605  0.81400767  0.81219523  1
  Zn  Zn119  1  0.81602206  0.31555051  0.31031100  1
  Zn  Zn120  1  0.81468056  0.31294558  0.81212056  1
  Zn  Zn121  1  0.80830018  0.81467318  0.31656329  1
  Zn  Zn122  1  0.81002569  0.81520267  0.81337715  1
  Zn  Zn123  1  0.18641809  0.43502264  0.43391343  1
  Zn  Zn124  1  0.19038711  0.43903952  0.93877591  1
  Zn  Zn125  1  0.19134451  0.94063913  0.43470729  1
  Zn  Zn126  1  0.18759601  0.93797615  0.93970903  1
  Zn  Zn127  1  0.68678974  0.44007662  0.43237171  1
  Zn  Zn128  1  0.68757355  0.43481923  0.93731739  1
  Zn  Zn129  1  0.68906601  0.93913130  0.43710484  1
  Zn  Zn130  1  0.68205091  0.93702266  0.93653789  1
  Zn  Zn131  1  0.31283775  0.05922736  0.05894738  1
  Zn  Zn132  1  0.31528361  0.06624343  0.55667996  1
  Zn  Zn133  1  0.31424730  0.56383706  0.06160619  1
  Zn  Zn134  1  0.31521398  0.56514732  0.55770719  1
  Zn  Zn135  1  0.81232445  0.06332065  0.06686983  1
  Zn  Zn136  1  0.80933998  0.06478674  0.56571385  1
  Zn  Zn137  1  0.81163123  0.56029365  0.06332374  1
  Zn  Zn138  1  0.81259657  0.55994923  0.55959814  1
  Zn  Zn139  1  0.44015955  0.43280142  0.18865627  1
  Zn  Zn140  1  0.44206702  0.43610556  0.68774890  1
  Zn  Zn141  1  0.43889977  0.93527699  0.18547895  1
  Zn  Zn142  1  0.43418934  0.93470820  0.68406582  1
  Zn  Zn143  1  0.93876347  0.43681849  0.18955136  1
  Zn  Zn144  1  0.94174388  0.43799839  0.68692588  1
  Zn  Zn145  1  0.93725885  0.93667136  0.19347365  1
  Zn  Zn146  1  0.92867132  0.93459342  0.69246573  1
  Zn  Zn147  1  0.06524240  0.06306898  0.31078116  1
  Zn  Zn148  1  0.06199604  0.06258348  0.81145304  1
  Zn  Zn149  1  0.05882785  0.56326948  0.30856178  1
  Zn  Zn150  1  0.06686606  0.56526360  0.81092969  1
  Zn  Zn151  1  0.56348260  0.06336344  0.31593599  1
  Zn  Zn152  1  0.56037096  0.06325780  0.81707056  1
  Zn  Zn153  1  0.56235139  0.55998870  0.30797743  1
  Zn  Zn154  1  0.56283068  0.56156407  0.81376874  1
  Zn  Zn155  1  0.43274133  0.18384467  0.43707237  1
  Zn  Zn156  1  0.43715898  0.18199663  0.93936025  1
  Zn  Zn157  1  0.43887230  0.68400670  0.43419576  1
  Zn  Zn158  1  0.43825858  0.68527797  0.93773365  1
  Zn  Zn159  1  0.93647011  0.18446639  0.44207719  1
  Zn  Zn160  1  0.93557598  0.18839885  0.93689734  1
  Zn  Zn161  1  0.94007746  0.69258508  0.44115439  1
  Zn  Zn162  1  0.93916523  0.68795864  0.94631141  1
  Zn  Zn163  1  0.06186702  0.31399980  0.06240610  1
  Zn  Zn164  1  0.06530014  0.31115511  0.56204155  1
  Zn  Zn165  1  0.06223431  0.81582745  0.05910125  1
  Zn  Zn166  1  0.07511935  0.91863658  0.56565075  1
  Zn  Zn167  1  0.56516160  0.30862963  0.06536769  1
  Zn  Zn168  1  0.56095711  0.31351926  0.56256465  1
  Zn  Zn169  1  0.56095532  0.81568802  0.06574256  1
  Zn  Zn170  1  0.56119294  0.80999989  0.56202931  1
  O  O171  1  0.11594554  0.11513080  0.12885344  1
  O  O172  1  0.10604333  0.12539580  0.62994666  1
  O  O173  1  0.12760278  0.61701747  0.11851222  1
  O  O174  1  0.11758986  0.62716579  0.61269175  1
  O  O175  1  0.62376983  0.13196123  0.10858846  1
  O  O176  1  0.60980943  0.13062845  0.61727836  1
  O  O177  1  0.61294436  0.62409949  0.12701346  1
  O  O178  1  0.62414986  0.60955204  0.63271175  1
  O  O179  1  0.38601477  0.38564582  0.36945218  1
  O  O180  1  0.38263517  0.37672955  0.88435220  1
  O  O181  1  0.37253279  0.88808828  0.38553499  1
  O  O182  1  0.37906017  0.87710607  0.87735963  1
  O  O183  1  0.88401756  0.38144342  0.37959826  1
  O  O184  1  0.88312561  0.37882240  0.87987566  1
  O  O185  1  0.88005251  0.88473167  0.37570915  1
  O  O186  1  0.87776861  0.88341455  0.88319247  1
  O  O187  1  0.25680028  0.00750386  0.36423574  1
  O  O188  1  0.24989212  0.01238327  0.86988248  1
  O  O189  1  0.25841614  0.49785111  0.36903786  1
  O  O190  1  0.26072357  0.50532716  0.87455882  1
  O  O191  1  0.75756006  0.00258901  0.36396195  1
  O  O192  1  0.75940529  -0.00577393  0.86761127  1
  O  O193  1  0.76005125  0.49663029  0.36213739  1
  O  O194  1  0.75465713  0.50472816  0.87095306  1
  O  O195  1  0.24326987  0.49532926  0.13149130  1
  O  O196  1  0.23875489  0.50683471  0.62394742  1
  O  O197  1  0.24215295  1.00822575  0.13376660  1
  O  O198  1  0.25270245  1.00530399  0.63422133  1
  O  O199  1  0.75072601  0.49644390  0.13664958  1
  O  O200  1  0.74397226  0.49330422  0.62887179  1
  O  O201  1  0.75436555  0.99239551  0.13838138  1
  O  O202  1  0.75394274  0.98950205  0.63486695  1
  O  O203  1  0.01283647  0.37516813  0.25634118  1
  O  O204  1  0.00631530  0.37051912  0.76009963  1
  O  O205  1  0.00062110  0.86825207  0.26255910  1
  O  O206  1  -0.00608743  0.87719435  0.76790241  1
  O  O207  1  0.50826875  0.36726625  0.25842556  1
  O  O208  1  0.50767755  0.37116131  0.76066700  1
  O  O209  1  0.50971182  0.86309267  0.24450064  1
  O  O210  1  0.50730994  0.86761115  0.74899028  1
  O  O211  1  0.50611800  0.13845353  0.24986555  1
  O  O212  1  0.49248293  0.12418881  0.74256870  1
  O  O213  1  0.49995276  0.63503663  0.24211814  1
  O  O214  1  0.50248705  0.63701153  0.74991841  1
  O  O215  1  0.99232524  0.12114158  0.24004076  1
  O  O216  1  0.99121009  0.12713539  0.74044095  1
  O  O217  1  1.00357808  0.63365285  0.24272641  1
  O  O218  1  0.99155679  0.62468516  0.74331364  1
  O  O219  1  0.36788179  0.25509524  0.00495954  1
  O  O220  1  0.36679129  0.24615760  0.51208473  1
  O  O221  1  0.38145841  0.75008574  0.01520934  1
  O  O222  1  0.37116521  0.75537152  0.49940874  1
  O  O223  1  0.87909377  0.25865730  0.00741600  1
  O  O224  1  0.86716994  0.25512968  0.50694445  1
  O  O225  1  0.86274094  0.75855616  0.00694075  1
  O  O226  1  0.86428853  0.75239019  0.50742166  1
  O  O227  1  0.13898307  0.24006557  0.50846424  1
  O  O228  1  0.13867973  0.25674402  0.99475556  1
  O  O229  1  0.13597719  0.74249835  0.48804215  1
  O  O230  1  0.12082113  0.74334953  0.98909770  1
  O  O231  1  0.63418108  0.24337352  0.50639336  1
  O  O232  1  0.62202213  0.23914692  0.98826155  1
  O  O233  1  0.62882480  0.75236645  0.48676614  1
  O  O234  1  0.63423677  0.75683338  0.99247288  1
  O  O235  1  0.49243427  0.24806505  0.13320720  1
  O  O236  1  0.48850889  0.24398042  0.62503030  1
  O  O237  1  0.49491789  0.74358899  0.13191970  1
  O  O238  1  0.49436042  0.74614622  0.63214766  1
  O  O239  1  0.99385709  0.23785420  0.11867519  1
  O  O240  1  0.99242083  0.24882485  0.63214542  1
  O  O241  1  0.98101888  0.75751367  0.12226632  1
  O  O242  1  0.98009684  0.73960472  0.62712792  1
  O  O243  1  -0.00405786  0.26092762  0.38082458  1
  O  O244  1  0.00560392  0.25588892  0.86824423  1
  O  O245  1  0.00919510  0.75861089  0.37758843  1
  O  O246  1  0.00216912  0.76131694  0.87953948  1
  O  O247  1  0.49008881  0.25727763  0.36850843  1
  O  O248  1  0.50163673  0.25870844  0.87466882  1
  O  O249  1  0.51234243  0.74671362  0.36811130  1
  O  O250  1  0.50676252  0.75070315  0.86944752  1
  O  O251  1  0.24777507  0.13045800  0.48901991  1
  O  O252  1  0.25477964  0.13323566  0.98902305  1
  O  O253  1  0.24282920  0.63210097  0.49437711  1
  O  O254  1  0.23781811  0.61886979  0.99252114  1
  O  O255  1  0.74075370  0.13420027  0.50295928  1
  O  O256  1  0.73635968  0.11753035  0.99938124  1
  O  O257  1  0.74762657  0.63677085  0.50613064  1
  O  O258  1  0.75166331  0.63550035  0.99547654  1
  O  O259  1  0.25969548  0.36593892  -0.00014423  1
  O  O260  1  0.24405721  0.35503699  0.49299618  1
  O  O261  1  0.25295083  0.88424956  0.01055185  1
  O  O262  1  0.25992479  0.86467889  0.49427211  1
  O  O263  1  0.76454659  0.37966559  0.00240405  1
  O  O264  1  0.75372826  0.36981182  0.50375491  1
  O  O265  1  0.74996437  0.87097371  0.00910426  1
  O  O266  1  0.74793538  0.86953889  0.51182423  1
  O  O267  1  0.13244933  0.49208252  0.24361312  1
  O  O268  1  0.12647330  0.49295267  0.74078965  1
  O  O269  1  0.13538164  0.99939096  0.24181852  1
  O  O270  1  0.13891244  1.00212675  0.75023446  1
  O  O271  1  0.63736978  0.49300425  0.24919295  1
  O  O272  1  0.63072453  0.49196856  0.74643741  1
  O  O273  1  0.63264184  0.99333308  0.25533384  1
  O  O274  1  0.63424273  0.99283261  0.75746220  1
  O  O275  1  0.36888824  -0.00558523  0.25680719  1
  O  O276  1  0.36539196  0.00914441  0.74783577  1
  O  O277  1  0.36698808  0.49664602  0.25417418  1
  O  O278  1  0.37813733  0.49243434  0.76513169  1
  O  O279  1  0.86756339  0.01149848  0.25639161  1
  O  O280  1  0.86332423  0.00617104  0.75821113  1
  O  O281  1  0.86308745  0.49512422  0.25596154  1
  O  O282  1  0.86967213  0.50384461  0.75619467  1
  O  O283  1  0.11681481  0.37678780  0.36121161  1
  O  O284  1  0.11950416  0.37093679  0.86862160  1
  O  O285  1  0.11898902  0.86844470  0.37363027  1
  O  O286  1  0.11570161  0.87045722  0.87407024  1
  O  O287  1  0.61643689  0.37762750  0.36280636  1
  O  O288  1  0.61926062  0.36268255  0.87426848  1
  O  O289  1  0.62817680  0.86841694  0.36564970  1
  O  O290  1  0.62578634  0.86282995  0.86302383  1
  O  O291  1  0.37887027  0.13516847  0.12076610  1
  O  O292  1  0.38468721  0.13130864  0.62893268  1
  O  O293  1  0.38445346  0.63380050  0.12692277  1
  O  O294  1  0.37974851  0.63914501  0.61874164  1
  O  O295  1  0.88200948  0.13091354  0.13150183  1
  O  O296  1  0.88425333  0.12706463  0.63432514  1
  O  O297  1  0.87513857  0.64210806  0.11730192  1
  O  O298  1  0.87581925  0.62812228  0.63148880  1
  O  O299  1  0.25727589  0.24900619  0.11709093  1
  O  O300  1  0.26104492  0.24283920  0.61326493  1
  O  O301  1  0.26576365  0.74583198  0.13263835  1
  O  O302  1  0.25864569  0.74556196  0.60945308  1
  O  O303  1  0.76435211  0.25210241  0.12584923  1
  O  O304  1  0.75617953  0.25615895  0.61870816  1
  O  O305  1  0.75572291  0.75506338  0.11988255  1
  O  O306  1  0.75514105  0.75535917  0.62029429  1
  O  O307  1  0.26052396  0.23687892  0.38544926  1
  O  O308  1  0.24657739  0.24141669  0.88014717  1
  O  O309  1  0.24621326  0.74815313  0.37938940  1
  O  O310  1  0.24176502  0.74233597  0.87244010  1
  O  O311  1  0.75668136  0.25064276  0.38849922  1
  O  O312  1  0.73902635  0.25260934  0.87522292  1
  O  O313  1  0.73725889  0.75278268  0.38392150  1
  O  O314  1  0.74381168  0.74682468  0.88354375  1
  O  O315  1  -0.00757951  0.11535765  0.00788445  1
  O  O316  1  -0.00097381  0.12568481  0.51880093  1
  O  O317  1  0.01424060  0.62254402  0.00607297  1
  O  O318  1  0.00726327  0.61916993  0.50520633  1
  O  O319  1  0.50828846  0.11454632  0.00091086  1
  O  O320  1  0.50563975  0.11840361  0.50510232  1
  O  O321  1  0.49728223  0.61378631  0.00758514  1
  O  O322  1  0.50273127  0.61054524  0.49962002  1
  O  O323  1  0.50640980  0.38190567  0.48644696  1
  O  O324  1  0.49450775  0.37751347  0.99487236  1
  O  O325  1  0.49683222  0.88525781  0.50161958  1
  O  O326  1  0.50501744  0.88963234  0.99830271  1
  O  O327  1  0.99802264  0.37987128  0.49315764  1
  O  O328  1  0.99494457  0.37548472  0.98680153  1
  O  O329  1  0.99400277  0.87694414  0.48608189  1
  O  O330  1  0.99213638  0.88707022  0.99272370  1
  O  O331  1  0.49628691  0.49308417  0.37973365  1
  O  O332  1  0.49691896  0.48991919  0.88201289  1
  O  O333  1  0.49190596  1.00554977  0.38534079  1
  O  O334  1  0.49743761  0.99806491  0.88598594  1
  O  O335  1  0.99409035  0.49190988  0.37918951  1
  O  O336  1  0.99621579  0.49241108  0.87409451  1
  O  O337  1  0.98905574  0.99516207  0.36713331  1
  O  O338  1  0.99023403  0.99781410  0.88214126  1
  O  O339  1  0.00359489  0.00738810  0.11913061  1
  O  O340  1  -0.00406470  0.00301756  0.62783952  1
  O  O341  1  0.01277901  0.49881830  0.12449626  1
  O  O342  1  0.00947965  0.50623119  0.61771781  1
  O  O343  1  0.49871652  0.00164965  0.11154904  1
  O  O344  1  0.49435083  0.00794141  0.61402992  1
  O  O345  1  0.49938650  0.50735196  0.11829727  1
  O  O346  1  0.50754011  0.49868648  0.61652015  1
  O  O347  1  0.23982006  0.38126312  0.25079154  1
  O  O348  1  0.23974055  0.37758884  0.75537349  1
  O  O349  1  0.24706728  0.88605128  0.24301829  1
  O  O350  1  0.24931107  0.89255052  0.75066617  1
  O  O351  1  0.74227199  0.37925160  0.24854045  1
  O  O352  1  0.74638749  0.38028855  0.74484513  1
  O  O353  1  0.74279028  0.88332259  0.24617769  1
  O  O354  1  0.74275295  0.88088290  0.74167687  1
  O  O355  1  0.25132771  0.12043233  0.26363108  1
  O  O356  1  0.25551483  0.11807103  0.75357796  1
  O  O357  1  0.25190959  0.60911808  0.25372181  1
  O  O358  1  0.24673115  0.61899838  0.76509900  1
  O  O359  1  0.75550864  0.11976096  0.25076909  1
  O  O360  1  0.75686915  0.11606600  0.74103807  1
  O  O361  1  0.74760073  0.61120035  0.24735463  1
  O  O362  1  0.75639823  0.61950807  0.75730589  1
  O  O363  1  0.36310428  0.10915818  0.38131008  1
  O  O364  1  0.36701854  0.12561159  0.86276798  1
  O  O365  1  0.37651038  0.60984160  0.36980183  1
  O  O366  1  0.36677106  0.61472892  0.88198901  1
  O  O367  1  0.87379435  0.12059581  0.36839539  1
  O  O368  1  0.87789283  0.11870068  0.86233682  1
  O  O369  1  0.88099228  0.61271952  0.38164567  1
  O  O370  1  0.87069443  0.62098368  0.87311764  1
  O  O371  1  0.12600219  0.38013785  0.13496452  1
  O  O372  1  0.11967809  0.38671576  0.63438703  1
  O  O373  1  0.12088265  0.88851534  0.12750675  1
  O  O374  1  0.11077685  0.84611144  0.64040270  1
  O  O375  1  0.62589684  0.37712449  0.13619411  1
  O  O376  1  0.62960271  0.38134202  0.63233923  1
  O  O377  1  0.63734641  0.86666876  0.13826302  1
  O  O378  1  0.63171229  0.86818863  0.63720709  1
  O  O379  1  0.13084999  0.26317476  0.24498341  1
  O  O380  1  0.12162656  0.25858494  0.75268154  1
  O  O381  1  0.12925444  0.75165465  0.26417139  1
  O  O382  1  0.11552392  0.74779515  0.76777904  1
  O  O383  1  0.61655623  0.25827893  0.24766002  1
  O  O384  1  0.62373322  0.25312751  0.76244534  1
  O  O385  1  0.62125695  0.75570884  0.26229593  1
  O  O386  1  0.61816084  0.75603465  0.75623613  1
  O  O387  1  0.38424687  0.25786980  0.23850775  1
  O  O388  1  0.37326739  0.23897444  0.73836360  1
  O  O389  1  0.38441459  0.74860289  0.24502074  1
  O  O390  1  0.38251234  0.75681990  0.73892720  1
  O  O391  1  0.87314306  0.23810196  0.24303975  1
  O  O392  1  0.87930941  0.24227431  0.74584580  1
  O  O393  1  0.86800834  0.75406372  0.23613609  1
  O  O394  1  0.87234824  0.74367015  0.74423630  1
  O  O395  1  0.38480352  0.49879729  0.49192527  1
  O  O396  1  0.38344326  0.49036927  0.99283843  1
  O  O397  1  0.38257461  0.99216686  0.49480036  1
  O  O398  1  0.38821212  1.00030973  0.99607045  1
  O  O399  1  0.88002566  0.49278315  0.49307582  1
  O  O400  1  0.87988443  0.49314287  0.99383353  1
  O  O401  1  0.86527708  1.00180253  0.48573279  1
  O  O402  1  0.87785839  0.99742419  0.99418370  1
  O  O403  1  0.11278788  0.00095699  0.00748490  1
  O  O404  1  0.12552692  -0.00340349  0.50393346  1
  O  O405  1  0.12486442  0.50361029  0.01002486  1
  O  O406  1  0.12291522  0.50649081  0.50425278  1
  O  O407  1  0.61671590  0.01333252  -0.00682555  1
  O  O408  1  0.61744334  0.00833543  0.49730737  1
  O  O409  1  0.61222660  0.49279282  0.00193736  1
  O  O410  1  0.61907997  0.49358541  0.50943522  1
  O  O411  1  0.37525324  0.36802487  0.11331931  1
  O  O412  1  0.37731753  0.35893045  0.63038228  1
  O  O413  1  0.37704940  0.85766088  0.12393361  1
  O  O414  1  0.37972874  0.86296487  0.60888018  1
  O  O415  1  0.88023097  0.36574104  0.11672988  1
  O  O416  1  0.87080278  0.37193129  0.61827443  1
  O  O417  1  0.86267588  0.86981555  0.12255290  1
  O  O418  1  0.86513865  0.86550657  0.62460363  1
  O  O419  1  0.14082947  0.12147204  0.37734462  1
  O  O420  1  0.13229509  0.13534873  0.86850503  1
  O  O421  1  0.12438964  0.62945958  0.38532347  1
  O  O422  1  0.13180480  0.63073297  0.88252120  1
  O  O423  1  0.62788951  0.12727073  0.38951530  1
  O  O424  1  0.62320138  0.13790534  0.88192031  1
  O  O425  1  0.62526791  0.63556533  0.37196808  1
  O  O426  1  0.63156399  0.63787957  0.87055011  1
