# generated using pymatgen
data_V85Zn86O256
_symmetry_space_group_name_H-M   'P 1'
_cell_length_a   16.92299539
_cell_length_b   16.93641459
_cell_length_c   16.93584688
_cell_angle_alpha   89.88003440
_cell_angle_beta   89.96234441
_cell_angle_gamma   90.02054908
_symmetry_Int_Tables_number   1
_chemical_formula_structural   V85Zn86O256
_chemical_formula_sum   'V85 Zn86 O256'
_cell_volume   4854.05348383
_cell_formula_units_Z   1
loop_
 _symmetry_equiv_pos_site_id
 _symmetry_equiv_pos_as_xyz
  1  'x, y, z'
loop_
 _atom_site_type_symbol
 _atom_site_label
 _atom_site_symmetry_multiplicity
 _atom_site_fract_x
 _atom_site_fract_y
 _atom_site_fract_z
 _atom_site_occupancy
  V  V0  1  0.26122018  0.00320243  0.24798274  1
  V  V1  1  0.12646812  0.75181691  0.87546814  1
  V  V2  1  0.75085568  0.49971863  0.25005374  1
  V  V3  1  -0.00331317  -0.00108312  0.50077679  1
  V  V4  1  -0.00303194  0.36365297  0.87665524  1
  V  V5  1  0.12612162  0.62273629  0.50242408  1
  V  V6  1  0.75867157  0.37060114  0.61661748  1
  V  V7  1  0.50344955  0.00241532  0.00951258  1
  V  V8  1  -0.00146120  0.74610087  0.74973336  1
  V  V9  1  0.87293221  0.87432985  0.49947036  1
  V  V10  1  0.25122406  0.74937588  0.49876179  1
  V  V11  1  0.25159444  0.87178588  0.12357764  1
  V  V12  1  0.50034279  0.88390224  0.37248808  1
  V  V13  1  -0.00873318  0.49624891  0.50226229  1
  V  V14  1  0.25226178  0.62686059  0.87490420  1
  V  V15  1  0.12538394  0.48719808  0.62762632  1
  V  V16  1  -0.00235199  0.62317840  0.62898019  1
  V  V17  1  0.25118941  0.12842839  0.86735995  1
  V  V18  1  0.62359883  0.37206161  0.24591547  1
  V  V19  1  -0.00062447  0.24941453  0.24898330  1
  V  V20  1  0.75766101  0.25639441  0.00084016  1
  V  V21  1  0.24888335  0.49787594  0.74761742  1
  V  V22  1  -0.00641513  -0.00508809  0.00033254  1
  V  V23  1  0.37468873  0.37305427  0.00329216  1
  V  V24  1  0.00144862  0.62409162  0.12656725  1
  V  V25  1  0.63087708  0.24858113  0.37552727  1
  V  V26  1  0.74867368  0.62735846  0.37622689  1
  V  V27  1  0.50773841  0.87968491  0.87052268  1
  V  V28  1  0.93577172  0.18432178  0.69296249  1
  V  V29  1  0.25031523  0.87581719  0.62452788  1
  V  V30  1  0.62586579  0.24729164  0.87829771  1
  V  V31  1  0.11982068  0.00133066  0.62545177  1
  V  V32  1  0.75652500  0.12566674  0.87048272  1
  V  V33  1  0.38811239  0.62805882  0.25027003  1
  V  V34  1  0.24740497  0.25423437  -0.00203004  1
  V  V35  1  0.12239934  0.24813433  0.37935372  1
  V  V36  1  0.12049898  0.12411497  0.49852539  1
  V  V37  1  0.12453814  0.12737545  -0.00597177  1
  V  V38  1  0.62415619  0.51916128  0.12153048  1
  V  V39  1  0.49349124  0.13366258  0.62416396  1
  V  V40  1  0.87331919  0.74549594  0.62922207  1
  V  V41  1  0.25712740  0.50184998  0.24902705  1
  V  V42  1  0.37643571  0.00428330  0.86779095  1
  V  V43  1  0.62867090  0.11956795  0.49548766  1
  V  V44  1  0.25855904  0.12513083  0.37301070  1
  V  V45  1  0.12722344  0.62387302  0.00110622  1
  V  V46  1  0.38040681  0.74703687  0.62261348  1
  V  V47  1  -0.00815356  0.37393593  0.37940945  1
  V  V48  1  0.87832106  0.50438006  0.87192853  1
  V  V49  1  0.62352608  0.88069350  0.24246531  1
  V  V50  1  -0.00110946  0.12388576  0.12489026  1
  V  V51  1  0.61777179  0.75274124  0.36900959  1
  V  V52  1  0.50087843  0.37491416  0.87871145  1
  V  V53  1  0.61590392  0.62716596  0.50465688  1
  V  V54  1  0.25608622  0.62145218  0.37460327  1
  V  V55  1  0.36810487  0.37773096  0.51192453  1
  V  V56  1  0.75081853  0.88690081  0.11539219  1
  V  V57  1  0.74486591  0.62460773  0.88279564  1
  V  V58  1  0.12566035  0.87688547  0.25125177  1
  V  V59  1  0.74271164  0.87532856  0.63219745  1
  V  V60  1  0.31094484  0.31583918  0.17223583  1
  V  V61  1  0.61555764  0.50198604  0.62533228  1
  V  V62  1  0.62690505  0.37385556  0.74876639  1
  V  V63  1  0.12470610  0.36327984  0.75887172  1
  V  V64  1  0.50530249  0.75391901  0.74820904  1
  V  V65  1  0.74979367  0.00333490  0.74795950  1
  V  V66  1  0.38106294  0.62345793  0.74562893  1
  V  V67  1  0.12551656  0.87487776  0.75076972  1
  V  V68  1  0.12733534  0.37437067  0.24995879  1
  V  V69  1  0.37882276  0.88558172  0.49836758  1
  V  V70  1  0.61392473  -0.00167063  0.62591667  1
  V  V71  1  -0.00990731  0.87185907  0.87890041  1
  V  V72  1  0.75473969  0.50685033  0.74719540  1
  V  V73  1  0.86450108  0.12595581  0.25005694  1
  V  V74  1  0.74812649  0.75043787  0.50015735  1
  V  V75  1  0.49648738  0.38173490  0.37972915  1
  V  V76  1  0.39023023  0.74719214  0.12645975  1
  V  V77  1  -0.00035953  0.75056564  0.25096775  1
  V  V78  1  -0.00629683  0.49607334  0.00162639  1
  V  V79  1  0.50305571  0.51129096  0.00292890  1
  V  V80  1  0.86438778  0.00165611  0.37413138  1
  V  V81  1  0.12961878  0.49307276  0.12437645  1
  V  V82  1  0.87360320  0.75489128  0.11479003  1
  V  V83  1  0.87496577  0.62686153  0.25170999  1
  V  V84  1  0.49389097  0.13880525  0.13363578  1
  Zn  Zn85  1  0.37551842  0.87527060  -0.00219525  1
  Zn  Zn86  1  0.24554935  0.25641586  0.50590942  1
  Zn  Zn87  1  0.25241570  0.74971503  0.00227712  1
  Zn  Zn88  1  0.76047217  0.24581460  0.49806150  1
  Zn  Zn89  1  0.49304476  0.50620063  0.50116107  1
  Zn  Zn90  1  0.25194776  0.00571216  0.74760733  1
  Zn  Zn91  1  0.87944787  0.25915925  0.12065168  1
  Zn  Zn92  1  0.37649992  0.50171608  0.87734641  1
  Zn  Zn93  1  0.74193807  0.74957863  0.00212973  1
  Zn  Zn94  1  0.62104733  0.74714474  0.87705108  1
  Zn  Zn95  1  0.12648282  -0.00053854  0.12436173  1
  Zn  Zn96  1  0.62664189  0.12095674  0.00583528  1
  Zn  Zn97  1  0.75511116  0.38043041  0.11783175  1
  Zn  Zn98  1  -0.00186728  0.87379299  0.37364820  1
  Zn  Zn99  1  0.48585140  0.25060673  0.25381442  1
  Zn  Zn100  1  0.87321237  -0.00236839  0.87086074  1
  Zn  Zn101  1  0.49440769  0.24343414  0.75503692  1
  Zn  Zn102  1  0.12568108  0.74844997  0.37509114  1
  Zn  Zn103  1  0.38222637  0.01001636  0.37614571  1
  Zn  Zn104  1  0.74395821  0.00511917  0.24741340  1
  Zn  Zn105  1  0.87055435  0.49805578  0.37974541  1
  Zn  Zn106  1  0.35123407  0.24686902  0.64700443  1
  Zn  Zn107  1  0.18205647  0.18038932  0.18919026  1
  Zn  Zn108  1  0.17080717  0.18801247  0.68369436  1
  Zn  Zn109  1  0.18983663  0.68719173  0.18816079  1
  Zn  Zn110  1  0.18854358  0.68539976  0.68633063  1
  Zn  Zn111  1  0.67853931  0.18665112  0.18118125  1
  Zn  Zn112  1  0.68575108  0.18715055  0.68665995  1
  Zn  Zn113  1  0.68886543  0.69499439  0.18879157  1
  Zn  Zn114  1  0.68721332  0.68434528  0.68977236  1
  Zn  Zn115  1  0.31170949  0.31757597  0.33809755  1
  Zn  Zn116  1  0.31135232  0.31405902  0.81801165  1
  Zn  Zn117  1  0.31523598  0.81101865  0.31105599  1
  Zn  Zn118  1  0.31707009  0.81569831  0.81152878  1
  Zn  Zn119  1  0.81186484  0.31164025  0.31031865  1
  Zn  Zn120  1  0.81512359  0.31542518  0.81109483  1
  Zn  Zn121  1  0.80860777  0.81630744  0.30816036  1
  Zn  Zn122  1  0.81011719  0.81007101  0.80919201  1
  Zn  Zn123  1  0.18449505  0.43932494  0.43647855  1
  Zn  Zn124  1  0.18803656  0.43713964  0.93606965  1
  Zn  Zn125  1  0.18984072  0.93798982  0.43473522  1
  Zn  Zn126  1  0.18510273  0.94183256  0.93818931  1
  Zn  Zn127  1  0.68265559  0.43853630  0.43736276  1
  Zn  Zn128  1  0.68692833  0.43976379  0.93773670  1
  Zn  Zn129  1  0.68493128  0.93767945  0.44017987  1
  Zn  Zn130  1  0.68443770  0.93697343  0.93618253  1
  Zn  Zn131  1  0.31630499  0.06246950  0.05829178  1
  Zn  Zn132  1  0.30687731  0.06776275  0.56319397  1
  Zn  Zn133  1  0.31692454  0.56301152  0.06510111  1
  Zn  Zn134  1  0.31352276  0.55894192  0.56476039  1
  Zn  Zn135  1  0.81468221  0.06872914  0.05748197  1
  Zn  Zn136  1  0.81095419  0.06577331  0.56650758  1
  Zn  Zn137  1  0.81519374  0.56233218  0.06392082  1
  Zn  Zn138  1  0.80854940  0.56321428  0.56460813  1
  Zn  Zn139  1  0.44623416  0.44727979  0.19237414  1
  Zn  Zn140  1  0.43719751  0.43130020  0.69063047  1
  Zn  Zn141  1  0.43926502  0.93222671  0.18788894  1
  Zn  Zn142  1  0.43669676  0.93912586  0.68770933  1
  Zn  Zn143  1  0.93622905  0.43506253  0.18907706  1
  Zn  Zn144  1  0.93921385  0.43514106  0.69406830  1
  Zn  Zn145  1  0.93387838  0.93795263  0.18679929  1
  Zn  Zn146  1  0.93475163  0.93661630  0.68752787  1
  Zn  Zn147  1  0.06000713  0.05901903  0.31310837  1
  Zn  Zn148  1  0.06166896  0.06154945  0.81396430  1
  Zn  Zn149  1  0.06627021  0.56110191  0.31504097  1
  Zn  Zn150  1  0.06292574  0.56286084  0.81304552  1
  Zn  Zn151  1  0.56175879  0.06414213  0.30848067  1
  Zn  Zn152  1  0.56639122  0.06258921  0.80810690  1
  Zn  Zn153  1  0.56741124  0.56164037  0.31362920  1
  Zn  Zn154  1  0.56258522  0.56050377  0.81161726  1
  Zn  Zn155  1  0.44314264  0.19442360  0.44418172  1
  Zn  Zn156  1  0.43376091  0.18744386  0.94201875  1
  Zn  Zn157  1  0.43714377  0.69184539  0.43368643  1
  Zn  Zn158  1  0.43597387  0.69283299  0.93649351  1
  Zn  Zn159  1  0.93471924  0.18162017  0.43604168  1
  Zn  Zn160  1  0.93557495  0.18286505  0.93393920  1
  Zn  Zn161  1  0.93747720  0.68582988  0.43931408  1
  Zn  Zn162  1  0.93590828  0.68219401  0.93599358  1
  Zn  Zn163  1  0.06332900  0.31222877  0.05997852  1
  Zn  Zn164  1  -0.06155565  0.30908733  0.56134054  1
  Zn  Zn165  1  0.06468589  0.81224644  0.06314861  1
  Zn  Zn166  1  0.06181759  0.81286659  0.56099993  1
  Zn  Zn167  1  0.56427580  0.31285526  0.06373256  1
  Zn  Zn168  1  0.56586207  0.31062615  0.55999872  1
  Zn  Zn169  1  0.56735705  0.81467723  0.05508737  1
  Zn  Zn170  1  0.55945413  0.81432931  0.55961143  1
  O  O171  1  0.11298995  0.12149759  0.11715648  1
  O  O172  1  0.12163215  0.10821698  0.61429765  1
  O  O173  1  0.11988081  0.61550839  0.12286701  1
  O  O174  1  0.11832336  0.61738611  0.61958600  1
  O  O175  1  0.60412772  0.12486806  0.12107911  1
  O  O176  1  0.61935475  0.11856175  0.61520252  1
  O  O177  1  0.62737234  0.61731689  0.12938262  1
  O  O178  1  0.63052713  0.61601218  0.61571814  1
  O  O179  1  0.39188166  0.38278978  0.38297905  1
  O  O180  1  0.38502098  0.38064809  0.88588214  1
  O  O181  1  0.38336298  0.87351684  0.38135481  1
  O  O182  1  0.38285698  0.88471837  0.87720521  1
  O  O183  1  0.88873374  0.37950162  0.36562535  1
  O  O184  1  0.88942776  0.38634908  0.87126136  1
  O  O185  1  0.87444973  0.88094699  0.38110322  1
  O  O186  1  0.88685063  0.87149362  0.87208105  1
  O  O187  1  0.25231715  0.00792971  0.36573530  1
  O  O188  1  0.25759341  0.00868481  0.87514189  1
  O  O189  1  0.24449827  0.50704472  0.36045311  1
  O  O190  1  0.25058207  0.51046172  0.86592085  1
  O  O191  1  0.76111032  -0.00335141  0.37423298  1
  O  O192  1  0.74725212  0.00647287  0.86662885  1
  O  O193  1  0.74814430  0.50695491  0.36763727  1
  O  O194  1  0.75721480  0.50594687  0.87022494  1
  O  O195  1  0.24104844  0.50681686  0.13631433  1
  O  O196  1  0.24062902  0.50454678  0.63896505  1
  O  O197  1  0.25086188  0.99316091  0.13094632  1
  O  O198  1  0.23993274  0.99462513  0.62647940  1
  O  O199  1  0.74030778  0.50191326  0.13071718  1
  O  O200  1  0.74366962  0.49190286  0.63176314  1
  O  O201  1  0.75728618  0.98988407  0.12281941  1
  O  O202  1  0.74156178  0.99245722  0.62841593  1
  O  O203  1  0.00957309  0.37155408  0.25832912  1
  O  O204  1  0.01234866  0.38253495  0.76613556  1
  O  O205  1  0.00712383  0.86783497  0.24929306  1
  O  O206  1  0.00616694  0.86734099  0.75673587  1
  O  O207  1  0.50703832  0.37560798  0.26107601  1
  O  O208  1  0.51397607  0.37771737  0.76038648  1
  O  O209  1  0.50990811  0.87509879  0.25768975  1
  O  O210  1  0.49299990  0.86503567  0.75600207  1
  O  O211  1  0.49647925  0.13017085  0.23966187  1
  O  O212  1  0.50883523  0.12679388  0.73043532  1
  O  O213  1  0.48738526  0.62193126  0.25986975  1
  O  O214  1  0.48600904  0.62998952  0.75755272  1
  O  O215  1  0.99540024  0.12787709  0.24102811  1
  O  O216  1  0.99766777  0.12724112  0.75145558  1
  O  O217  1  0.99805186  0.63083839  0.24606263  1
  O  O218  1  1.00527566  0.63386184  0.74120315  1
  O  O219  1  0.36820488  0.26478084  0.00248299  1
  O  O220  1  0.37103879  0.26926967  0.49351143  1
  O  O221  1  0.37231464  0.75279866  0.01264599  1
  O  O222  1  0.37013915  0.75545940  0.50685255  1
  O  O223  1  0.86070053  0.24544855  -0.00084252  1
  O  O224  1  0.87269054  0.25402113  0.48980571  1
  O  O225  1  0.87527571  0.74524277  0.01263950  1
  O  O226  1  0.86921365  0.75365238  0.50851613  1
  O  O227  1  0.12117594  0.23845472  0.48627607  1
  O  O228  1  0.13483512  0.24089044  1.00529739  1
  O  O229  1  0.13240313  0.74204877  0.50036308  1
  O  O230  1  0.12749171  0.74153870  0.99411647  1
  O  O231  1  0.62985432  0.24090538  0.49264854  1
  O  O232  1  0.63240863  0.25063502  0.98942563  1
  O  O233  1  0.62969678  0.74442448  0.49492216  1
  O  O234  1  0.62865040  0.75017945  0.99009226  1
  O  O235  1  0.49762143  0.24397067  0.12976837  1
  O  O236  1  0.50367356  0.23924601  0.62747925  1
  O  O237  1  0.48823603  0.75785343  0.12286530  1
  O  O238  1  0.48789046  0.75522957  0.63066859  1
  O  O239  1  1.00096340  0.24225928  0.13042128  1
  O  O240  1  0.99506110  0.24826970  0.63761038  1
  O  O241  1  0.99467626  0.74682189  0.13417539  1
  O  O242  1  0.99234907  0.74499522  0.62850832  1
  O  O243  1  0.00573337  0.25592725  0.36835728  1
  O  O244  1  -0.00340902  0.26516748  0.88274252  1
  O  O245  1  0.00097054  0.74952052  0.36263008  1
  O  O246  1  0.00443986  0.75297785  0.87064265  1
  O  O247  1  0.50937644  0.26309707  0.37316035  1
  O  O248  1  0.50782683  0.25970728  0.87969465  1
  O  O249  1  0.51282076  0.76030370  0.37829274  1
  O  O250  1  0.49567755  0.76094801  0.86546295  1
  O  O251  1  0.23359992  0.11805459  0.48795963  1
  O  O252  1  0.24241661  0.13152029  0.99669072  1
  O  O253  1  0.24747392  0.62671887  0.49343649  1
  O  O254  1  0.24606410  0.62341606  0.99118640  1
  O  O255  1  0.73361642  0.12751927  0.50516940  1
  O  O256  1  0.74509234  0.13443293  0.99151617  1
  O  O257  1  0.74056024  0.63079066  0.49455440  1
  O  O258  1  0.75480033  0.62336088  0.98570377  1
  O  O259  1  0.25780784  0.36837479  -0.00200972  1
  O  O260  1  0.26348506  0.37721985  0.49264388  1
  O  O261  1  0.24894472  0.87658310  0.01321712  1
  O  O262  1  0.25530234  0.86782753  0.50391916  1
  O  O263  1  0.74724711  0.36050192  -0.00338508  1
  O  O264  1  0.74581108  0.37859069  0.51505996  1
  O  O265  1  0.74900694  0.87525944  0.01149488  1
  O  O266  1  0.75371031  0.86887895  0.50907502  1
  O  O267  1  0.13228350  0.49347878  0.24342107  1
  O  O268  1  0.13277737  0.50124466  0.74490180  1
  O  O269  1  0.13180762  0.99074337  0.24762046  1
  O  O270  1  0.12369708  0.99226896  0.74055446  1
  O  O271  1  0.63109824  0.49659013  0.23941315  1
  O  O272  1  0.63234670  0.49424697  0.74343143  1
  O  O273  1  0.62806517  0.98686417  0.25489128  1
  O  O274  1  0.63526870  0.99987914  0.73683310  1
  O  O275  1  0.36400229  -0.00637734  0.25374366  1
  O  O276  1  0.37141297  -0.00068057  0.76210700  1
  O  O277  1  0.36671254  0.51209965  0.24303796  1
  O  O278  1  0.36835838  0.50543329  0.75055866  1
  O  O279  1  0.87354582  0.00751742  0.25772262  1
  O  O280  1  0.85663695  -0.00916838  0.75038226  1
  O  O281  1  0.86603316  0.50887267  0.25207176  1
  O  O282  1  0.86709313  0.49738020  0.75877701  1
  O  O283  1  0.11785685  0.36600029  0.37147878  1
  O  O284  1  0.11251914  0.38231597  0.86690506  1
  O  O285  1  0.12503590  0.87117105  0.36244904  1
  O  O286  1  0.11903646  0.86925931  0.86971094  1
  O  O287  1  0.61821237  0.37006893  0.36723891  1
  O  O288  1  0.62099496  0.37010734  0.86912516  1
  O  O289  1  0.61897557  0.87039565  0.37110134  1
  O  O290  1  0.61120209  0.87533999  0.87054869  1
  O  O291  1  0.39473014  0.12154344  0.11711502  1
  O  O292  1  0.38973254  0.12741784  0.61592428  1
  O  O293  1  0.37380334  0.63908084  0.13281268  1
  O  O294  1  0.37054319  0.63447924  0.63319550  1
  O  O295  1  0.88611185  0.12917932  0.13006341  1
  O  O296  1  0.88270375  0.12551185  0.62734573  1
  O  O297  1  0.88181824  0.63224359  0.13216887  1
  O  O298  1  0.88247826  0.63450825  0.61929907  1
  O  O299  1  0.24845183  0.24878282  0.11995705  1
  O  O300  1  0.24570054  0.23318522  0.61526827  1
  O  O301  1  0.25479447  0.75847907  0.12410546  1
  O  O302  1  0.25951775  0.75503669  0.62002201  1
  O  O303  1  0.74675393  0.24961258  0.10771026  1
  O  O304  1  0.74271795  0.26829218  0.62423317  1
  O  O305  1  0.75953726  0.75856234  0.12327346  1
  O  O306  1  0.75445784  0.75451436  0.62266097  1
  O  O307  1  0.23882212  0.24183247  0.38028242  1
  O  O308  1  0.25275585  0.24295999  0.89032100  1
  O  O309  1  0.24870779  0.74151879  0.38092710  1
  O  O310  1  0.24703457  0.74339891  0.87616152  1
  O  O311  1  0.73497209  0.25693192  0.37557218  1
  O  O312  1  0.74550906  0.24589929  0.88132047  1
  O  O313  1  0.74142590  0.74791745  0.38060409  1
  O  O314  1  0.75271741  0.73309318  0.87134007  1
  O  O315  1  0.00576578  0.12046030  0.00482875  1
  O  O316  1  0.01194836  0.11260569  0.49048750  1
  O  O317  1  0.00725723  0.61668056  0.00608857  1
  O  O318  1  0.00749623  0.61798714  0.50618892  1
  O  O319  1  0.50146955  0.11511163  0.00383948  1
  O  O320  1  0.51338779  0.12995752  0.51239738  1
  O  O321  1  0.49308437  0.60966453  -0.00954779  1
  O  O322  1  0.51158069  0.62568466  0.49402355  1
  O  O323  1  0.49527303  0.37697118  0.49275993  1
  O  O324  1  0.49522611  0.38111593  0.99604124  1
  O  O325  1  0.48885181  0.87186167  0.48938721  1
  O  O326  1  0.49770266  0.88766431  0.99101776  1
  O  O327  1  1.00039291  0.38429233  0.49228333  1
  O  O328  1  1.00799347  0.38463419  0.98719826  1
  O  O329  1  0.99110625  0.87874536  0.49604634  1
  O  O330  1  1.00671703  0.88179213  0.99132498  1
  O  O331  1  0.51255638  0.48507155  0.38058821  1
  O  O332  1  0.50307382  0.48873705  0.88309414  1
  O  O333  1  0.49823692  0.98940997  0.37284266  1
  O  O334  1  0.49430337  0.99773670  0.87599233  1
  O  O335  1  1.00225073  0.49212361  0.38504201  1
  O  O336  1  0.99418516  0.50046662  0.88349564  1
  O  O337  1  0.99153477  0.99443473  0.38491991  1
  O  O338  1  0.99884269  0.98820252  0.88109873  1
  O  O339  1  0.00007881  0.00610206  0.11867002  1
  O  O340  1  0.00502846  -0.01133804  0.61002507  1
  O  O341  1  0.00681554  0.50373495  0.11921722  1
  O  O342  1  0.00479194  0.50326674  0.62072475  1
  O  O343  1  0.49562973  -0.00096851  0.11131787  1
  O  O344  1  0.50909974  0.00781610  0.62725693  1
  O  O345  1  0.51632859  0.50114954  0.11903444  1
  O  O346  1  0.51252890  0.49640155  0.62626660  1
  O  O347  1  0.25072344  0.37868046  0.24663155  1
  O  O348  1  0.23487010  0.38598194  0.76342157  1
  O  O349  1  0.24449543  0.87998887  0.24205635  1
  O  O350  1  0.24239868  0.87567001  0.74246330  1
  O  O351  1  0.74223931  0.38856713  0.25246190  1
  O  O352  1  0.74180843  0.38431939  0.74532937  1
  O  O353  1  0.74296216  0.88023774  0.23780297  1
  O  O354  1  0.74711447  0.87614942  0.73695512  1
  O  O355  1  0.24510478  0.11442301  0.25875377  1
  O  O356  1  0.23587365  0.12617378  0.76543262  1
  O  O357  1  0.25577500  0.61904637  0.25761900  1
  O  O358  1  0.25883218  0.62019639  0.75622055  1
  O  O359  1  0.76064486  0.12519356  0.23918448  1
  O  O360  1  0.74283005  0.11613425  0.75709980  1
  O  O361  1  0.75219416  0.61734525  0.25544761  1
  O  O362  1  0.74957619  0.61183018  0.75720561  1
  O  O363  1  0.36270171  0.12862631  0.38453119  1
  O  O364  1  0.36388604  0.11801925  0.88074342  1
  O  O365  1  0.36387946  0.63046442  0.36799734  1
  O  O366  1  0.36476718  0.62460839  0.86821463  1
  O  O367  1  0.87971703  0.11384043  0.36116292  1
  O  O368  1  0.86062769  0.11977873  0.87605058  1
  O  O369  1  0.86690430  0.62450638  0.36962511  1
  O  O370  1  0.86652624  0.61217311  0.87517697  1
  O  O371  1  0.12133464  0.38688612  0.13017855  1
  O  O372  1  0.11956164  0.38722769  0.64529216  1
  O  O373  1  0.13229215  0.87499043  0.13566602  1
  O  O374  1  0.12912543  0.88209724  0.62863912  1
  O  O375  1  0.62899972  0.37892093  0.13760683  1
  O  O376  1  0.63110067  0.38198764  0.63236683  1
  O  O377  1  0.63947607  0.87161365  0.13080440  1
  O  O378  1  0.63102082  0.88551919  0.61500929  1
  O  O379  1  0.12028195  0.25434868  0.25821499  1
  O  O380  1  0.12688917  0.26521433  0.75676088  1
  O  O381  1  0.11650849  0.75621276  0.24968552  1
  O  O382  1  0.12017941  0.75524909  0.75439353  1
  O  O383  1  0.62334079  0.25849998  0.25594276  1
  O  O384  1  0.62441243  0.25862132  0.76172029  1
  O  O385  1  0.63155488  0.76387350  0.26029227  1
  O  O386  1  0.60865210  0.74072982  0.75238846  1
  O  O387  1  0.36595770  0.26593447  0.24663238  1
  O  O388  1  0.38337047  0.26347468  0.75212037  1
  O  O389  1  0.37190229  0.74241760  0.23675579  1
  O  O390  1  0.38074617  0.74275033  0.74156058  1
  O  O391  1  0.88208710  0.24125029  0.24983998  1
  O  O392  1  0.87327341  0.24246072  0.75006570  1
  O  O393  1  0.88206635  0.74613311  0.24362217  1
  O  O394  1  0.88123241  0.75358659  0.73614887  1
  O  O395  1  0.37824936  0.48642531  0.50582053  1
  O  O396  1  0.38254799  0.49053165  1.00190558  1
  O  O397  1  0.36670686  0.98800799  0.49782375  1
  O  O398  1  0.38620681  0.99800418  0.98807362  1
  O  O399  1  0.88702723  0.50648119  0.49920551  1
  O  O400  1  0.88816961  0.50287902  0.99525201  1
  O  O401  1  0.87897421  0.99687754  0.49421106  1
  O  O402  1  0.88973031  1.00514404  0.99491622  1
  O  O403  1  0.11399099  0.00839795  0.00374728  1
  O  O404  1  0.11614917  0.00039474  0.50338933  1
  O  O405  1  0.11975360  0.50431535  0.00756351  1
  O  O406  1  0.11810315  0.50244397  0.51031725  1
  O  O407  1  0.60739346  0.00222365  -0.00680125  1
  O  O408  1  0.62697452  0.01238048  0.50671643  1
  O  O409  1  0.62083477  0.49736516  0.01470859  1
  O  O410  1  0.62372201  0.50988748  0.50889355  1
  O  O411  1  0.37718061  0.38114796  0.12181744  1
  O  O412  1  0.37710756  0.36954116  0.61452959  1
  O  O413  1  0.36804201  0.86408852  0.12496141  1
  O  O414  1  0.37024912  0.86986942  0.61696939  1
  O  O415  1  0.86805100  0.37166023  0.13009651  1
  O  O416  1  0.86296581  0.37945655  0.62674945  1
  O  O417  1  0.86184359  0.86751698  0.12971123  1
  O  O418  1  0.86592233  0.86689205  0.61786375  1
  O  O419  1  0.12947944  0.13037107  0.37709139  1
  O  O420  1  0.13151557  0.11870056  0.88875669  1
  O  O421  1  0.13655457  0.62549892  0.38284389  1
  O  O422  1  0.13519638  0.63110369  0.87839325  1
  O  O423  1  0.61655320  0.13161438  0.38714719  1
  O  O424  1  0.63240884  0.13448570  0.87594729  1
  O  O425  1  0.63011735  0.63459405  0.38004970  1
  O  O426  1  0.64195214  0.61977894  0.87112482  1
