# generated using pymatgen
data_V85Zn86O256
_symmetry_space_group_name_H-M   'P 1'
_cell_length_a   16.93086740
_cell_length_b   16.92664551
_cell_length_c   16.93094317
_cell_angle_alpha   90.01034610
_cell_angle_beta   89.99843431
_cell_angle_gamma   89.98842696
_symmetry_Int_Tables_number   1
_chemical_formula_structural   V85Zn86O256
_chemical_formula_sum   'V85 Zn86 O256'
_cell_volume   4852.11676367
_cell_formula_units_Z   1
loop_
 _symmetry_equiv_pos_site_id
 _symmetry_equiv_pos_as_xyz
  1  'x, y, z'
loop_
 _atom_site_type_symbol
 _atom_site_label
 _atom_site_symmetry_multiplicity
 _atom_site_fract_x
 _atom_site_fract_y
 _atom_site_fract_z
 _atom_site_occupancy
  V  V0  1  0.37514605  0.24987438  0.62473729  1
  V  V1  1  0.50320501  -0.00364500  0.50369796  1
  V  V2  1  -0.00071809  0.37332777  0.37327861  1
  V  V3  1  0.50076791  0.37739635  0.37283004  1
  V  V4  1  -0.00484866  0.12366687  0.12093438  1
  V  V5  1  0.25155663  0.13483285  0.88000806  1
  V  V6  1  0.62276811  0.48881701  0.12694801  1
  V  V7  1  0.12355673  0.73089222  0.87899462  1
  V  V8  1  0.25276351  0.73929511  -0.00589421  1
  V  V9  1  0.25217634  -0.00436213  0.74801095  1
  V  V10  1  0.75581953  0.48540613  0.75447094  1
  V  V11  1  0.00125627  0.74299505  0.24793312  1
  V  V12  1  0.37121692  0.62756896  0.75456169  1
  V  V13  1  0.24779072  0.24923125  0.50030609  1
  V  V14  1  0.36122578  0.75237850  0.62413943  1
  V  V15  1  -0.00330698  0.87059229  0.37847486  1
  V  V16  1  0.37369045  -0.00064709  0.37531239  1
  V  V17  1  0.75125803  0.00454239  0.74535507  1
  V  V18  1  0.12267923  0.12444762  0.50095337  1
  V  V19  1  0.36436685  0.25034803  0.12060376  1
  V  V20  1  0.75951204  0.37108970  0.12943256  1
  V  V21  1  0.50013041  0.87384639  0.37763829  1
  V  V22  1  0.87531394  0.62171124  0.23855302  1
  V  V23  1  0.74989365  0.12329063  0.37624893  1
  V  V24  1  -0.00099226  0.12928008  0.63918532  1
  V  V25  1  0.50259924  0.25832861  0.24689659  1
  V  V26  1  0.62963995  0.87328625  0.25214249  1
  V  V27  1  -0.00560718  -0.00424275  0.50264120  1
  V  V28  1  0.00475870  -0.00844880  -0.00288863  1
  V  V29  1  0.62847771  0.12671412  -0.00286568  1
  V  V30  1  0.24742129  0.37645438  0.62660791  1
  V  V31  1  0.37341124  0.37620513  0.49916677  1
  V  V32  1  0.50788866  0.87502892  0.87457028  1
  V  V33  1  0.49955354  0.50130821  0.49891776  1
  V  V34  1  0.12719091  0.13588779  0.00277041  1
  V  V35  1  0.50085903  0.62589274  0.62627103  1
  V  V36  1  0.75944129  0.25128412  0.00256153  1
  V  V37  1  0.50860471  0.74661056  0.75604699  1
  V  V38  1  0.50283193  0.37548026  0.86870556  1
  V  V39  1  0.36009346  0.87112547  0.50446711  1
  V  V40  1  0.50210747  0.12049406  0.62670687  1
  V  V41  1  0.37724976  0.00042220  0.87732607  1
  V  V42  1  0.12665964  0.87550324  0.76609452  1
  V  V43  1  -0.00134675  0.50246512  0.50288924  1
  V  V44  1  0.12539656  0.87462890  0.24474365  1
  V  V45  1  -0.00238958  0.51428052  -0.00414620  1
  V  V46  1  0.24499046  0.50480044  0.75304397  1
  V  V47  1  -0.00652365  0.75355904  0.74923060  1
  V  V48  1  0.88041984  0.00548860  0.86864957  1
  V  V49  1  0.62697717  0.25395852  0.86958900  1
  V  V50  1  -0.00062391  0.25384459  0.24098713  1
  V  V51  1  0.12349275  0.51808346  0.12679159  1
  V  V52  1  0.50382297  0.50196883  -0.00195529  1
  V  V53  1  0.77110839  0.87338629  0.62277533  1
  V  V54  1  0.74242962  0.49523769  0.25085542  1
  V  V55  1  0.11817771  0.36940573  0.75574520  1
  V  V56  1  0.37603264  0.12706216  0.74991860  1
  V  V57  1  0.87562002  0.12824436  0.24795217  1
  V  V58  1  0.87624646  0.75672356  0.12208076  1
  V  V59  1  0.36285399  0.62253592  0.25471058  1
  V  V60  1  0.12322775  0.24985809  0.37316119  1
  V  V61  1  0.62626994  0.87832657  0.73506221  1
  V  V62  1  0.87054308  0.87359781  -0.00583358  1
  V  V63  1  0.62973681  0.00093381  0.12506249  1
  V  V64  1  0.36866178  0.50295594  0.87685128  1
  V  V65  1  0.13694912  0.62754630  0.49953715  1
  V  V66  1  0.62759930  0.62879359  0.50398509  1
  V  V67  1  0.12932165  -0.00969441  0.62492587  1
  V  V68  1  0.50164324  0.12737084  0.12511337  1
  V  V69  1  0.76821417  0.75014655  0.50695752  1
  V  V70  1  0.86905232  0.36894264  0.50249217  1
  V  V71  1  0.50257872  0.62277918  0.12491194  1
  V  V72  1  0.75162014  -0.00309674  0.24953315  1
  V  V73  1  0.62637663  0.12165925  0.50319825  1
  V  V74  1  0.35977955  0.50191889  0.37303231  1
  V  V75  1  0.87625154  -0.00374329  0.37661872  1
  V  V76  1  0.62614459  0.25530911  0.37296654  1
  V  V77  1  0.37449704  0.12514455  0.25014380  1
  V  V78  1  0.87082139  0.24691012  0.63990561  1
  V  V79  1  0.63137354  0.48550820  0.63098446  1
  V  V80  1  0.50027407  0.74568316  0.25456738  1
  V  V81  1  0.87495420  0.49916629  0.37404768  1
  V  V82  1  0.13804205  0.74624007  0.37791348  1
  V  V83  1  0.36472601  0.37207212  -0.00230254  1
  V  V84  1  0.75049455  0.62554654  0.37555704  1
  Zn  Zn85  1  0.37325521  0.87464946  0.00036556  1
  Zn  Zn86  1  0.87190239  0.61891805  0.74494162  1
  Zn  Zn87  1  0.71096765  0.82732193  0.07987185  1
  Zn  Zn88  1  0.24637079  0.38465842  0.12796443  1
  Zn  Zn89  1  0.37043469  0.75061726  0.12584763  1
  Zn  Zn90  1  0.12773467  0.00052735  0.12501238  1
  Zn  Zn91  1  -0.00655750  0.63777417  0.61956411  1
  Zn  Zn92  1  0.75034454  0.25078793  0.50301941  1
  Zn  Zn93  1  0.25519670  0.87642178  0.12059568  1
  Zn  Zn94  1  0.75509402  0.12873491  0.86610922  1
  Zn  Zn95  1  0.87581126  0.38416040  -0.00180141  1
  Zn  Zn96  1  0.11993335  0.25204630  0.87620407  1
  Zn  Zn97  1  0.75045983  0.62477446  0.86985037  1
  Zn  Zn98  1  -0.01508208  0.37126594  0.87720108  1
  Zn  Zn99  1  0.14050947  0.38780906  0.25104612  1
  Zn  Zn100  1  0.50622331  0.25533723  0.74548545  1
  Zn  Zn101  1  0.62847960  0.75016457  0.37821558  1
  Zn  Zn102  1  0.12114919  0.50303961  0.62765617  1
  Zn  Zn103  1  0.25041712  -0.00223269  0.24694764  1
  Zn  Zn104  1  0.50128969  0.00098334  0.00013047  1
  Zn  Zn105  1  0.24799768  0.12387309  0.37368278  1
  Zn  Zn106  1  0.66062239  0.70128310  -0.04769089  1
  Zn  Zn107  1  0.18505354  0.18825102  0.18793619  1
  Zn  Zn108  1  0.18769408  0.18485786  0.68841253  1
  Zn  Zn109  1  0.18760157  0.69148702  0.18290633  1
  Zn  Zn110  1  0.18023038  0.68619904  0.68830607  1
  Zn  Zn111  1  0.68831130  0.18882670  0.18829910  1
  Zn  Zn112  1  0.68844817  0.18891100  0.68594915  1
  Zn  Zn113  1  0.68479436  0.68331939  0.17756344  1
  Zn  Zn114  1  0.69244540  0.68586575  0.69379153  1
  Zn  Zn115  1  0.31139271  0.31206122  0.31251674  1
  Zn  Zn116  1  0.31236050  0.31546643  0.81067650  1
  Zn  Zn117  1  0.31272955  0.81294781  0.31128040  1
  Zn  Zn118  1  0.31247031  0.81263041  0.81606651  1
  Zn  Zn119  1  0.81300008  0.31163523  0.31249589  1
  Zn  Zn120  1  0.80633190  0.32058968  0.81258194  1
  Zn  Zn121  1  0.81362869  0.80877732  0.31442605  1
  Zn  Zn122  1  0.80837501  0.80942456  0.82271604  1
  Zn  Zn123  1  0.18243085  0.43694203  0.43874730  1
  Zn  Zn124  1  0.18025233  0.44689067  0.94147604  1
  Zn  Zn125  1  0.18368188  0.93692991  0.43259454  1
  Zn  Zn126  1  0.19357092  0.94175571  0.94288011  1
  Zn  Zn127  1  0.68713064  0.43873344  0.44141798  1
  Zn  Zn128  1  0.68973253  0.43978052  0.94090450  1
  Zn  Zn129  1  0.68925814  0.93469358  0.44246224  1
  Zn  Zn130  1  0.68802115  0.94017377  0.92916519  1
  Zn  Zn131  1  0.31025337  0.06128467  0.06310321  1
  Zn  Zn132  1  0.31253389  0.06080112  0.56208069  1
  Zn  Zn133  1  0.31185853  0.56339268  0.06538107  1
  Zn  Zn134  1  0.31278418  0.56208938  0.56641584  1
  Zn  Zn135  1  0.81356196  0.06005819  0.06004998  1
  Zn  Zn136  1  0.81458951  0.06208988  0.56662010  1
  Zn  Zn137  1  0.81113423  0.57003852  0.05153162  1
  Zn  Zn138  1  0.81485780  0.56240184  0.57105002  1
  Zn  Zn139  1  0.42848750  0.43766856  0.18767209  1
  Zn  Zn140  1  0.43709508  0.44033627  0.68794096  1
  Zn  Zn141  1  0.43998942  0.93688482  0.18687630  1
  Zn  Zn142  1  0.43628847  0.93493287  0.68775313  1
  Zn  Zn143  1  0.94350422  0.44160522  0.18012386  1
  Zn  Zn144  1  0.93608240  0.43310071  0.68465075  1
  Zn  Zn145  1  0.93995375  0.93554584  0.18483503  1
  Zn  Zn146  1  0.94428527  0.93509899  0.69285221  1
  Zn  Zn147  1  0.06129136  0.06108905  0.31239157  1
  Zn  Zn148  1  0.06638642  0.06193532  0.81795083  1
  Zn  Zn149  1  0.06552966  0.56377125  0.31382578  1
  Zn  Zn150  1  0.05291029  0.56218238  0.81439231  1
  Zn  Zn151  1  0.56098250  0.06414975  0.31387225  1
  Zn  Zn152  1  0.56712420  0.06154836  0.81003179  1
  Zn  Zn153  1  0.56275101  0.56228886  0.31425147  1
  Zn  Zn154  1  0.56831285  0.56047539  0.81369507  1
  Zn  Zn155  1  0.43879015  0.18744130  0.43696726  1
  Zn  Zn156  1  0.44075955  0.18899677  0.93782541  1
  Zn  Zn157  1  0.43220426  0.68752432  0.43825731  1
  Zn  Zn158  1  0.43970597  0.68678327  0.93732259  1
  Zn  Zn159  1  0.93880263  0.18552750  0.43791013  1
  Zn  Zn160  1  0.94054363  0.19186788  0.93144510  1
  Zn  Zn161  1  0.94113779  0.68316002  0.43276486  1
  Zn  Zn162  1  0.93182595  0.68535369  0.92781942  1
  Zn  Zn163  1  0.06319988  0.32476324  0.06229373  1
  Zn  Zn164  1  0.05839359  0.31356997  0.56641685  1
  Zn  Zn165  1  0.06119302  0.80489464  0.05916410  1
  Zn  Zn166  1  0.06676260  0.81249911  0.56367352  1
  Zn  Zn167  1  0.56134228  0.31459586  0.05656879  1
  Zn  Zn168  1  0.55977366  0.30790799  0.55689039  1
  Zn  Zn169  1  0.54212982  0.81710237  0.06905019  1
  Zn  Zn170  1  0.55921797  0.80871791  0.56488357  1
  O  O171  1  0.11444830  0.12362881  0.12031970  1
  O  O172  1  0.11550025  0.11913601  0.62013274  1
  O  O173  1  0.12132849  0.61815138  0.12838620  1
  O  O174  1  0.11857824  0.62369015  0.61190038  1
  O  O175  1  0.62042257  0.12055516  0.12002624  1
  O  O176  1  0.61723296  0.12979539  0.61160803  1
  O  O177  1  0.60877017  0.60839567  0.13477780  1
  O  O178  1  0.61678294  0.61880637  0.61972179  1
  O  O179  1  0.38094868  0.38128465  0.38151874  1
  O  O180  1  0.38025987  0.38244882  0.87987792  1
  O  O181  1  0.38056451  0.88135588  0.38140021  1
  O  O182  1  0.38621442  0.88640048  0.87047577  1
  O  O183  1  0.88115403  0.37915877  0.38111678  1
  O  O184  1  0.86983951  0.37189458  0.88485811  1
  O  O185  1  0.88846621  0.87971699  0.37040214  1
  O  O186  1  0.87461733  0.88473311  0.88866642  1
  O  O187  1  0.26294491  0.00218559  0.37359313  1
  O  O188  1  0.26013584  0.00991058  0.86829378  1
  O  O189  1  0.26087409  0.49547950  0.37954410  1
  O  O190  1  0.26181040  0.49726926  0.86919620  1
  O  O191  1  0.75552679  0.00327547  0.37116814  1
  O  O192  1  0.75980627  0.00211517  0.86324653  1
  O  O193  1  0.75384606  0.50350244  0.36860586  1
  O  O194  1  0.73983585  0.49475182  0.85626379  1
  O  O195  1  0.23188591  0.50320438  0.11660038  1
  O  O196  1  0.24839358  0.49272812  0.63404531  1
  O  O197  1  0.24579218  0.99548589  0.12874434  1
  O  O198  1  0.24084556  1.00910627  0.63543555  1
  O  O199  1  0.74010357  0.49154732  0.13238280  1
  O  O200  1  0.73468858  0.49601501  0.62463280  1
  O  O201  1  0.73811277  1.00601585  0.13335094  1
  O  O202  1  0.75691337  0.98493123  0.62996271  1
  O  O203  1  -0.00603625  0.36559200  0.25696009  1
  O  O204  1  0.01657448  0.38210351  0.75071354  1
  O  O205  1  0.00562545  0.86657898  0.25778984  1
  O  O206  1  0.01602705  0.86684498  0.75047611  1
  O  O207  1  0.49361120  0.36418232  0.25390322  1
  O  O208  1  0.49329069  0.37470518  0.76373515  1
  O  O209  1  0.50900012  0.86732511  0.25716622  1
  O  O210  1  0.50691434  0.86822543  0.75313409  1
  O  O211  1  0.49117816  0.13344717  0.24702869  1
  O  O212  1  0.49633391  0.12572841  0.74074624  1
  O  O213  1  0.49524252  0.63152783  0.24840339  1
  O  O214  1  0.49287932  0.62982959  0.74374604  1
  O  O215  1  0.99327451  0.12873208  0.24335390  1
  O  O216  1  1.00543899  0.11923276  0.73706341  1
  O  O217  1  0.98939220  0.63571871  0.25932363  1
  O  O218  1  1.00356523  0.64192656  0.74698492  1
  O  O219  1  0.38199940  0.25865122  0.00915181  1
  O  O220  1  0.36882178  0.25416125  0.50448347  1
  O  O221  1  0.36417059  0.75130582  -0.00283028  1
  O  O222  1  0.37796359  0.75897991  0.50994817  1
  O  O223  1  0.85986936  0.24194379  0.00234848  1
  O  O224  1  0.87428053  0.25557346  0.50150939  1
  O  O225  1  0.88523153  0.76574184  0.00594602  1
  O  O226  1  0.86695050  0.74570270  0.49594821  1
  O  O227  1  0.12597091  0.24307290  0.49529631  1
  O  O228  1  0.12191169  0.23838904  1.00280376  1
  O  O229  1  0.12110380  0.73706376  0.49312697  1
  O  O230  1  0.13297757  0.75241670  0.98570928  1
  O  O231  1  0.62702672  0.24007207  0.49115521  1
  O  O232  1  0.62945006  0.24308474  0.99124895  1
  O  O233  1  0.62793130  0.73797068  0.50190092  1
  O  O234  1  0.63118811  0.75545057  1.04253263  1
  O  O235  1  0.49612446  0.24654436  0.13171567  1
  O  O236  1  0.49461075  0.23871265  0.62411196  1
  O  O237  1  0.49240103  0.73957782  0.14029386  1
  O  O238  1  0.49227793  0.73796209  0.63218514  1
  O  O239  1  1.00276475  0.24254058  0.13691551  1
  O  O240  1  0.99372931  0.23526703  0.62389793  1
  O  O241  1  0.99022903  0.75300665  0.13685050  1
  O  O242  1  1.01058428  0.75436787  0.64396933  1
  O  O243  1  0.00437008  0.25353624  0.36688971  1
  O  O244  1  0.00663683  0.25631361  0.87334346  1
  O  O245  1  0.00633557  0.75665588  0.36831983  1
  O  O246  1  0.01774302  0.74922560  0.86679541  1
  O  O247  1  0.50555805  0.25577980  0.36825203  1
  O  O248  1  0.50737215  0.25863284  0.87315005  1
  O  O249  1  0.50253561  0.75286596  0.36745500  1
  O  O250  1  0.49455072  0.75999964  0.86550215  1
  O  O251  1  0.23721167  0.12851720  0.50106811  1
  O  O252  1  0.24059634  0.12070794  0.99172118  1
  O  O253  1  0.23588822  0.61980476  0.50298119  1
  O  O254  1  0.25614442  0.63975676  0.99800628  1
  O  O255  1  0.74121404  0.12067384  0.49467287  1
  O  O256  1  0.73915308  0.13114393  1.00311862  1
  O  O257  1  0.74387930  0.63119936  0.49892773  1
  O  O258  1  0.73638700  0.61489719  0.98861074  1
  O  O259  1  0.26256235  0.37965716  -0.00202175  1
  O  O260  1  0.25277870  0.36991859  0.50695192  1
  O  O261  1  0.25455845  0.86611100  0.00012571  1
  O  O262  1  0.26129351  0.88345064  0.49904125  1
  O  O263  1  0.74957990  0.36821706  0.01194773  1
  O  O264  1  0.76512663  0.37319363  0.49561774  1
  O  O265  1  0.76503408  0.88680319  0.00002943  1
  O  O266  1  0.74794675  0.86651003  0.51464279  1
  O  O267  1  0.11636592  0.50207547  0.23562689  1
  O  O268  1  0.13175747  0.49431023  0.74961041  1
  O  O269  1  0.12618882  0.98899826  0.25134616  1
  O  O270  1  0.13296777  0.99535606  0.74520072  1
  O  O271  1  0.63492825  0.50008733  0.24635530  1
  O  O272  1  0.62312074  0.49631119  0.73354110  1
  O  O273  1  0.62893501  0.99454115  0.24649469  1
  O  O274  1  0.63704117  0.99021776  0.75160245  1
  O  O275  1  0.37859193  0.00754416  0.25887653  1
  O  O276  1  0.37028470  0.00631774  0.75598873  1
  O  O277  1  0.37919304  0.51345359  0.25937919  1
  O  O278  1  0.36862311  0.50776846  0.75685798  1
  O  O279  1  0.87196817  0.00701894  0.25450665  1
  O  O280  1  0.87019116  -0.00877117  0.76109037  1
  O  O281  1  0.86917095  0.50634825  0.25281772  1
  O  O282  1  0.85974840  0.49286491  0.74193803  1
  O  O283  1  0.11647836  0.36888951  0.37102525  1
  O  O284  1  0.13452002  0.37398472  0.86082394  1
  O  O285  1  0.11583848  0.86830525  0.36651959  1
  O  O286  1  0.12900589  0.88035658  0.86674488  1
  O  O287  1  0.61987039  0.36254923  0.38276534  1
  O  O288  1  0.61433057  0.36577841  0.88381086  1
  O  O289  1  0.61799174  0.87358552  0.37026949  1
  O  O290  1  0.61228100  0.88115384  0.86391291  1
  O  O291  1  0.38202710  0.13037260  0.13041697  1
  O  O292  1  0.38218887  0.12969508  0.62838998  1
  O  O293  1  0.38462429  0.62252283  0.13952092  1
  O  O294  1  0.38190634  0.62872504  0.63477770  1
  O  O295  1  0.88637740  0.11888563  0.13259151  1
  O  O296  1  0.88971104  0.13365217  0.62115528  1
  O  O297  1  0.87162604  0.63147700  0.13567615  1
  O  O298  1  0.88116377  0.62655040  0.63074428  1
  O  O299  1  0.26310661  0.24646112  0.12539252  1
  O  O300  1  0.25476415  0.25478799  0.61933455  1
  O  O301  1  0.25010502  0.75316857  0.10915494  1
  O  O302  1  0.26226384  0.74553416  0.63193180  1
  O  O303  1  0.74005710  0.26112531  0.11782239  1
  O  O304  1  0.76668880  0.24053825  0.61986945  1
  O  O305  1  0.77080825  0.75064695  0.14076550  1
  O  O306  1  0.74730073  0.76374424  0.62038848  1
  O  O307  1  0.24320005  0.24649561  0.38386574  1
  O  O308  1  0.25132141  0.23733061  0.87072078  1
  O  O309  1  0.23699750  0.75557942  0.37569152  1
  O  O310  1  0.23967192  0.75330430  0.88414523  1
  O  O311  1  0.74155709  0.24193893  0.37563879  1
  O  O312  1  0.74198367  0.24687617  0.88332209  1
  O  O313  1  0.74876764  0.74341844  0.38588215  1
  O  O314  1  0.73479343  0.74687896  0.87177575  1
  O  O315  1  0.00485881  0.11783407  0.00755540  1
  O  O316  1  0.01030451  0.11705296  0.50528740  1
  O  O317  1  -0.00236632  0.61497362  -0.00731170  1
  O  O318  1  0.00623574  0.61571941  0.49916295  1
  O  O319  1  0.51275163  0.12441690  0.00560755  1
  O  O320  1  0.50508324  0.11718887  0.50521494  1
  O  O321  1  0.49226721  0.61539311  0.01207119  1
  O  O322  1  0.50571419  0.62231322  0.50715520  1
  O  O323  1  0.49120502  0.37978157  0.49384319  1
  O  O324  1  0.48933738  0.38291086  0.99020710  1
  O  O325  1  0.49553309  0.88155626  0.49622875  1
  O  O326  1  0.49501485  0.88106901  0.98891436  1
  O  O327  1  0.99359049  0.37941420  0.49162710  1
  O  O328  1  0.99406242  0.38396751  0.99894438  1
  O  O329  1  1.00871411  0.88404137  0.49191487  1
  O  O330  1  0.99347022  0.88712974  1.00456665  1
  O  O331  1  0.49610637  0.49345505  0.38107195  1
  O  O332  1  0.49204645  0.49507397  0.88047737  1
  O  O333  1  0.49015883  0.99659332  0.38243731  1
  O  O334  1  0.49310525  0.99556713  0.87303578  1
  O  O335  1  0.99473175  0.49337887  0.38281724  1
  O  O336  1  1.00745207  0.49253394  0.89037467  1
  O  O337  1  0.99699947  0.99205236  0.38325978  1
  O  O338  1  0.99193566  1.00357719  0.88321031  1
  O  O339  1  0.00344424  0.00774046  0.11706663  1
  O  O340  1  0.00634672  0.00756944  0.61944361  1
  O  O341  1  0.01270610  0.50107041  0.11470264  1
  O  O342  1  0.00124102  0.49551188  0.61028590  1
  O  O343  1  0.51253763  0.00904203  0.12623921  1
  O  O344  1  0.49373572  0.01120631  0.61735498  1
  O  O345  1  0.50244008  0.50199936  0.11970599  1
  O  O346  1  0.50333164  0.51014738  0.61979046  1
  O  O347  1  0.25470029  0.37447241  0.24335245  1
  O  O348  1  0.24689492  0.38672361  0.74417651  1
  O  O349  1  0.24001333  0.87489151  0.24744588  1
  O  O350  1  0.24716804  0.88923890  0.75407679  1
  O  O351  1  0.75287208  0.38424094  0.24571753  1
  O  O352  1  0.74249414  0.38544871  0.74172483  1
  O  O353  1  0.73725652  0.87871830  0.25819105  1
  O  O354  1  0.74478752  0.87904755  0.73745925  1
  O  O355  1  0.26392989  0.12501507  0.25145934  1
  O  O356  1  0.25541704  0.11632538  0.75704581  1
  O  O357  1  0.26486167  0.63226066  0.24823877  1
  O  O358  1  0.25675290  0.61316744  0.74456810  1
  O  O359  1  0.75774445  0.11986739  0.25548207  1
  O  O360  1  0.74735944  0.10890516  0.74492447  1
  O  O361  1  0.75558817  0.61509587  0.25384014  1
  O  O362  1  0.74803159  0.60336829  0.74305946  1
  O  O363  1  0.37573635  0.11769899  0.36788853  1
  O  O364  1  0.37231755  0.12063431  0.86981710  1
  O  O365  1  0.37791481  0.61671269  0.36453882  1
  O  O366  1  0.38077473  0.61741669  0.86215875  1
  O  O367  1  0.87161651  0.11642522  0.36809851  1
  O  O368  1  0.87148379  0.10923933  0.88307492  1
  O  O369  1  0.86814474  0.61725399  0.36620674  1
  O  O370  1  0.86674660  0.63149422  0.85774382  1
  O  O371  1  0.12890673  0.38110625  0.13316644  1
  O  O372  1  0.13163503  0.37707392  0.63396674  1
  O  O373  1  0.12006617  0.87212378  0.13785512  1
  O  O374  1  0.12612795  0.88798052  0.63211006  1
  O  O375  1  0.62675063  0.38431528  0.12526553  1
  O  O376  1  0.61561689  0.38821974  0.61518730  1
  O  O377  1  0.62163739  0.88637290  0.13610498  1
  O  O378  1  0.62297845  0.87737567  0.63310563  1
  O  O379  1  0.11480020  0.24652989  0.25954265  1
  O  O380  1  0.13392416  0.26665140  0.74898764  1
  O  O381  1  0.11820249  0.75325849  0.25702868  1
  O  O382  1  0.12832856  0.75829372  0.76359577  1
  O  O383  1  0.61395317  0.24198388  0.26104614  1
  O  O384  1  0.62494556  0.24416816  0.76416435  1
  O  O385  1  0.61888991  0.75636559  0.25067894  1
  O  O386  1  0.61205788  0.75778445  0.73953880  1
  O  O387  1  0.38412965  0.24182234  0.24402524  1
  O  O388  1  0.37722025  0.24410375  0.74184423  1
  O  O389  1  0.38288039  0.73898511  0.25421144  1
  O  O390  1  0.38138639  0.74354993  0.74634881  1
  O  O391  1  0.88252119  0.23521683  0.25620112  1
  O  O392  1  0.86795832  0.24952210  0.73814062  1
  O  O393  1  0.88398754  0.74345265  0.24737222  1
  O  O394  1  0.89425009  0.76588223  0.75643522  1
  O  O395  1  0.38059617  0.49783557  0.49376324  1
  O  O396  1  0.38153304  0.49554124  0.99304939  1
  O  O397  1  0.38384794  0.99516148  0.49461902  1
  O  O398  1  0.37854834  1.00383801  0.98642710  1
  O  O399  1  0.88040195  0.49174543  0.49506519  1
  O  O400  1  0.89222457  0.50105039  1.01500844  1
  O  O401  1  0.88849867  1.00473735  0.49538186  1
  O  O402  1  0.88302240  0.99162237  0.99475162  1
  O  O403  1  0.11698725  0.00947245  -0.00028878  1
  O  O404  1  0.11959805  0.00593312  0.50656799  1
  O  O405  1  0.11258835  0.50071249  0.01238393  1
  O  O406  1  0.11699468  0.51031221  0.49949188  1
  O  O407  1  0.62669926  0.00704224  0.00757215  1
  O  O408  1  0.61105921  0.00607996  0.49392290  1
  O  O409  1  0.60949418  0.49288364  0.00908221  1
  O  O410  1  0.61982125  0.51044961  0.50721448  1
  O  O411  1  0.37380026  0.36694289  0.11492717  1
  O  O412  1  0.36897321  0.37106715  0.61949749  1
  O  O413  1  0.37802729  0.86986146  0.12179996  1
  O  O414  1  0.37945677  0.86487828  0.61664715  1
  O  O415  1  0.86186185  0.37550351  0.12680879  1
  O  O416  1  0.88608132  0.35416313  0.61584478  1
  O  O417  1  0.87641334  0.87002252  0.11292570  1
  O  O418  1  0.86936723  0.87485612  0.62438197  1
  O  O419  1  0.12477382  0.12934907  0.38394927  1
  O  O420  1  0.13531681  0.12727303  0.88331524  1
  O  O421  1  0.12223414  0.63286553  0.38784343  1
  O  O422  1  0.12960807  0.63336479  0.87051800  1
  O  O423  1  0.62692251  0.13145601  0.38469785  1
  O  O424  1  0.62811585  0.13080485  0.88316399  1
  O  O425  1  0.63236550  0.62473476  0.38580255  1
  O  O426  1  0.62644457  0.63349166  0.86865585  1
