# generated using pymatgen
data_V85Zn86O256
_symmetry_space_group_name_H-M   'P 1'
_cell_length_a   16.92580368
_cell_length_b   16.94369386
_cell_length_c   16.94597426
_cell_angle_alpha   89.97090953
_cell_angle_beta   89.95214409
_cell_angle_gamma   90.00006241
_symmetry_Int_Tables_number   1
_chemical_formula_structural   V85Zn86O256
_chemical_formula_sum   'V85 Zn86 O256'
_cell_volume   4859.85968244
_cell_formula_units_Z   1
loop_
 _symmetry_equiv_pos_site_id
 _symmetry_equiv_pos_as_xyz
  1  'x, y, z'
loop_
 _atom_site_type_symbol
 _atom_site_label
 _atom_site_symmetry_multiplicity
 _atom_site_fract_x
 _atom_site_fract_y
 _atom_site_fract_z
 _atom_site_occupancy
  V  V0  1  0.00306955  0.49550046  -0.00730414  1
  V  V1  1  0.25011953  -0.00148025  0.74189073  1
  V  V2  1  0.00263238  0.12332165  0.62792767  1
  V  V3  1  0.24884343  0.00026963  0.24784921  1
  V  V4  1  0.51541786  0.12745309  0.63047644  1
  V  V5  1  0.61921845  0.62525004  0.50233192  1
  V  V6  1  0.38024388  0.12922170  0.75179595  1
  V  V7  1  0.00894129  0.63132688  0.62331400  1
  V  V8  1  0.38233408  0.49751052  0.37011620  1
  V  V9  1  0.75033064  0.37668040  0.12504469  1
  V  V10  1  0.24659971  0.61938562  0.38785995  1
  V  V11  1  0.37783264  0.12257259  0.24654947  1
  V  V12  1  0.87106759  0.12013426  0.75268825  1
  V  V13  1  0.12544685  0.25038216  0.37386146  1
  V  V14  1  0.50744085  0.86823394  0.38772898  1
  V  V15  1  0.32942405  -0.05055613  0.42785028  1
  V  V16  1  0.74543560  0.61332207  0.86457310  1
  V  V17  1  0.37663260  0.75453425  0.12508069  1
  V  V18  1  -0.00179453  0.37591011  0.37240509  1
  V  V19  1  0.00985492  0.50649775  0.50019917  1
  V  V20  1  0.74735186  0.87352357  0.63959090  1
  V  V21  1  0.87858282  0.37238699  -0.00699783  1
  V  V22  1  0.38245377  0.38137885  0.00026264  1
  V  V23  1  0.87476380  0.24963054  0.12416368  1
  V  V24  1  0.62545483  0.75379361  0.86462967  1
  V  V25  1  0.12390787  0.87716901  0.24721609  1
  V  V26  1  0.38316446  0.37553878  0.49535194  1
  V  V27  1  0.62180309  -0.00414370  0.12240290  1
  V  V28  1  0.75106528  -0.00178349  0.24783248  1
  V  V29  1  0.73889159  0.23980689  0.49674378  1
  V  V30  1  0.62637094  -0.00428710  0.64534900  1
  V  V31  1  0.00045483  0.25709869  0.75500490  1
  V  V32  1  0.38255418  0.25097911  0.62902177  1
  V  V33  1  0.50238549  0.87810839  0.86655891  1
  V  V34  1  0.87252598  0.12863639  0.25124909  1
  V  V35  1  0.87780990  0.49717574  0.86769130  1
  V  V36  1  0.87429708  0.62470539  0.74058821  1
  V  V37  1  0.24789029  0.75086539  -0.00199904  1
  V  V38  1  0.62436691  0.49827501  0.12090601  1
  V  V39  1  0.55829222  0.05565037  0.45338504  1
  V  V40  1  0.25184033  0.37389369  0.12682561  1
  V  V41  1  0.36901458  0.77038603  0.62563786  1
  V  V42  1  0.87503210  0.74967763  0.11852658  1
  V  V43  1  0.74331971  0.75277741  0.50130435  1
  V  V44  1  0.24658018  0.88085494  0.12399644  1
  V  V45  1  0.62079684  0.62260264  -0.00305264  1
  V  V46  1  0.26052898  0.50378405  0.75755715  1
  V  V47  1  0.38488051  0.24593687  0.12394491  1
  V  V48  1  0.87263347  0.86764062  0.50650352  1
  V  V49  1  0.74911333  0.12278051  0.87508195  1
  V  V50  1  0.49614117  0.38791139  0.87180545  1
  V  V51  1  0.12634770  0.87592072  0.74544234  1
  V  V52  1  0.74296192  0.63275750  0.37479867  1
  V  V53  1  0.12219943  0.12120039  0.00711325  1
  V  V54  1  -0.00022733  0.62181099  0.12143998  1
  V  V55  1  0.87682721  0.24973363  0.62270468  1
  V  V56  1  0.87413877  0.62533049  0.24851475  1
  V  V57  1  0.75366465  0.87343609  0.11830688  1
  V  V58  1  0.50623605  0.75122280  0.25286644  1
  V  V59  1  0.87619449  0.50454797  0.37415557  1
  V  V60  1  0.87640782  -0.01053838  0.87913943  1
  V  V61  1  0.49845512  -0.00007611  0.00191818  1
  V  V62  1  -0.00402938  0.87337472  0.37305529  1
  V  V63  1  0.12264688  0.25491158  0.87703420  1
  V  V64  1  0.87308121  0.37527923  0.50075195  1
  V  V65  1  0.00059300  -0.01299656  0.00168937  1
  V  V66  1  0.24880000  0.25170975  0.50090970  1
  V  V67  1  0.00071674  0.74983948  0.24826316  1
  V  V68  1  0.24760517  0.12368617  0.87456657  1
  V  V69  1  0.49846279  0.62005868  0.12364091  1
  V  V70  1  0.87274681  -0.00031295  0.37421008  1
  V  V71  1  0.62325985  0.12567428  0.00826422  1
  V  V72  1  0.36334093  0.62005808  0.24607035  1
  V  V73  1  0.50521060  0.25340439  0.26205116  1
  V  V74  1  0.24717864  0.37514805  0.62783507  1
  V  V75  1  0.25452424  0.12630453  0.37619151  1
  V  V76  1  0.12746506  0.37831240  0.24783820  1
  V  V77  1  0.75340339  0.75030349  -0.00488188  1
  V  V78  1  0.12077710  0.75416196  0.87364318  1
  V  V79  1  -0.00090474  0.24871408  0.24824667  1
  V  V80  1  0.48737553  0.62086933  0.63463976  1
  V  V81  1  -0.00513151  0.00030846  0.50297350  1
  V  V82  1  0.60996977  0.24661762  0.87159215  1
  V  V83  1  -0.00550735  0.75644303  0.75041069  1
  V  V84  1  0.13606719  0.50163775  0.12318794  1
  Zn  Zn85  1  0.12388121  0.62448612  -0.00813714  1
  Zn  Zn86  1  0.60986815  0.38341160  0.26459318  1
  Zn  Zn87  1  0.73440012  0.12173786  0.37769117  1
  Zn  Zn88  1  0.74717883  0.25079467  -0.00007803  1
  Zn  Zn89  1  0.62576162  0.38058684  0.74959909  1
  Zn  Zn90  1  0.62738727  0.86904899  0.25302951  1
  Zn  Zn91  1  0.12960339  0.50593744  0.62639315  1
  Zn  Zn92  1  0.00258012  0.11854146  0.12628454  1
  Zn  Zn93  1  0.37447182  0.87879753  -0.00159446  1
  Zn  Zn94  1  0.63820889  0.50632588  0.64123540  1
  Zn  Zn95  1  0.12528889  0.12108975  0.49843463  1
  Zn  Zn96  1  0.74901557  0.38370685  0.63293530  1
  Zn  Zn97  1  0.50381584  0.49752979  0.50026496  1
  Zn  Zn98  1  0.25126161  0.24763093  0.00094375  1
  Zn  Zn99  1  0.49335137  0.75058043  0.75005483  1
  Zn  Zn100  1  0.25274286  0.75447387  0.50424672  1
  Zn  Zn101  1  0.12419442  0.74153061  0.38023961  1
  Zn  Zn102  1  0.74446256  0.49998769  0.25348616  1
  Zn  Zn103  1  0.12589148  -0.00244243  0.62475597  1
  Zn  Zn104  1  0.26237107  0.63253882  0.86000218  1
  Zn  Zn105  1  0.37370707  -0.00110103  0.87516202  1
  Zn  Zn106  1  0.12289750  0.38081763  0.75698065  1
  Zn  Zn107  1  0.19001717  0.18953626  0.18613398  1
  Zn  Zn108  1  0.18784684  0.18853465  0.68894455  1
  Zn  Zn109  1  0.18563781  0.69017934  0.18422311  1
  Zn  Zn110  1  0.19221566  0.68951604  0.68642525  1
  Zn  Zn111  1  0.68760619  0.18795440  0.18777105  1
  Zn  Zn112  1  0.70017466  0.21581936  0.70180113  1
  Zn  Zn113  1  0.68761873  0.68547387  0.18534282  1
  Zn  Zn114  1  0.68609313  0.68669008  0.68426747  1
  Zn  Zn115  1  0.31478843  0.31373377  0.30917160  1
  Zn  Zn116  1  0.31298823  0.31347600  0.81360175  1
  Zn  Zn117  1  0.31325214  0.80523545  0.31192500  1
  Zn  Zn118  1  0.31529749  0.81575018  0.80952142  1
  Zn  Zn119  1  0.77585534  0.33067022  0.33067476  1
  Zn  Zn120  1  0.80974806  0.30796376  0.81584104  1
  Zn  Zn121  1  0.81190080  0.81178161  0.31071694  1
  Zn  Zn122  1  0.81370337  0.80714116  0.81427698  1
  Zn  Zn123  1  0.19362520  0.43823379  0.43518919  1
  Zn  Zn124  1  0.19359203  0.43584836  0.93900253  1
  Zn  Zn125  1  0.15767687  0.90139396  0.46182971  1
  Zn  Zn126  1  0.18312632  0.93648458  0.93203340  1
  Zn  Zn127  1  0.68950442  0.44179205  0.44565630  1
  Zn  Zn128  1  0.68459125  0.43593496  0.93596024  1
  Zn  Zn129  1  0.68894489  0.93254661  0.43615226  1
  Zn  Zn130  1  0.68963282  0.93677824  0.93371252  1
  Zn  Zn131  1  0.31149878  0.06268175  0.06266724  1
  Zn  Zn132  1  0.31528843  0.06863891  0.56675597  1
  Zn  Zn133  1  0.33178343  0.58170125  0.02453367  1
  Zn  Zn134  1  0.31470466  0.55806287  0.56352476  1
  Zn  Zn135  1  0.81319812  0.06192512  0.05998453  1
  Zn  Zn136  1  0.80760705  0.06009719  0.56682309  1
  Zn  Zn137  1  0.81086928  0.56125048  0.05606111  1
  Zn  Zn138  1  0.81514620  0.56452498  0.55982274  1
  Zn  Zn139  1  0.43636416  0.43748404  0.18597363  1
  Zn  Zn140  1  0.43964314  0.43702847  0.68764237  1
  Zn  Zn141  1  0.43732428  0.93589041  0.19203336  1
  Zn  Zn142  1  0.44110243  0.94428123  0.68720671  1
  Zn  Zn143  1  0.93740352  0.43777867  0.18399442  1
  Zn  Zn144  1  0.93938677  0.43953047  0.68389845  1
  Zn  Zn145  1  0.93499801  0.93709849  0.18155140  1
  Zn  Zn146  1  0.93348631  0.93630638  0.69093226  1
  Zn  Zn147  1  0.06415740  0.06087558  0.31294489  1
  Zn  Zn148  1  0.06048303  0.06236234  0.81639210  1
  Zn  Zn149  1  0.06502237  0.56202153  0.30804631  1
  Zn  Zn150  1  0.06986138  0.56672389  0.80925088  1
  Zn  Zn151  1  0.55671451  0.05900811  0.29174838  1
  Zn  Zn152  1  0.56141572  0.06488156  0.81548790  1
  Zn  Zn153  1  0.56084723  0.56597257  0.31025957  1
  Zn  Zn154  1  0.55988066  0.55962192  0.80862217  1
  Zn  Zn155  1  0.43338773  0.19035960  0.43754241  1
  Zn  Zn156  1  0.43573712  0.18314716  0.94325092  1
  Zn  Zn157  1  0.43239781  0.68998915  0.44192081  1
  Zn  Zn158  1  0.43828678  0.69150996  0.93438878  1
  Zn  Zn159  1  0.93539950  0.18640504  0.43494975  1
  Zn  Zn160  1  0.93962878  0.18419711  0.93829265  1
  Zn  Zn161  1  0.93598419  0.68958838  0.43941869  1
  Zn  Zn162  1  0.93726248  0.68336329  0.93218138  1
  Zn  Zn163  1  0.06141450  0.31105774  0.06025945  1
  Zn  Zn164  1  0.06189495  0.31332792  0.56039335  1
  Zn  Zn165  1  0.06321287  0.81387326  0.06301895  1
  Zn  Zn166  1  0.06164239  0.80771714  0.56795272  1
  Zn  Zn167  1  0.56165572  0.31186375  0.06476817  1
  Zn  Zn168  1  0.56470079  0.31570584  0.56679855  1
  Zn  Zn169  1  0.56475676  0.81209645  0.05761435  1
  Zn  Zn170  1  0.56268788  0.80874260  0.56985290  1
  O  O171  1  0.12698256  0.12764445  0.11098890  1
  O  O172  1  0.11201505  0.12491538  0.62284128  1
  O  O173  1  0.11559975  0.61609207  0.12668368  1
  O  O174  1  0.11341968  0.62727898  0.62558691  1
  O  O175  1  0.63216517  0.11331796  0.11545337  1
  O  O176  1  0.61792405  0.12111598  0.63631049  1
  O  O177  1  0.61972242  0.61908285  0.11730628  1
  O  O178  1  0.61301105  0.62581002  0.61814482  1
  O  O179  1  0.36589593  0.38485222  0.38284410  1
  O  O180  1  0.38556512  0.36756115  0.88859483  1
  O  O181  1  0.38569990  0.88300480  0.36920873  1
  O  O182  1  0.38538257  0.87844740  0.87922449  1
  O  O183  1  0.87655182  0.38566288  0.38062712  1
  O  O184  1  0.86829628  0.38026363  0.88390326  1
  O  O185  1  0.87772904  0.88020062  0.38280393  1
  O  O186  1  0.86699026  0.89119198  0.87233864  1
  O  O187  1  0.25880701  0.00650371  0.36926389  1
  O  O188  1  0.24945376  0.01117777  0.86747110  1
  O  O189  1  0.26047196  0.51277393  0.37580060  1
  O  O190  1  0.24680435  0.49963337  0.86093671  1
  O  O191  1  0.75512656  0.00101854  0.36838121  1
  O  O192  1  0.76109181  0.01267040  0.88193883  1
  O  O193  1  0.76488795  0.51557224  0.37803737  1
  O  O194  1  0.75954851  0.50812698  0.88121073  1
  O  O195  1  0.23765496  0.49343628  0.11612702  1
  O  O196  1  0.24885638  0.49037242  0.63047416  1
  O  O197  1  0.25166382  0.98829186  0.13123261  1
  O  O198  1  0.24509551  1.01116341  0.63750813  1
  O  O199  1  0.74199828  0.49587547  0.12405738  1
  O  O200  1  0.75204268  0.49578425  0.61741716  1
  O  O201  1  0.74438244  0.99042341  0.12490859  1
  O  O202  1  0.73614322  0.98926730  0.62362794  1
  O  O203  1  0.00385964  0.36935356  0.25462059  1
  O  O204  1  0.00224024  0.36075104  0.74318556  1
  O  O205  1  0.00437985  0.87151582  0.24991001  1
  O  O206  1  0.00315586  0.86313724  0.74727295  1
  O  O207  1  0.49713960  0.35984176  0.24852824  1
  O  O208  1  0.49755033  0.37551104  0.76835402  1
  O  O209  1  0.50224239  0.86702187  0.25869909  1
  O  O210  1  0.49941939  0.87716043  0.76322263  1
  O  O211  1  0.48585975  0.13467308  0.24855693  1
  O  O212  1  0.48912806  0.12082137  0.74450053  1
  O  O213  1  0.49037207  0.63338904  0.24204367  1
  O  O214  1  0.49798465  0.62763309  0.73848915  1
  O  O215  1  0.99401543  0.12846147  0.24699438  1
  O  O216  1  0.99479074  0.13205302  0.74331111  1
  O  O217  1  0.99435595  0.63002548  0.24234813  1
  O  O218  1  0.99483587  0.63219935  0.74214423  1
  O  O219  1  0.37303181  0.25401252  0.00983826  1
  O  O220  1  0.36785839  0.25555740  0.50732097  1
  O  O221  1  0.36758810  0.75744821  0.01325691  1
  O  O222  1  0.37077639  0.74888821  0.51799824  1
  O  O223  1  0.87504081  0.25700754  0.00389978  1
  O  O224  1  0.88059884  0.25811148  0.50743039  1
  O  O225  1  0.86168338  0.74019834  0.00108206  1
  O  O226  1  0.86591931  0.76244157  0.49983674  1
  O  O227  1  0.13013677  0.24836385  0.49129167  1
  O  O228  1  0.12564089  0.24046214  0.99358932  1
  O  O229  1  0.13921601  0.78444647  0.48901710  1
  O  O230  1  0.12920538  0.75376151  0.99035223  1
  O  O231  1  0.64091946  0.25165225  0.50360466  1
  O  O232  1  0.62359425  0.23950143  0.99776904  1
  O  O233  1  0.63490081  0.74084057  0.50324594  1
  O  O234  1  0.63551804  0.74136962  0.99313092  1
  O  O235  1  0.48818842  0.25061992  0.13205546  1
  O  O236  1  0.48986512  0.24270961  0.62069014  1
  O  O237  1  0.49347605  0.74529584  0.12895747  1
  O  O238  1  0.49042195  0.74088952  0.62840665  1
  O  O239  1  0.99240484  0.24768485  0.13130112  1
  O  O240  1  0.99276404  0.24252706  0.62868272  1
  O  O241  1  0.99445522  0.74303455  0.12636641  1
  O  O242  1  0.99711580  0.74248833  0.63423061  1
  O  O243  1  0.00531284  0.25574115  0.36874418  1
  O  O244  1  0.00814396  0.24312110  0.86532001  1
  O  O245  1  0.00065923  0.75590522  0.36836811  1
  O  O246  1  0.00850431  0.74333308  0.86428281  1
  O  O247  1  0.49693845  0.24773197  0.36111196  1
  O  O248  1  0.50812166  0.25268873  0.88532544  1
  O  O249  1  0.49080033  0.76040088  0.36705271  1
  O  O250  1  0.50780424  0.75868091  0.87472099  1
  O  O251  1  0.24836100  0.13140211  0.49232825  1
  O  O252  1  0.24184549  0.12312635  0.99142347  1
  O  O253  1  0.24945983  0.62377976  0.48985344  1
  O  O254  1  0.23696702  0.64834359  1.02165892  1
  O  O255  1  0.75460089  0.13459770  0.49778768  1
  O  O256  1  0.74132445  0.12616217  0.99396987  1
  O  O257  1  0.74601879  0.63621504  0.49473330  1
  O  O258  1  0.73988178  0.62925571  0.99011134  1
  O  O259  1  0.26145341  0.37039037  0.00888094  1
  O  O260  1  0.25868291  0.37021643  0.50741322  1
  O  O261  1  0.24704194  0.87014308  0.00800293  1
  O  O262  1  0.26962959  0.89122464  0.48509739  1
  O  O263  1  0.75736507  0.37450838  0.00817036  1
  O  O264  1  0.76503013  0.36215330  0.50153328  1
  O  O265  1  0.74656925  0.86306769  0.00566085  1
  O  O266  1  0.75405585  0.86813866  0.50528178  1
  O  O267  1  0.11721658  0.48824016  0.23627790  1
  O  O268  1  0.13316453  0.49588924  0.74533509  1
  O  O269  1  0.13942501  0.99487505  0.25203240  1
  O  O270  1  0.12964062  0.99431155  0.75181762  1
  O  O271  1  0.62518922  0.50159904  0.23647538  1
  O  O272  1  0.63364538  0.49548958  0.75774409  1
  O  O273  1  0.63251557  0.99532565  0.23761099  1
  O  O274  1  0.62809762  1.00098513  0.74390272  1
  O  O275  1  0.36398896  0.00997088  0.24445385  1
  O  O276  1  0.36692018  0.01074191  0.75102861  1
  O  O277  1  0.37801961  0.50874562  0.25503725  1
  O  O278  1  0.35940711  0.49297535  0.74837490  1
  O  O279  1  0.86947785  0.00607759  0.25177755  1
  O  O280  1  0.88192095  0.01181668  0.76387041  1
  O  O281  1  0.87677256  0.50752370  0.25833996  1
  O  O282  1  0.88342328  0.50457374  0.76175089  1
  O  O283  1  0.12081518  0.37253167  0.36699954  1
  O  O284  1  0.13075253  0.35868758  0.87785129  1
  O  O285  1  0.11290686  0.87796153  0.35802893  1
  O  O286  1  0.12560051  0.86318932  0.86297127  1
  O  O287  1  0.67168435  0.37846138  0.35658937  1
  O  O288  1  0.61204422  0.36198443  0.88103993  1
  O  O289  1  0.61200193  0.87431143  0.37190941  1
  O  O290  1  0.61829880  0.86487778  0.88060623  1
  O  O291  1  0.36513401  0.13464553  0.13482797  1
  O  O292  1  0.38595720  0.13220202  0.63323535  1
  O  O293  1  0.38237762  0.63165385  0.12581543  1
  O  O294  1  0.38680410  0.62752063  0.62134622  1
  O  O295  1  0.87312891  0.12987671  0.13538919  1
  O  O296  1  0.88335904  0.12750305  0.63277249  1
  O  O297  1  0.87987289  0.62793661  0.12726707  1
  O  O298  1  0.88395905  0.62028988  0.63723527  1
  O  O299  1  0.25959600  0.25856861  0.12373684  1
  O  O300  1  0.25953112  0.25371872  0.62101576  1
  O  O301  1  0.25619974  0.76435396  0.12431013  1
  O  O302  1  0.26289674  0.75352719  0.62358936  1
  O  O303  1  0.75669978  0.25787193  0.12227734  1
  O  O304  1  0.76802638  0.24219297  0.61005176  1
  O  O305  1  0.75337292  0.75360855  0.11570519  1
  O  O306  1  0.74399574  0.76511722  0.61778513  1
  O  O307  1  0.24489277  0.24431178  0.37787432  1
  O  O308  1  0.24336697  0.23843393  0.87576942  1
  O  O309  1  0.25242197  0.73381412  0.37779260  1
  O  O310  1  0.24573692  0.75309427  0.88419962  1
  O  O311  1  0.76127674  0.23684130  0.39266702  1
  O  O312  1  0.73658452  0.23798527  0.88120821  1
  O  O313  1  0.75516047  0.74219182  0.38431010  1
  O  O314  1  0.74372670  0.74048638  0.87945580  1
  O  O315  1  0.00761538  0.11725702  0.00318963  1
  O  O316  1  -0.00164967  0.11602920  0.50726668  1
  O  O317  1  0.00239379  0.61670230  0.00522587  1
  O  O318  1  -0.00628716  0.61863944  0.50925275  1
  O  O319  1  0.50840904  0.10971003  -0.00122229  1
  O  O320  1  0.50192258  0.12461313  0.50787362  1
  O  O321  1  0.51390045  0.63444991  0.00943418  1
  O  O322  1  0.50654936  0.62661463  0.50762466  1
  O  O323  1  0.48692862  0.37412941  0.50178871  1
  O  O324  1  0.48871112  0.36966935  0.99477265  1
  O  O325  1  0.50398774  0.86643562  0.48666095  1
  O  O326  1  0.50124792  0.88598903  0.99327581  1
  O  O327  1  0.99140800  0.38161547  0.49282671  1
  O  O328  1  0.99133376  0.38348812  1.00111825  1
  O  O329  1  0.98898394  0.88000041  0.49875614  1
  O  O330  1  1.00173850  0.88765223  0.99982238  1
  O  O331  1  0.48705597  0.50626524  0.37729673  1
  O  O332  1  0.50223586  0.48599878  0.88110957  1
  O  O333  1  0.50765952  0.99475506  0.38461345  1
  O  O334  1  0.49999231  0.99412625  0.88361624  1
  O  O335  1  0.99255453  0.49924435  0.37946025  1
  O  O336  1  0.99481328  0.50689132  0.88486800  1
  O  O337  1  0.99325842  0.99405749  0.38268511  1
  O  O338  1  0.98502951  1.00513442  0.88481626  1
  O  O339  1  -0.00653904  0.00133738  0.10719702  1
  O  O340  1  -0.00309662  0.00751149  0.61983338  1
  O  O341  1  0.00565666  0.50346887  0.11234898  1
  O  O342  1  0.00352678  0.50847838  0.61585625  1
  O  O343  1  0.51377820  -0.00910654  0.12020775  1
  O  O344  1  0.51752429  0.00753040  0.62691606  1
  O  O345  1  0.50618427  0.51290860  0.12820053  1
  O  O346  1  0.49895728  0.51276302  0.62251002  1
  O  O347  1  0.24505494  0.37273180  0.23521988  1
  O  O348  1  0.24801970  0.38052554  0.74328444  1
  O  O349  1  0.24454244  0.88063931  0.24680168  1
  O  O350  1  0.24125543  0.88898959  0.75647520  1
  O  O351  1  0.76716955  0.38263073  0.22854669  1
  O  O352  1  0.73510208  0.33132877  0.73686177  1
  O  O353  1  0.74779681  0.87884273  0.24083345  1
  O  O354  1  0.75348206  0.86981182  0.73793642  1
  O  O355  1  0.25352597  0.11808367  0.25568635  1
  O  O356  1  0.25561987  0.12038364  0.75706555  1
  O  O357  1  0.26141807  0.63029401  0.24941158  1
  O  O358  1  0.25077453  0.60958727  0.74589744  1
  O  O359  1  0.75553418  0.11897559  0.25441244  1
  O  O360  1  0.76086642  0.13165752  0.75921092  1
  O  O361  1  0.75526853  0.62537289  0.25803104  1
  O  O362  1  0.75891437  0.63216380  0.75744252  1
  O  O363  1  0.36186287  0.13222019  0.36476172  1
  O  O364  1  0.36696334  0.12471441  0.86861297  1
  O  O365  1  0.36560563  0.61931154  0.36613055  1
  O  O366  1  0.35776976  0.61924006  0.91767885  1
  O  O367  1  0.87806031  0.11680900  0.36207508  1
  O  O368  1  0.86621201  0.12250548  0.86991029  1
  O  O369  1  0.87010601  0.62135637  0.36988818  1
  O  O370  1  0.86653597  0.61448427  0.86557978  1
  O  O371  1  0.13314055  0.37862319  0.12628912  1
  O  O372  1  0.13979709  0.37070603  0.62399304  1
  O  O373  1  0.13159383  0.87217139  0.13782997  1
  O  O374  1  0.12091122  0.87867568  0.64006085  1
  O  O375  1  0.63237440  0.38285115  0.12623434  1
  O  O376  1  0.62623847  0.38323750  0.62934028  1
  O  O377  1  0.63631292  0.87889146  0.12448864  1
  O  O378  1  0.63306059  0.88575013  0.62654708  1
  O  O379  1  0.11986211  0.25728850  0.25347801  1
  O  O380  1  0.11720876  0.24973266  0.75845233  1
  O  O381  1  0.11760763  0.75829008  0.25205975  1
  O  O382  1  0.11999246  0.75686208  0.75403980  1
  O  O383  1  0.60771564  0.24811303  0.24451788  1
  O  O384  1  0.61016960  0.24042806  0.77086674  1
  O  O385  1  0.61001075  0.74757683  0.24409307  1
  O  O386  1  0.62203387  0.74604530  0.76239008  1
  O  O387  1  0.38118070  0.24342666  0.24346508  1
  O  O388  1  0.36928850  0.24032585  0.74151562  1
  O  O389  1  0.38223751  0.74383973  0.23855412  1
  O  O390  1  0.37538163  0.75372831  0.73471774  1
  O  O391  1  0.87955407  0.24067019  0.24510963  1
  O  O392  1  0.88356261  0.24018253  0.74383395  1
  O  O393  1  0.88075735  0.74454457  0.24091427  1
  O  O394  1  0.88455960  0.73797114  0.75737411  1
  O  O395  1  0.37724562  0.49106820  0.49145896  1
  O  O396  1  0.37795703  0.47878299  1.01375045  1
  O  O397  1  0.37907664  1.00854650  0.49091484  1
  O  O398  1  0.38429915  0.99941888  0.99998297  1
  O  O399  1  0.88558599  0.49397664  0.49196608  1
  O  O400  1  0.88257115  0.49366716  0.98879678  1
  O  O401  1  0.88035311  0.99285654  0.49688779  1
  O  O402  1  0.88505528  1.00440523  0.98812897  1
  O  O403  1  0.10933057  0.00620642  -0.01040354  1
  O  O404  1  0.10793691  -0.00296821  0.50355088  1
  O  O405  1  0.11880764  0.50017068  0.00366633  1
  O  O406  1  0.11229158  0.49345532  0.49959725  1
  O  O407  1  0.62101516  0.00494171  0.00519973  1
  O  O408  1  0.62489222  0.00198048  0.50813080  1
  O  O409  1  0.62772255  0.50809141  0.01042149  1
  O  O410  1  0.62319606  0.51525647  0.50051067  1
  O  O411  1  0.37056650  0.36652016  0.11923648  1
  O  O412  1  0.36861437  0.36758923  0.61944233  1
  O  O413  1  0.36752940  0.86911847  0.12577499  1
  O  O414  1  0.38122520  0.86945930  0.62450992  1
  O  O415  1  0.87198605  0.37167601  0.11064507  1
  O  O416  1  0.87736080  0.36552395  0.61751479  1
  O  O417  1  0.86191887  0.86605800  0.12558275  1
  O  O418  1  0.85810727  0.88462452  0.61792719  1
  O  O419  1  0.13673475  0.12920277  0.37527662  1
  O  O420  1  0.13070077  0.13207563  0.88265650  1
  O  O421  1  0.14222986  0.62316254  0.36738529  1
  O  O422  1  0.13540136  0.63994661  0.87422857  1
  O  O423  1  0.61379514  0.10936367  0.38492311  1
  O  O424  1  0.62799688  0.13060170  0.88568270  1
  O  O425  1  0.63594176  0.62272752  0.38061030  1
  O  O426  1  0.62931298  0.62967476  0.88046806  1
