# generated using pymatgen
data_V85Zn86O256
_symmetry_space_group_name_H-M   'P 1'
_cell_length_a   16.93779596
_cell_length_b   16.93350967
_cell_length_c   16.92905128
_cell_angle_alpha   90.01033284
_cell_angle_beta   90.01696771
_cell_angle_gamma   89.90822109
_symmetry_Int_Tables_number   1
_chemical_formula_structural   V85Zn86O256
_chemical_formula_sum   'V85 Zn86 O256'
_cell_volume   4855.52186344
_cell_formula_units_Z   1
loop_
 _symmetry_equiv_pos_site_id
 _symmetry_equiv_pos_as_xyz
  1  'x, y, z'
loop_
 _atom_site_type_symbol
 _atom_site_label
 _atom_site_symmetry_multiplicity
 _atom_site_fract_x
 _atom_site_fract_y
 _atom_site_fract_z
 _atom_site_occupancy
  V  V0  1  0.74434125  0.61424622  0.87620184  1
  V  V1  1  0.00283450  0.62912504  0.63202049  1
  V  V2  1  0.62609242  0.74845075  0.38053138  1
  V  V3  1  0.75334122  0.74978236  0.49952510  1
  V  V4  1  0.37534708  0.12342447  0.74933941  1
  V  V5  1  0.62842923  0.24496265  0.87666775  1
  V  V6  1  0.75116116  0.37639703  0.62975499  1
  V  V7  1  0.12272056  0.24992827  0.37440928  1
  V  V8  1  0.75757205  0.74282142  0.00117654  1
  V  V9  1  0.62769909  0.49983939  0.63178008  1
  V  V10  1  0.25437621  0.25047914  0.00803692  1
  V  V11  1  0.87752203  0.49313974  0.87849680  1
  V  V12  1  0.37298624  0.87649233  0.00000145  1
  V  V13  1  0.37558758  0.25035936  0.62488401  1
  V  V14  1  0.00249989  0.25821315  0.74581953  1
  V  V15  1  0.62644126  0.74560288  0.87622241  1
  V  V16  1  0.87253135  0.26505553  0.12398783  1
  V  V17  1  0.24746144  0.25085958  0.50021682  1
  V  V18  1  -0.00651874  0.00385667  -0.01917832  1
  V  V19  1  0.50397010  0.51212511  0.00478257  1
  V  V20  1  0.12120962  0.49578960  0.62394046  1
  V  V21  1  0.75411204  0.25861032  0.00465740  1
  V  V22  1  0.37546141  0.74346008  0.12458502  1
  V  V23  1  0.24626045  0.74757170  -0.02084873  1
  V  V24  1  0.62675017  0.87401152  0.25274061  1
  V  V25  1  0.62641597  0.37480116  0.75082780  1
  V  V26  1  0.37593586  0.50066511  0.37415514  1
  V  V27  1  0.24992531  0.62588535  0.36812712  1
  V  V28  1  0.24686540  0.37689787  0.62902675  1
  V  V29  1  0.00150432  0.49288027  0.01533689  1
  V  V30  1  0.87246058  0.38153532  0.49384052  1
  V  V31  1  0.87074799  0.61816961  0.75121927  1
  V  V32  1  0.37935491  0.88378629  0.50150249  1
  V  V33  1  0.12278195  0.87061157  0.75397180  1
  V  V34  1  0.49629581  0.37287655  0.88363939  1
  V  V35  1  -0.00234497  0.25056343  0.24952052  1
  V  V36  1  0.37361333  0.75110988  0.62391568  1
  V  V37  1  0.88407921  0.62584545  0.24532593  1
  V  V38  1  0.12286874  0.12703643  -0.00310549  1
  V  V39  1  0.87906127  0.24320326  0.62353225  1
  V  V40  1  -0.00335325  0.85249803  0.86721952  1
  V  V41  1  0.49999305  0.50016037  0.50252665  1
  V  V42  1  -0.00705013  0.12115077  0.12470093  1
  V  V43  1  0.00403112  0.88504040  0.37092470  1
  V  V44  1  0.37343989  0.37543457  0.50075883  1
  V  V45  1  0.63004260  0.37723650  0.23827570  1
  V  V46  1  0.74768874  0.87585897  0.63213145  1
  V  V47  1  0.12557165  -0.00356408  0.12763588  1
  V  V48  1  0.00104305  0.00559821  0.51549129  1
  V  V49  1  0.36818656  0.62639158  0.75429890  1
  V  V50  1  0.74852603  0.24818136  0.49799339  1
  V  V51  1  0.12177200  0.75688147  0.36295327  1
  V  V52  1  0.50579706  0.87618850  0.87393279  1
  V  V53  1  0.88072008  0.75186291  0.63132031  1
  V  V54  1  0.49985832  0.62485392  0.62711568  1
  V  V55  1  0.76317345  -0.00396730  0.25205900  1
  V  V56  1  0.24832655  0.12474784  0.87413361  1
  V  V57  1  0.24160629  0.88396986  0.62352663  1
  V  V58  1  0.13186179  0.37929756  0.23843693  1
  V  V59  1  0.61982560  -0.00280058  0.62702995  1
  V  V60  1  0.23998510  0.50152919  0.75248626  1
  V  V61  1  0.25047264  0.75199979  0.49763955  1
  V  V62  1  0.50050185  -0.00390531  -0.00122147  1
  V  V63  1  0.75620373  0.87035160  0.12190065  1
  V  V64  1  0.75043830  0.00007546  0.75709945  1
  V  V65  1  0.50101098  0.88231485  0.37807461  1
  V  V66  1  0.24569174  0.12231124  0.37473302  1
  V  V67  1  0.61840083  0.11964228  0.50025843  1
  V  V68  1  -0.00122620  0.38264853  0.37408767  1
  V  V69  1  0.36929168  0.49523790  0.87195400  1
  V  V70  1  0.50281804  0.73684090  0.24889201  1
  V  V71  1  0.75681908  0.11691832  0.37658658  1
  V  V72  1  0.37219772  0.12041800  0.24954028  1
  V  V73  1  0.11412267  0.62670881  -0.00494755  1
  V  V74  1  0.50189319  0.24642322  0.25137793  1
  V  V75  1  0.32337877  0.42583317  0.05756776  1
  V  V76  1  0.12073783  0.12318561  0.51359443  1
  V  V77  1  0.50517504  0.75377651  0.74986771  1
  V  V78  1  0.50097399  0.24918806  0.75010711  1
  V  V79  1  0.88329737  0.12017442  0.75560317  1
  V  V80  1  0.12404258  0.62712742  0.49923213  1
  V  V81  1  0.12474278  0.26012553  0.87131377  1
  V  V82  1  0.62501398  -0.00786090  0.12548559  1
  V  V83  1  0.87785861  0.88157631  0.49701940  1
  V  V84  1  0.50033711  0.12194291  0.12349596  1
  Zn  Zn85  1  0.87361829  0.87666558  -0.00858056  1
  Zn  Zn86  1  0.62982916  0.12168455  0.00072489  1
  Zn  Zn87  1  0.24766831  0.87143261  0.12909270  1
  Zn  Zn88  1  0.24284751  -0.00786814  0.25467010  1
  Zn  Zn89  1  0.38165356  0.61976649  0.24529788  1
  Zn  Zn90  1  0.50075159  0.37039175  0.37578450  1
  Zn  Zn91  1  0.75646218  0.11958616  0.88021722  1
  Zn  Zn92  1  0.65459416  0.57023432  0.07804138  1
  Zn  Zn93  1  0.62512116  0.24833776  0.37351229  1
  Zn  Zn94  1  0.77614261  0.60058044  0.38261354  1
  Zn  Zn95  1  0.37804271  0.00097095  0.37650345  1
  Zn  Zn96  1  0.00023578  0.37892557  0.87468348  1
  Zn  Zn97  1  0.87520976  0.12342025  0.25311246  1
  Zn  Zn98  1  0.37522008  0.25244790  0.12213184  1
  Zn  Zn99  1  -0.00010587  0.73768535  0.21629585  1
  Zn  Zn100  1  0.24064190  0.00501912  0.74389749  1
  Zn  Zn101  1  0.49777381  0.11962744  0.62110963  1
  Zn  Zn102  1  0.63151167  0.62251139  0.50351568  1
  Zn  Zn103  1  0.25371743  0.49264375  0.24278330  1
  Zn  Zn104  1  0.37360365  -0.00037147  0.87266931  1
  Zn  Zn105  1  0.75468001  0.50256636  0.24181529  1
  Zn  Zn106  1  -0.01031734  0.50911139  0.49498179  1
  Zn  Zn107  1  0.18266848  0.18454765  0.18714270  1
  Zn  Zn108  1  0.18745798  0.19187826  0.68967944  1
  Zn  Zn109  1  0.18689677  0.69242961  0.18435190  1
  Zn  Zn110  1  0.18722321  0.69072335  0.68955539  1
  Zn  Zn111  1  0.68772999  0.18497757  0.18654625  1
  Zn  Zn112  1  0.69104126  0.18365701  0.68722929  1
  Zn  Zn113  1  0.70030594  0.68624566  0.19633092  1
  Zn  Zn114  1  0.68932191  0.68705013  0.69142475  1
  Zn  Zn115  1  0.31466488  0.30917395  0.31123786  1
  Zn  Zn116  1  0.30929045  0.31307964  0.81276710  1
  Zn  Zn117  1  0.31477064  0.81440278  0.30949403  1
  Zn  Zn118  1  0.31643349  0.82023171  0.80690828  1
  Zn  Zn119  1  0.80986213  0.31372889  0.31053369  1
  Zn  Zn120  1  0.81279861  0.30983419  0.81282559  1
  Zn  Zn121  1  0.81922048  0.80751964  0.31198556  1
  Zn  Zn122  1  0.81435409  0.80852022  0.81251997  1
  Zn  Zn123  1  0.18514900  0.43903360  0.43586097  1
  Zn  Zn124  1  0.17972132  0.44438690  0.93666728  1
  Zn  Zn125  1  0.18361871  0.94034186  0.44092838  1
  Zn  Zn126  1  0.18309311  0.93781160  0.93569180  1
  Zn  Zn127  1  0.68266815  0.43300042  0.43183258  1
  Zn  Zn128  1  0.68563125  0.43521771  0.93990343  1
  Zn  Zn129  1  0.68968813  0.93716530  0.44093190  1
  Zn  Zn130  1  0.68465296  0.93159966  0.93717799  1
  Zn  Zn131  1  0.31235464  0.06332896  0.06002605  1
  Zn  Zn132  1  0.31150409  0.06385139  0.56046770  1
  Zn  Zn133  1  0.27106022  0.59561237  0.08094827  1
  Zn  Zn134  1  0.31031154  0.56476142  0.56251698  1
  Zn  Zn135  1  0.81224948  0.06258654  0.06089940  1
  Zn  Zn136  1  0.81194564  0.06075804  0.56568044  1
  Zn  Zn137  1  0.82444072  0.56045282  0.07021567  1
  Zn  Zn138  1  0.81119051  0.56311702  0.56701678  1
  Zn  Zn139  1  0.45691929  0.44502163  0.19446643  1
  Zn  Zn140  1  0.43675128  0.43570919  0.69110115  1
  Zn  Zn141  1  0.43627301  0.93066986  0.18961524  1
  Zn  Zn142  1  0.43535059  0.93765359  0.68752813  1
  Zn  Zn143  1  0.93558545  0.44333804  0.19622337  1
  Zn  Zn144  1  0.93551137  0.43828867  0.68660432  1
  Zn  Zn145  1  0.95943030  0.90720488  0.16404537  1
  Zn  Zn146  1  0.93938142  0.93647557  0.69088640  1
  Zn  Zn147  1  0.05799481  0.06013763  0.31401425  1
  Zn  Zn148  1  0.06756559  0.06541249  0.79990911  1
  Zn  Zn149  1  0.06257735  0.56216118  0.30794572  1
  Zn  Zn150  1  0.06041371  0.56894986  0.81659736  1
  Zn  Zn151  1  0.56826648  0.06186261  0.31243274  1
  Zn  Zn152  1  0.56421433  0.06121202  0.80920113  1
  Zn  Zn153  1  0.58855898  0.55045398  0.32456992  1
  Zn  Zn154  1  0.55807322  0.56208624  0.81480141  1
  Zn  Zn155  1  0.43565564  0.18495218  0.43665364  1
  Zn  Zn156  1  0.43649060  0.18628395  0.93883769  1
  Zn  Zn157  1  0.43921403  0.68882807  0.43586965  1
  Zn  Zn158  1  0.43027743  0.68825975  0.93462789  1
  Zn  Zn159  1  0.93708758  0.18810588  0.43791359  1
  Zn  Zn160  1  0.93650030  0.19269128  0.93624115  1
  Zn  Zn161  1  0.93977020  0.69217842  0.43355722  1
  Zn  Zn162  1  0.93399467  0.67979343  0.94109321  1
  Zn  Zn163  1  0.06010098  0.31115501  0.06117701  1
  Zn  Zn164  1  0.05934750  0.31437029  0.56063717  1
  Zn  Zn165  1  0.06741118  0.81460269  0.04863486  1
  Zn  Zn166  1  0.06354321  0.81333632  0.56117182  1
  Zn  Zn167  1  0.56055266  0.30851180  0.06026972  1
  Zn  Zn168  1  0.56284081  0.31120467  0.56226683  1
  Zn  Zn169  1  0.58584751  0.76359417  0.08236323  1
  Zn  Zn170  1  0.56364809  0.81550681  0.56434453  1
  O  O171  1  0.11111773  0.12184579  0.11632780  1
  O  O172  1  0.12955333  0.13086354  0.61253962  1
  O  O173  1  0.15527363  0.62243519  0.09735500  1
  O  O174  1  0.11957304  0.61912256  0.62218890  1
  O  O175  1  0.61353528  0.11290234  0.12680748  1
  O  O176  1  0.62510247  0.11725068  0.61735534  1
  O  O177  1  0.61422277  0.66033941  0.12845812  1
  O  O178  1  0.62054863  0.61650242  0.62560224  1
  O  O179  1  0.37684194  0.38205497  0.38211099  1
  O  O180  1  0.38431463  0.38273663  0.86626468  1
  O  O181  1  0.38368133  0.87606537  0.38412149  1
  O  O182  1  0.38447530  0.87755249  0.88267332  1
  O  O183  1  0.88333819  0.36899490  0.38277012  1
  O  O184  1  0.87207761  0.39005028  0.86986544  1
  O  O185  1  0.88673898  0.87050592  0.39152256  1
  O  O186  1  0.89242250  0.87271705  0.86937309  1
  O  O187  1  0.24875695  0.01226975  0.37570517  1
  O  O188  1  0.24948588  0.01504453  0.87488423  1
  O  O189  1  0.26213294  0.50703250  0.37678225  1
  O  O190  1  0.25948554  0.49208842  0.86632881  1
  O  O191  1  0.74635747  0.00457991  0.36580600  1
  O  O192  1  0.74391562  -0.00241829  0.86162090  1
  O  O193  1  0.70537241  0.51466750  0.35651920  1
  O  O194  1  0.75592992  0.50849029  0.88339687  1
  O  O195  1  0.26944820  0.48732991  0.11970648  1
  O  O196  1  0.24175987  0.49705919  0.63099311  1
  O  O197  1  0.23264597  1.00945463  0.12160782  1
  O  O198  1  0.25306716  0.98756798  0.62276346  1
  O  O199  1  0.73955100  0.51558406  0.12768793  1
  O  O200  1  0.73954570  0.48945851  0.62147856  1
  O  O201  1  0.73798966  0.99668657  0.13026387  1
  O  O202  1  0.74458595  0.99277997  0.63399089  1
  O  O203  1  0.00918479  0.37062887  0.25737709  1
  O  O204  1  -0.00627591  0.36232915  0.75195607  1
  O  O205  1  -0.00583032  0.88850940  0.27238151  1
  O  O206  1  0.00772027  0.87429215  0.75930843  1
  O  O207  1  0.49789497  0.35419726  0.25097934  1
  O  O208  1  0.50566398  0.36779492  0.75873732  1
  O  O209  1  0.50723420  0.86791311  0.25982613  1
  O  O210  1  0.48930336  0.86154223  0.75764586  1
  O  O211  1  0.49546611  0.12900188  0.24480455  1
  O  O212  1  0.49113727  0.13117740  0.74814335  1
  O  O213  1  0.50324609  0.63622451  0.26263559  1
  O  O214  1  0.49204211  0.63396905  0.74516314  1
  O  O215  1  0.99738832  0.13051412  0.24242309  1
  O  O216  1  0.98826350  0.13524067  0.74920879  1
  O  O217  1  0.99515334  0.62630073  0.24679639  1
  O  O218  1  0.99323460  0.62360727  0.73848387  1
  O  O219  1  0.36284923  0.24847508  0.00084709  1
  O  O220  1  0.36817461  0.25410117  0.50497142  1
  O  O221  1  0.36865842  0.75836551  0.00322211  1
  O  O222  1  0.36910490  0.75821634  0.50369850  1
  O  O223  1  0.86299381  0.24904611  0.00610367  1
  O  O224  1  0.86845518  0.25696766  0.50689830  1
  O  O225  1  0.86123920  0.75385008  -0.00947199  1
  O  O226  1  0.86939035  0.75744960  0.51059969  1
  O  O227  1  0.12837913  0.24503580  0.49398840  1
  O  O228  1  0.13125881  0.24563059  0.99199701  1
  O  O229  1  0.13415583  0.74547792  0.49318292  1
  O  O230  1  0.13783281  0.74283097  0.99682847  1
  O  O231  1  0.63376474  0.24148538  0.50092636  1
  O  O232  1  0.63350129  0.24537715  0.99331070  1
  O  O233  1  0.63573019  0.75077873  0.49950912  1
  O  O234  1  0.63776035  0.75459268  0.98177934  1
  O  O235  1  0.49755334  0.23622823  0.12911502  1
  O  O236  1  0.49262829  0.24880545  0.63177528  1
  O  O237  1  0.48725075  0.76104816  0.13852024  1
  O  O238  1  0.49569901  0.74648746  0.63231952  1
  O  O239  1  0.99168764  0.24129482  0.12725841  1
  O  O240  1  0.99001087  0.25445577  0.63045306  1
  O  O241  1  0.99196053  0.80206317  0.12698868  1
  O  O242  1  0.99167572  0.74268869  0.62034386  1
  O  O243  1  0.00439211  0.25692017  0.36999193  1
  O  O244  1  0.00771260  0.25453072  0.86823102  1
  O  O245  1  0.01302010  0.76929496  0.38838590  1
  O  O246  1  -0.00103176  0.75456481  0.87669098  1
  O  O247  1  0.50077551  0.24580039  0.36528473  1
  O  O248  1  0.50660117  0.25488239  0.87206624  1
  O  O249  1  0.50616752  0.76100426  0.37110710  1
  O  O250  1  0.50579671  0.75386204  0.86928495  1
  O  O251  1  0.24238399  0.13061541  0.49339236  1
  O  O252  1  0.24525739  0.13329442  0.99146317  1
  O  O253  1  0.24599384  0.63120759  0.48925156  1
  O  O254  1  0.26007510  0.64530300  0.97989005  1
  O  O255  1  0.74419714  0.12993371  0.49635625  1
  O  O256  1  0.74774772  0.13191165  0.99626357  1
  O  O257  1  0.75139886  0.63446159  0.49748023  1
  O  O258  1  0.74979349  0.63052115  0.99206025  1
  O  O259  1  0.25276485  0.37186241  0.00257514  1
  O  O260  1  0.25338010  0.37042869  0.50694304  1
  O  O261  1  0.25704539  0.86952690  -0.00174350  1
  O  O262  1  0.25521896  0.87092656  0.50510906  1
  O  O263  1  0.74452589  0.35777299  0.00060729  1
  O  O264  1  0.75280710  0.36719706  0.50359625  1
  O  O265  1  0.75138508  0.86743954  0.00455943  1
  O  O266  1  0.76044339  0.87207618  0.51099126  1
  O  O267  1  0.13182879  0.48388841  0.25319291  1
  O  O268  1  0.13398549  0.50746286  0.74344541  1
  O  O269  1  0.12277237  1.00837284  0.23173175  1
  O  O270  1  0.12639106  0.98442185  0.74795969  1
  O  O271  1  0.59442757  0.47515036  0.23884486  1
  O  O272  1  0.61649931  0.49247528  0.73906814  1
  O  O273  1  0.63152478  0.99156561  0.24256188  1
  O  O274  1  0.63754747  1.00675647  0.73934684  1
  O  O275  1  0.37629455  0.01164936  0.25175977  1
  O  O276  1  0.37127334  0.01300666  0.75009498  1
  O  O277  1  0.37634890  0.50032252  0.26025584  1
  O  O278  1  0.36645624  0.50638948  0.75461394  1
  O  O279  1  0.86273715  0.00056692  0.24273301  1
  O  O280  1  0.87035338  0.01504260  0.74152582  1
  O  O281  1  0.87246123  0.51421622  0.25461646  1
  O  O282  1  0.87832634  0.51113548  0.75655878  1
  O  O283  1  0.11835607  0.36582231  0.37265121  1
  O  O284  1  0.12728826  0.36334275  0.87432465  1
  O  O285  1  0.11563639  0.87079098  0.37873983  1
  O  O286  1  0.11184670  0.87711502  0.86433763  1
  O  O287  1  0.61716521  0.36599528  0.36359865  1
  O  O288  1  0.61936956  0.36434349  0.86972973  1
  O  O289  1  0.61923607  0.86781764  0.37657961  1
  O  O290  1  0.61190376  0.86664250  0.87239849  1
  O  O291  1  0.38603200  0.12146754  0.13126091  1
  O  O292  1  0.37576116  0.13069166  0.63064875  1
  O  O293  1  0.37025782  0.63809570  0.12660779  1
  O  O294  1  0.37941174  0.63008161  0.63336224  1
  O  O295  1  0.88563187  0.12804367  0.12556263  1
  O  O296  1  0.86802942  0.13821615  0.63342684  1
  O  O297  1  0.87689876  0.63196254  0.14388854  1
  O  O298  1  0.88148109  0.62961104  0.63137424  1
  O  O299  1  0.25051604  0.24271136  0.11230727  1
  O  O300  1  0.25488566  0.25838824  0.62101215  1
  O  O301  1  0.26011413  0.75382562  0.11428899  1
  O  O302  1  0.25637067  0.75821387  0.61781544  1
  O  O303  1  0.75841235  0.24195456  0.11371823  1
  O  O304  1  0.75480842  0.25585902  0.61458888  1
  O  O305  1  0.74807694  0.75938412  0.11395591  1
  O  O306  1  0.75476387  0.75669043  0.61842422  1
  O  O307  1  0.24506250  0.23978213  0.37994799  1
  O  O308  1  0.24398706  0.24282294  0.87964698  1
  O  O309  1  0.24369092  0.74399471  0.37684704  1
  O  O310  1  0.25267725  0.76163550  0.88157212  1
  O  O311  1  0.75005471  0.24306621  0.38673253  1
  O  O312  1  0.74413404  0.24827563  0.88488279  1
  O  O313  1  0.74321302  0.76033200  0.39086236  1
  O  O314  1  0.74327344  0.74034233  0.87648184  1
  O  O315  1  0.00101533  0.11873459  0.00341510  1
  O  O316  1  0.00501198  0.11415779  0.49713209  1
  O  O317  1  0.00966739  0.62171059  0.00625852  1
  O  O318  1  0.00673522  0.62557344  0.51182291  1
  O  O319  1  0.50181366  0.11595502  0.00765584  1
  O  O320  1  0.51373723  0.12755294  0.50054985  1
  O  O321  1  0.49312689  0.61049146  -0.00998131  1
  O  O322  1  0.49791122  0.61420074  0.50883143  1
  O  O323  1  0.49352421  0.38504278  0.50187501  1
  O  O324  1  0.50385043  0.37984973  0.98710363  1
  O  O325  1  0.49024020  0.86900777  0.49294135  1
  O  O326  1  0.49145046  0.88155419  0.98929613  1
  O  O327  1  0.98877792  0.37625122  0.49193072  1
  O  O328  1  1.00581585  0.38887013  0.99580926  1
  O  O329  1  0.99632981  0.88823006  0.49920046  1
  O  O330  1  1.00226230  0.88833160  0.97739570  1
  O  O331  1  0.49149627  0.50031796  0.38653073  1
  O  O332  1  0.48835609  0.49181243  0.87912559  1
  O  O333  1  0.50206701  0.98678189  0.37177461  1
  O  O334  1  0.50036873  0.99215061  0.87732894  1
  O  O335  1  1.01009219  0.48555150  0.37945870  1
  O  O336  1  0.99250404  0.49920354  0.87999191  1
  O  O337  1  1.00470232  0.99040003  0.38936149  1
  O  O338  1  1.00206923  1.01099236  0.88165043  1
  O  O339  1  0.00895011  0.00427580  0.11375482  1
  O  O340  1  -0.00079456  0.00015940  0.61470954  1
  O  O341  1  -0.00081511  0.49395414  0.11388891  1
  O  O342  1  0.00687234  0.50667802  0.62202162  1
  O  O343  1  0.50919528  0.00021058  0.12247732  1
  O  O344  1  0.51472146  -0.00109834  0.63144418  1
  O  O345  1  0.49319749  0.50156656  0.10358539  1
  O  O346  1  0.50401227  0.50338420  0.62122375  1
  O  O347  1  0.23676977  0.37170727  0.25413964  1
  O  O348  1  0.25379559  0.38611872  0.73934100  1
  O  O349  1  0.25743283  0.88138792  0.24245622  1
  O  O350  1  0.24304741  0.88024640  0.74152039  1
  O  O351  1  0.73468687  0.37988604  0.25286390  1
  O  O352  1  0.74462899  0.36719165  0.73651865  1
  O  O353  1  0.74756366  0.87712039  0.24483212  1
  O  O354  1  0.75976652  0.88234537  0.73933456  1
  O  O355  1  0.25595050  0.12268531  0.25697038  1
  O  O356  1  0.25659849  0.12608561  0.75628432  1
  O  O357  1  0.25040057  0.62003737  0.25981858  1
  O  O358  1  0.25803505  0.61597593  0.74367339  1
  O  O359  1  0.74916468  0.11480376  0.25906593  1
  O  O360  1  0.76199017  0.11817074  0.75331958  1
  O  O361  1  0.76826337  0.63143659  0.26451557  1
  O  O362  1  0.75940542  0.62528605  0.75972712  1
  O  O363  1  0.36505428  0.12200815  0.36878380  1
  O  O364  1  0.36715749  0.12564566  0.86605608  1
  O  O365  1  0.36713011  0.61832001  0.37465982  1
  O  O366  1  0.37947716  0.61402924  0.86017798  1
  O  O367  1  0.86121494  0.12725691  0.37554169  1
  O  O368  1  0.87452204  0.13073580  0.85873355  1
  O  O369  1  0.88594222  0.61953377  0.37049259  1
  O  O370  1  0.86735622  0.61668868  0.86789928  1
  O  O371  1  0.12303663  0.36766669  0.14043672  1
  O  O372  1  0.12831560  0.38876368  0.61951502  1
  O  O373  1  0.12999091  0.89475674  0.11247500  1
  O  O374  1  0.13312097  0.87150211  0.63221760  1
  O  O375  1  0.62208658  0.36077019  0.13980606  1
  O  O376  1  0.63176470  0.37963651  0.62944015  1
  O  O377  1  0.63382140  0.87669271  0.13108040  1
  O  O378  1  0.63680418  0.88297208  0.62213176  1
  O  O379  1  0.11831302  0.25562944  0.25612140  1
  O  O380  1  0.11419491  0.24600744  0.75734844  1
  O  O381  1  0.11825524  0.74645137  0.25935200  1
  O  O382  1  0.13050063  0.76897826  0.74803231  1
  O  O383  1  0.61745849  0.25175922  0.25122051  1
  O  O384  1  0.62199660  0.25302666  0.75621389  1
  O  O385  1  0.62205840  0.75767937  0.26373640  1
  O  O386  1  0.61468511  0.74774263  0.75821289  1
  O  O387  1  0.38049249  0.23583146  0.24627522  1
  O  O388  1  0.37803040  0.24060327  0.74568251  1
  O  O389  1  0.38495108  0.74619839  0.24289777  1
  O  O390  1  0.37998514  0.74258737  0.74510902  1
  O  O391  1  0.87929085  0.24688400  0.24239016  1
  O  O392  1  0.88006190  0.24170199  0.74282957  1
  O  O393  1  0.88994257  0.73727108  0.26246502  1
  O  O394  1  0.87039381  0.73875109  0.73695107  1
  O  O395  1  0.38037158  0.49579612  0.49654557  1
  O  O396  1  0.37663888  0.48865271  0.99173068  1
  O  O397  1  0.37418279  0.98819703  0.49855186  1
  O  O398  1  0.38067837  0.99400471  0.99651854  1
  O  O399  1  0.87164733  0.48582407  0.50492387  1
  O  O400  1  0.89321519  0.51015723  0.99245907  1
  O  O401  1  0.88616775  0.99409315  0.50644456  1
  O  O402  1  0.89049476  0.99976989  0.99919476  1
  O  O403  1  0.11449780  0.00951626  0.00241275  1
  O  O404  1  0.11267918  0.00982410  0.50192066  1
  O  O405  1  0.11124807  0.51051975  -0.00121714  1
  O  O406  1  0.12569335  0.50997588  0.50873838  1
  O  O407  1  0.61910421  -0.00138038  0.00869978  1
  O  O408  1  0.63325809  0.00909172  0.51197354  1
  O  O409  1  0.60973399  0.50306640  -0.00602599  1
  O  O410  1  0.61491666  0.49846313  0.51231677  1
  O  O411  1  0.38207528  0.37320476  0.12188760  1
  O  O412  1  0.36864763  0.37098104  0.61977002  1
  O  O413  1  0.37468819  0.87137379  0.11036953  1
  O  O414  1  0.36889755  0.86989896  0.61871202  1
  O  O415  1  0.88004899  0.36381910  0.13156650  1
  O  O416  1  0.86632466  0.36710444  0.61910176  1
  O  O417  1  0.85631790  0.88994347  0.11616552  1
  O  O418  1  0.87197245  0.86790845  0.61984491  1
  O  O419  1  0.12970053  0.13115182  0.38035063  1
  O  O420  1  0.13197814  0.13527025  0.87651471  1
  O  O421  1  0.13141592  0.63220286  0.37881945  1
  O  O422  1  0.12662671  0.62209920  0.89408336  1
  O  O423  1  0.63616236  0.12508422  0.38380673  1
  O  O424  1  0.62526183  0.13709837  0.87415948  1
  O  O425  1  0.61542644  0.64470864  0.38608558  1
  O  O426  1  0.63357339  0.63098285  0.86713594  1
