# generated using pymatgen
data_V85Zn86O256
_symmetry_space_group_name_H-M   'P 1'
_cell_length_a   16.96136197
_cell_length_b   16.95196696
_cell_length_c   16.94401096
_cell_angle_alpha   89.96710358
_cell_angle_beta   90.01261183
_cell_angle_gamma   90.03476558
_symmetry_Int_Tables_number   1
_chemical_formula_structural   V85Zn86O256
_chemical_formula_sum   'V85 Zn86 O256'
_cell_volume   4871.88334915
_cell_formula_units_Z   1
loop_
 _symmetry_equiv_pos_site_id
 _symmetry_equiv_pos_as_xyz
  1  'x, y, z'
loop_
 _atom_site_type_symbol
 _atom_site_label
 _atom_site_symmetry_multiplicity
 _atom_site_fract_x
 _atom_site_fract_y
 _atom_site_fract_z
 _atom_site_occupancy
  V  V0  1  0.39264287  -0.00256656  0.37686503  1
  V  V1  1  0.37223561  0.62541506  0.25490581  1
  V  V2  1  0.62514652  0.75318379  0.37597481  1
  V  V3  1  0.87501192  0.38122701  -0.00849461  1
  V  V4  1  0.87464738  0.25184809  0.12368279  1
  V  V5  1  0.62229111  0.24889587  0.87497985  1
  V  V6  1  0.38943835  0.87257183  0.49891296  1
  V  V7  1  0.62673056  0.61935322  0.00369334  1
  V  V8  1  0.74478546  0.50400811  0.24600304  1
  V  V9  1  0.50454667  0.62006311  0.12586169  1
  V  V10  1  0.49042555  0.37893484  0.87434670  1
  V  V11  1  0.62891507  0.88136009  0.75240826  1
  V  V12  1  0.75818658  0.49776214  0.75433025  1
  V  V13  1  0.49824784  0.24900588  0.75033887  1
  V  V14  1  0.50306934  0.13878747  0.12930248  1
  V  V15  1  -0.00204523  -0.00317974  0.49424972  1
  V  V16  1  0.00022098  0.87436903  0.87284128  1
  V  V17  1  0.74979756  0.63118047  0.37925485  1
  V  V18  1  0.25163682  0.49429919  0.24461579  1
  V  V19  1  0.49093222  0.50253792  -0.00497153  1
  V  V20  1  0.63871829  0.00148705  0.62487647  1
  V  V21  1  0.24525503  0.12275511  0.88445570  1
  V  V22  1  0.86997972  0.11638786  0.74703645  1
  V  V23  1  0.74958615  0.25231490  0.49552748  1
  V  V24  1  0.12748731  0.00749766  0.12221051  1
  V  V25  1  0.37469814  0.74772629  0.12502444  1
  V  V26  1  0.12415542  0.50572150  0.61281190  1
  V  V27  1  0.49938922  0.11475715  0.62498532  1
  V  V28  1  0.12789954  0.37308727  0.23830279  1
  V  V29  1  0.36340228  0.25879777  0.12564157  1
  V  V30  1  0.25658953  0.86283705  0.62099486  1
  V  V31  1  0.87673021  0.50032152  0.37588423  1
  V  V32  1  -0.00066440  0.51136267  -0.00661408  1
  V  V33  1  0.12389412  0.74465081  0.87966154  1
  V  V34  1  0.62153780  0.12378994  0.49988273  1
  V  V35  1  0.24951430  0.36781954  0.61975062  1
  V  V36  1  0.24437614  0.74662769  0.00735021  1
  V  V37  1  0.75544453  0.85649747  0.62878659  1
  V  V38  1  0.62618204  0.62880340  0.49903821  1
  V  V39  1  0.00394046  0.00797531  -0.00321395  1
  V  V40  1  0.37410036  0.62760888  0.74792954  1
  V  V41  1  0.62341295  0.50093703  0.62656413  1
  V  V42  1  -0.00232686  0.24904411  0.74869233  1
  V  V43  1  -0.00000953  0.25031459  0.24920973  1
  V  V44  1  0.12606217  0.87178189  0.74727696  1
  V  V45  1  0.88054293  0.37673855  0.49887990  1
  V  V46  1  0.12708890  -0.00652266  0.62050977  1
  V  V47  1  0.87239014  -0.00026295  0.37638162  1
  V  V48  1  0.25105254  -0.00208483  0.74938385  1
  V  V49  1  0.50554725  0.00086591  0.00888496  1
  V  V50  1  0.87419154  0.87723985  0.00080087  1
  V  V51  1  0.50509984  0.75353524  0.25382239  1
  V  V52  1  0.10676547  0.87553796  0.25779236  1
  V  V53  1  0.87022466  0.86144918  0.49900294  1
  V  V54  1  0.12200793  0.24626013  0.88056917  1
  V  V55  1  0.49799238  0.49703397  0.49772251  1
  V  V56  1  0.37286241  0.12278219  0.75114839  1
  V  V57  1  0.62504134  0.74896429  0.87558859  1
  V  V58  1  0.60984659  0.26210278  0.37346434  1
  V  V59  1  0.25388219  0.12415200  0.38295829  1
  V  V60  1  0.12504275  0.51077406  0.12149164  1
  V  V61  1  0.87384751  0.12409869  0.24885820  1
  V  V62  1  0.75051315  0.37698624  0.62400519  1
  V  V63  1  0.74303142  0.38121915  0.12240274  1
  V  V64  1  0.88244050  0.63069148  0.24961203  1
  V  V65  1  0.25445708  0.49942310  0.75372033  1
  V  V66  1  -0.00504961  0.74506434  0.74142232  1
  V  V67  1  0.00096808  0.12319635  0.62384094  1
  V  V68  1  0.37221581  0.24707280  0.62212579  1
  V  V69  1  0.49675018  0.75152273  0.74523028  1
  V  V70  1  0.73908891  0.88095314  0.13231751  1
  V  V71  1  0.75033882  0.25008685  -0.00155295  1
  V  V72  1  0.12377916  0.37567186  0.74923294  1
  V  V73  1  0.74742958  0.11611849  0.87185768  1
  V  V74  1  0.25300664  -0.00348333  0.25379966  1
  V  V75  1  0.25290496  0.62187171  0.88078496  1
  V  V76  1  0.36646956  0.50209824  0.37848291  1
  V  V77  1  -0.00469798  0.62170393  0.61055680  1
  V  V78  1  0.88207147  0.75631309  0.13097837  1
  V  V79  1  0.37502700  0.36800034  0.49323323  1
  V  V80  1  0.25326429  0.74023316  0.48511690  1
  V  V81  1  0.75677886  0.62168655  0.87609644  1
  V  V82  1  0.13196472  0.24990065  0.38165370  1
  V  V83  1  0.00310426  0.37811028  0.37431017  1
  V  V84  1  0.37269940  0.87607377  0.00013045  1
  Zn  Zn85  1  -0.00705946  0.38319671  0.86935638  1
  Zn  Zn86  1  0.74917520  0.75103592  0.00377590  1
  Zn  Zn87  1  0.61601936  0.36837153  0.24174504  1
  Zn  Zn88  1  0.62812327  0.12101197  0.00494608  1
  Zn  Zn89  1  0.62358414  0.37693044  0.75143833  1
  Zn  Zn90  1  0.00400544  0.12992673  0.11787062  1
  Zn  Zn91  1  0.00391374  0.63352796  0.12438419  1
  Zn  Zn92  1  0.50016091  0.87809715  0.87645069  1
  Zn  Zn93  1  0.24195237  0.25485459  0.00351697  1
  Zn  Zn94  1  0.24511693  0.87401200  0.12827377  1
  Zn  Zn95  1  0.57036555  0.91683007  0.30726623  1
  Zn  Zn96  1  0.37562714  0.00095424  0.87795984  1
  Zn  Zn97  1  0.49335616  0.62766729  0.62368447  1
  Zn  Zn98  1  0.87405228  0.24949883  0.62340609  1
  Zn  Zn99  1  0.74782542  0.12717219  0.37247734  1
  Zn  Zn100  1  0.87166301  -0.00410163  0.86973892  1
  Zn  Zn101  1  0.12846993  0.12612581  0.50130258  1
  Zn  Zn102  1  0.37583058  0.13208953  0.25087615  1
  Zn  Zn103  1  0.11437462  0.74365843  0.37682159  1
  Zn  Zn104  1  0.87778007  0.62256396  0.74899772  1
  Zn  Zn105  1  0.35793368  0.38389364  0.99841624  1
  Zn  Zn106  1  0.73818315  0.00068065  0.24776783  1
  Zn  Zn107  1  0.19064235  0.18371593  0.19417046  1
  Zn  Zn108  1  0.18593496  0.18467953  0.68963455  1
  Zn  Zn109  1  0.16894443  0.67089493  0.22954670  1
  Zn  Zn110  1  0.18469280  0.68625652  0.68635586  1
  Zn  Zn111  1  0.68727453  0.19031412  0.18900948  1
  Zn  Zn112  1  0.68806430  0.18990098  0.68745458  1
  Zn  Zn113  1  0.69210115  0.69166411  0.18912545  1
  Zn  Zn114  1  0.68428762  0.68354113  0.69205603  1
  Zn  Zn115  1  0.31371456  0.31206277  0.31047154  1
  Zn  Zn116  1  0.30916578  0.30982108  0.81472223  1
  Zn  Zn117  1  0.31716538  0.81606914  0.31477289  1
  Zn  Zn118  1  0.31237967  0.81046622  0.81565832  1
  Zn  Zn119  1  0.80867982  0.31514322  0.30944826  1
  Zn  Zn120  1  0.81034728  0.30816608  0.81073972  1
  Zn  Zn121  1  0.81401412  0.81354664  0.31292776  1
  Zn  Zn122  1  0.81230726  0.80975348  0.81218774  1
  Zn  Zn123  1  0.19118071  0.43539328  0.43491772  1
  Zn  Zn124  1  0.17958019  0.43827719  0.93685363  1
  Zn  Zn125  1  0.19274021  0.93267975  0.43690117  1
  Zn  Zn126  1  0.18635903  0.93501782  0.93818845  1
  Zn  Zn127  1  0.68963097  0.44210473  0.43679389  1
  Zn  Zn128  1  0.68087512  0.43823808  0.93665196  1
  Zn  Zn129  1  0.69309282  0.94030749  0.44282551  1
  Zn  Zn130  1  0.68680791  0.93635671  0.94224598  1
  Zn  Zn131  1  0.31611231  0.06546686  0.06565047  1
  Zn  Zn132  1  0.31534304  0.05440287  0.55909161  1
  Zn  Zn133  1  0.31079360  0.56365583  0.06624473  1
  Zn  Zn134  1  0.31078097  0.56062904  0.56695154  1
  Zn  Zn135  1  0.81344948  0.06119326  0.06209173  1
  Zn  Zn136  1  0.81125553  0.06449467  0.56105269  1
  Zn  Zn137  1  0.81672888  0.56478994  0.06272989  1
  Zn  Zn138  1  0.81351258  0.56270539  0.56076086  1
  Zn  Zn139  1  0.43866814  0.43211504  0.18306193  1
  Zn  Zn140  1  0.43531854  0.43718545  0.68627947  1
  Zn  Zn141  1  0.43331668  0.93981272  0.18332772  1
  Zn  Zn142  1  0.43880753  0.93601792  0.68591511  1
  Zn  Zn143  1  0.93580544  0.44099085  0.18361552  1
  Zn  Zn144  1  0.93871102  0.44023896  0.68339629  1
  Zn  Zn145  1  0.93643799  0.94403710  0.18415638  1
  Zn  Zn146  1  0.93884997  0.93455275  0.68263482  1
  Zn  Zn147  1  0.06292814  0.06244035  0.31194745  1
  Zn  Zn148  1  0.06250233  0.06111953  0.81004292  1
  Zn  Zn149  1  0.06316699  0.56010961  0.31815645  1
  Zn  Zn150  1  0.06647479  0.56432286  0.80964880  1
  Zn  Zn151  1  0.56569671  0.08283743  0.30868945  1
  Zn  Zn152  1  0.55942104  0.05959669  0.81636507  1
  Zn  Zn153  1  0.54009268  0.52622349  0.29358233  1
  Zn  Zn154  1  0.56447252  0.56257683  0.81312898  1
  Zn  Zn155  1  0.43779104  0.18534520  0.43946988  1
  Zn  Zn156  1  0.43239293  0.18792973  0.94252679  1
  Zn  Zn157  1  0.43841324  0.68722434  0.43820539  1
  Zn  Zn158  1  0.43574965  0.68797167  0.93401176  1
  Zn  Zn159  1  0.93922583  0.18714561  0.43622214  1
  Zn  Zn160  1  0.93313492  0.18864630  0.93285691  1
  Zn  Zn161  1  0.93952356  0.68679865  0.43368887  1
  Zn  Zn162  1  0.93531834  0.69259956  0.93784082  1
  Zn  Zn163  1  0.05855756  0.31797964  0.05921051  1
  Zn  Zn164  1  0.06191071  0.31347160  0.56201937  1
  Zn  Zn165  1  0.06393423  0.82034783  0.06565194  1
  Zn  Zn166  1  0.04657889  0.79311598  0.53063351  1
  Zn  Zn167  1  0.56002695  0.31364635  0.05634391  1
  Zn  Zn168  1  0.55944912  0.31201416  0.56297980  1
  Zn  Zn169  1  0.56108528  0.80841313  0.06307666  1
  Zn  Zn170  1  0.56827527  0.81087038  0.56547307  1
  O  O171  1  0.12201600  0.11280300  0.13315217  1
  O  O172  1  0.12218090  0.11199237  0.62292377  1
  O  O173  1  0.12146319  0.61402556  0.13601542  1
  O  O174  1  0.12043768  0.61043837  0.62643254  1
  O  O175  1  0.60896818  0.13719313  0.12181463  1
  O  O176  1  0.62027760  0.11937542  0.62210671  1
  O  O177  1  0.61867746  0.63474356  0.11490556  1
  O  O178  1  0.62610591  0.61357188  0.61865201  1
  O  O179  1  0.36840733  0.38067420  0.38754315  1
  O  O180  1  0.38734227  0.36728869  0.87659029  1
  O  O181  1  0.37794322  0.88409542  0.38732954  1
  O  O182  1  0.37715714  0.87409171  0.88924119  1
  O  O183  1  0.88170654  0.38100022  0.37749378  1
  O  O184  1  0.87306838  0.36965947  0.88736758  1
  O  O185  1  0.86652826  0.88272336  0.39156291  1
  O  O186  1  0.87953373  0.87571333  0.88136682  1
  O  O187  1  0.25876434  0.00521754  0.36997709  1
  O  O188  1  0.24878793  0.00532840  0.86768393  1
  O  O189  1  0.25998673  0.49844854  0.36705334  1
  O  O190  1  0.23785378  0.51160593  0.86571221  1
  O  O191  1  0.76216466  0.00588490  0.37590112  1
  O  O192  1  0.74905887  0.01254703  0.87916073  1
  O  O193  1  0.75797960  0.50919468  0.36777716  1
  O  O194  1  0.74124292  0.50813801  0.86574918  1
  O  O195  1  0.23972328  0.50025638  0.13162004  1
  O  O196  1  0.23993374  0.49079608  0.63195060  1
  O  O197  1  0.24471598  1.00150477  0.13311496  1
  O  O198  1  0.24364976  0.99288488  0.62936052  1
  O  O199  1  0.75930333  0.49184279  0.13209258  1
  O  O200  1  0.74342781  0.49505336  0.63038485  1
  O  O201  1  0.75305792  0.98617022  0.12586206  1
  O  O202  1  0.74050460  0.99970640  0.62874032  1
  O  O203  1  0.00620501  0.37036807  0.25516932  1
  O  O204  1  0.00488650  0.36832910  0.74832786  1
  O  O205  1  0.00783378  0.88651192  0.25320925  1
  O  O206  1  0.00653664  0.86746018  0.75132710  1
  O  O207  1  0.51801105  0.41824565  0.25661792  1
  O  O208  1  0.50006998  0.36852796  0.75545471  1
  O  O209  1  0.49485408  0.85885282  0.24315987  1
  O  O210  1  0.50788095  0.86847693  0.75279501  1
  O  O211  1  0.49427675  0.12939073  0.23254992  1
  O  O212  1  0.49274492  0.12810894  0.74521766  1
  O  O213  1  0.49136042  0.62497039  0.24162468  1
  O  O214  1  0.49148948  0.63139193  0.75308197  1
  O  O215  1  0.98934576  0.13256327  0.25018037  1
  O  O216  1  0.99381706  0.13128319  0.74328093  1
  O  O217  1  0.98439542  0.61552558  0.24724564  1
  O  O218  1  0.99955839  0.63012440  0.74231224  1
  O  O219  1  0.36798663  0.25236816  0.01161951  1
  O  O220  1  0.37945494  0.25721207  0.50863116  1
  O  O221  1  0.36947329  0.75585989  0.00439772  1
  O  O222  1  0.36959499  0.76386886  0.49399684  1
  O  O223  1  0.87022943  0.25786325  0.00412016  1
  O  O224  1  0.86765665  0.25729092  0.50018202  1
  O  O225  1  0.87285422  0.76392887  0.00567648  1
  O  O226  1  0.86980661  0.76365165  0.49982655  1
  O  O227  1  0.12063849  0.24983875  0.48548706  1
  O  O228  1  0.11730602  0.25157736  0.98398575  1
  O  O229  1  0.15215646  0.75299392  0.50264155  1
  O  O230  1  0.13221782  0.75710663  0.99274288  1
  O  O231  1  0.63059984  0.24781986  0.49418166  1
  O  O232  1  0.62940309  0.24787572  0.98693342  1
  O  O233  1  0.62023572  0.73573339  0.49552623  1
  O  O234  1  0.62556084  0.74100807  0.99110711  1
  O  O235  1  0.48959382  0.24242110  0.11610612  1
  O  O236  1  0.49576985  0.23914308  0.63295869  1
  O  O237  1  0.49527996  0.73922932  0.13127749  1
  O  O238  1  0.50898460  0.74555995  0.64134219  1
  O  O239  1  0.99374398  0.25000752  0.12996914  1
  O  O240  1  1.00095045  0.24333592  0.63378974  1
  O  O241  1  0.98718831  0.75205941  0.11827195  1
  O  O242  1  1.01118946  0.73026162  0.62709076  1
  O  O243  1  0.00589045  0.25976703  0.36831447  1
  O  O244  1  0.00391824  0.24954147  0.86143634  1
  O  O245  1  0.01380151  0.76616518  0.42180432  1
  O  O246  1  0.00765720  0.75366895  0.86834455  1
  O  O247  1  0.51101141  0.25287552  0.37952708  1
  O  O248  1  0.50512532  0.25258621  0.87101263  1
  O  O249  1  0.51079445  0.74259745  0.36483109  1
  O  O250  1  0.51173602  0.75155333  0.86810887  1
  O  O251  1  0.24848063  0.11801585  0.48771461  1
  O  O252  1  0.25078465  0.12501982  0.98672186  1
  O  O253  1  0.26501545  0.64223579  0.50323614  1
  O  O254  1  0.25357035  0.63295084  0.99203809  1
  O  O255  1  0.73929053  0.13626847  0.50177051  1
  O  O256  1  0.74938032  0.13138553  0.99234316  1
  O  O257  1  0.74103343  0.61749248  0.49052739  1
  O  O258  1  0.74353830  0.62582743  0.99480608  1
  O  O259  1  0.24675089  0.36820940  -0.01215842  1
  O  O260  1  0.25883532  0.37710735  0.51059342  1
  O  O261  1  0.25667046  0.86686346  0.00265699  1
  O  O262  1  0.26193687  0.86863968  0.50661253  1
  O  O263  1  0.75474473  0.37369734  0.00358617  1
  O  O264  1  0.76032570  0.37177837  0.50282958  1
  O  O265  1  0.75846955  0.87487788  0.00855816  1
  O  O266  1  0.76098465  0.87997662  0.51696871  1
  O  O267  1  0.13212618  0.49043242  0.24271055  1
  O  O268  1  0.13337741  0.49156777  0.74240585  1
  O  O269  1  0.13267939  0.99406681  0.24612018  1
  O  O270  1  0.13012908  0.99195131  0.74112275  1
  O  O271  1  0.64555417  0.51592757  0.24957651  1
  O  O272  1  0.63316049  0.49942087  0.74083923  1
  O  O273  1  0.62655798  1.00153295  0.26372608  1
  O  O274  1  0.62038656  0.98665073  0.74557087  1
  O  O275  1  0.36968517  0.00178695  0.25878261  1
  O  O276  1  0.36980303  0.00452289  0.75304758  1
  O  O277  1  0.36811360  0.50203643  0.25730971  1
  O  O278  1  0.36009519  0.50304689  0.74824938  1
  O  O279  1  0.87479574  0.00888861  0.25902098  1
  O  O280  1  0.88223469  0.01278793  0.75004634  1
  O  O281  1  0.86781214  0.50413821  0.25978454  1
  O  O282  1  0.86217518  0.49800602  0.74837156  1
  O  O283  1  0.11947479  0.37005394  0.36748618  1
  O  O284  1  0.11867474  0.36687708  0.85955856  1
  O  O285  1  0.12924068  0.87731676  0.35953618  1
  O  O286  1  0.12158570  0.86416956  0.86754067  1
  O  O287  1  0.62862014  0.36336201  0.38018581  1
  O  O288  1  0.61370664  0.36526012  0.87319183  1
  O  O289  1  0.63108975  0.85901562  0.38760109  1
  O  O290  1  0.62614147  0.86829200  0.86861695  1
  O  O291  1  0.38346332  0.13802401  0.12542820  1
  O  O292  1  0.38213246  0.12528923  0.62767748  1
  O  O293  1  0.38420313  0.63128463  0.13044870  1
  O  O294  1  0.37511423  0.61997724  0.64269836  1
  O  O295  1  0.87787118  0.13222249  0.13151587  1
  O  O296  1  0.88033359  0.12770894  0.63034940  1
  O  O297  1  0.87474526  0.63808578  0.13295674  1
  O  O298  1  0.89112610  0.61528964  0.62751895  1
  O  O299  1  0.25910596  0.24439467  0.12308579  1
  O  O300  1  0.25305724  0.26047664  0.63127588  1
  O  O301  1  0.25430760  0.74916132  0.11353814  1
  O  O302  1  0.25130782  0.76143893  0.62775849  1
  O  O303  1  0.75585476  0.25698040  0.11756815  1
  O  O304  1  0.74850160  0.25930010  0.61322463  1
  O  O305  1  0.76268349  0.76185200  0.12443303  1
  O  O306  1  0.74615154  0.75836026  0.62724086  1
  O  O307  1  0.24273570  0.23969211  0.36881504  1
  O  O308  1  0.23752170  0.23889646  0.87074152  1
  O  O309  1  0.25114170  0.75129931  0.38266067  1
  O  O310  1  0.24293672  0.74423698  0.88524370  1
  O  O311  1  0.74855084  0.25121520  0.38710859  1
  O  O312  1  0.74111179  0.24211777  0.87924287  1
  O  O313  1  0.74425554  0.73784012  0.36919909  1
  O  O314  1  0.73951592  0.74288004  0.87611974  1
  O  O315  1  -0.00681775  0.11154630  -0.00488542  1
  O  O316  1  0.00223440  0.11637661  0.50721316  1
  O  O317  1  -0.00729102  0.61465756  0.00198588  1
  O  O318  1  -0.00363464  0.61711948  0.51197368  1
  O  O319  1  0.49967130  0.11557366  0.00810270  1
  O  O320  1  0.51310255  0.13054549  0.51097741  1
  O  O321  1  0.50594271  0.62220857  0.00316858  1
  O  O322  1  0.50644969  0.61759600  0.50536498  1
  O  O323  1  0.48682628  0.38438103  0.50951966  1
  O  O324  1  0.49909756  0.38754899  0.99154628  1
  O  O325  1  0.48838429  0.87014855  0.50895454  1
  O  O326  1  0.49337330  0.88514680  1.00436806  1
  O  O327  1  0.98826586  0.36968531  0.49147421  1
  O  O328  1  0.99026018  0.38589382  0.99468556  1
  O  O329  1  0.97670283  0.88884721  0.52022173  1
  O  O330  1  0.99326932  0.88395160  0.99282343  1
  O  O331  1  0.48537579  0.50421086  0.39311214  1
  O  O332  1  0.50397623  0.49087184  0.88063640  1
  O  O333  1  0.49386367  1.00163894  0.36601816  1
  O  O334  1  0.49534186  0.99870400  0.89086260  1
  O  O335  1  0.99393212  0.48621965  0.37051310  1
  O  O336  1  1.00708374  0.50166441  0.88803541  1
  O  O337  1  0.99141812  1.00545578  0.38747262  1
  O  O338  1  1.00072016  0.99127661  0.87899079  1
  O  O339  1  0.00716975  0.00482092  0.11393200  1
  O  O340  1  0.00906612  0.00488264  0.61912090  1
  O  O341  1  0.00621922  0.50327283  0.11456883  1
  O  O342  1  0.01522362  0.50813967  0.62943213  1
  O  O343  1  0.49253455  0.01361864  0.11423524  1
  O  O344  1  0.51155165  0.01153728  0.63138191  1
  O  O345  1  0.49846043  0.51488621  0.11356560  1
  O  O346  1  0.50686082  0.50249328  0.61887590  1
  O  O347  1  0.24202903  0.38557189  0.25294926  1
  O  O348  1  0.24282812  0.38062999  0.74501097  1
  O  O349  1  0.25363667  0.88807972  0.24829229  1
  O  O350  1  0.24796279  0.87947012  0.74413648  1
  O  O351  1  0.74561153  0.38537548  0.24067506  1
  O  O352  1  0.74712612  0.37966810  0.74355735  1
  O  O353  1  0.75531060  0.87802811  0.23617148  1
  O  O354  1  0.74388112  0.87080914  0.73897689  1
  O  O355  1  0.25402949  0.11322804  0.26223241  1
  O  O356  1  0.25553588  0.11566754  0.75374947  1
  O  O357  1  0.26813183  0.61158330  0.23970894  1
  O  O358  1  0.25434338  0.61894717  0.75555509  1
  O  O359  1  0.76244420  0.12547608  0.24988758  1
  O  O360  1  0.75893516  0.13155589  0.75763799  1
  O  O361  1  0.76333270  0.62179427  0.25597180  1
  O  O362  1  0.75277652  0.61659778  0.75727547  1
  O  O363  1  0.37175724  0.11727014  0.37469627  1
  O  O364  1  0.36430835  0.12508647  0.86796258  1
  O  O365  1  0.37933562  0.61515585  0.36598332  1
  O  O366  1  0.36093631  0.62863843  0.86564730  1
  O  O367  1  0.87344105  0.11879492  0.36773875  1
  O  O368  1  0.86466744  0.12327452  0.86523045  1
  O  O369  1  0.87109298  0.61946281  0.37173790  1
  O  O370  1  0.85998585  0.63137266  0.87396795  1
  O  O371  1  0.11883302  0.38187857  0.13563229  1
  O  O372  1  0.12920415  0.38036564  0.63174354  1
  O  O373  1  0.12565508  0.89097114  0.13526371  1
  O  O374  1  0.13474311  0.88427329  0.62787322  1
  O  O375  1  0.63899693  0.36794038  0.12179725  1
  O  O376  1  0.62955005  0.38670681  0.62390803  1
  O  O377  1  0.64100193  0.86735643  0.12105278  1
  O  O378  1  0.63731952  0.88128835  0.62996258  1
  O  O379  1  0.12129269  0.25688018  0.25736338  1
  O  O380  1  0.11614737  0.25667644  0.75273753  1
  O  O381  1  0.12383667  0.77574010  0.24130831  1
  O  O382  1  0.11687518  0.75426160  0.75573277  1
  O  O383  1  0.62949579  0.25323495  0.26857804  1
  O  O384  1  0.61879019  0.25110911  0.76003406  1
  O  O385  1  0.61676280  0.74412578  0.26089364  1
  O  O386  1  0.62030636  0.75841380  0.75750273  1
  O  O387  1  0.37266743  0.25259230  0.23271079  1
  O  O388  1  0.37797842  0.24181032  0.74267699  1
  O  O389  1  0.38100980  0.74162850  0.24694439  1
  O  O390  1  0.38496596  0.74255784  0.75686037  1
  O  O391  1  0.87873777  0.24580511  0.24439437  1
  O  O392  1  0.88271858  0.24168158  0.74653694  1
  O  O393  1  0.87622491  0.74425131  0.24433455  1
  O  O394  1  0.89196750  0.74907316  0.75188082  1
  O  O395  1  0.37735965  0.49404810  0.49633227  1
  O  O396  1  0.38675752  0.50320548  1.00110362  1
  O  O397  1  0.37745943  0.98769925  0.48897051  1
  O  O398  1  0.38125146  0.99163844  1.00091209  1
  O  O399  1  0.86985018  0.49125739  0.48458506  1
  O  O400  1  0.88789928  0.49410439  1.00326409  1
  O  O401  1  0.87959352  0.99952968  0.49301414  1
  O  O402  1  0.88262328  0.99029180  0.99678911  1
  O  O403  1  0.11666723  -0.00499904  0.00852742  1
  O  O404  1  0.11672286  -0.00400088  0.50509448  1
  O  O405  1  0.10955747  0.49811497  0.00898355  1
  O  O406  1  0.12980668  0.49317048  0.51439430  1
  O  O407  1  0.60927278  0.00062018  0.00020497  1
  O  O408  1  0.62989586  0.01214342  0.50956497  1
  O  O409  1  0.61466553  0.51433970  -0.00433635  1
  O  O410  1  0.61665965  0.50621263  0.50478462  1
  O  O411  1  0.37770802  0.36346051  0.11755506  1
  O  O412  1  0.36587145  0.36888911  0.61869104  1
  O  O413  1  0.37171487  0.86683423  0.11479231  1
  O  O414  1  0.36811794  0.88311882  0.61153831  1
  O  O415  1  0.86641197  0.37006408  0.11502287  1
  O  O416  1  0.87137541  0.37472985  0.61425824  1
  O  O417  1  0.87145687  0.87292717  0.11813841  1
  O  O418  1  0.86016463  0.87613781  0.62210892  1
  O  O419  1  0.13304866  0.13302470  0.37557632  1
  O  O420  1  0.13288106  0.13432419  0.86424460  1
  O  O421  1  0.13411687  0.64019440  0.33569719  1
  O  O422  1  0.13512541  0.63871179  0.86934810  1
  O  O423  1  0.62748964  0.14137663  0.38603753  1
  O  O424  1  0.63071744  0.13121168  0.87544114  1
  O  O425  1  0.63468644  0.63218006  0.38419164  1
  O  O426  1  0.63345699  0.63245937  0.88030130  1
