# generated using pymatgen
data_V85Zn86O256
_symmetry_space_group_name_H-M   'P 1'
_cell_length_a   16.92622222
_cell_length_b   16.92662374
_cell_length_c   16.92801753
_cell_angle_alpha   89.99072789
_cell_angle_beta   90.00016335
_cell_angle_gamma   89.98023102
_symmetry_Int_Tables_number   1
_chemical_formula_structural   V85Zn86O256
_chemical_formula_sum   'V85 Zn86 O256'
_cell_volume   4849.94090864
_cell_formula_units_Z   1
loop_
 _symmetry_equiv_pos_site_id
 _symmetry_equiv_pos_as_xyz
  1  'x, y, z'
loop_
 _atom_site_type_symbol
 _atom_site_label
 _atom_site_symmetry_multiplicity
 _atom_site_fract_x
 _atom_site_fract_y
 _atom_site_fract_z
 _atom_site_occupancy
  V  V0  1  0.24805755  0.24743672  0.50154860  1
  V  V1  1  0.87689243  0.25664338  0.61920419  1
  V  V2  1  0.87369914  0.50064388  0.87404168  1
  V  V3  1  0.62420796  0.75165857  0.88231189  1
  V  V4  1  0.37704096  0.24815101  0.63780111  1
  V  V5  1  0.73621841  0.62842486  0.37780077  1
  V  V6  1  -0.00116413  0.62726556  0.12574885  1
  V  V7  1  0.62234370  0.50182050  0.12392615  1
  V  V8  1  0.37579604  -0.00098057  0.37473689  1
  V  V9  1  0.61974837  0.51382003  0.62400230  1
  V  V10  1  0.87795504  -0.00087593  0.87414873  1
  V  V11  1  0.38289960  0.74704414  0.62674452  1
  V  V12  1  0.24726495  0.87502504  0.63953881  1
  V  V13  1  0.62708584  0.24916516  0.87339352  1
  V  V14  1  0.62262419  0.24316222  0.38001914  1
  V  V15  1  0.88451413  0.63281193  0.74402499  1
  V  V16  1  0.75315350  0.50208610  0.25323109  1
  V  V17  1  -0.00081800  0.88240135  0.37181954  1
  V  V18  1  0.00284152  0.87124744  0.86165074  1
  V  V19  1  0.74284377  0.88343822  0.12254987  1
  V  V20  1  0.12503504  0.75628056  0.37149330  1
  V  V21  1  0.37310266  0.87839846  -0.00200643  1
  V  V22  1  0.50154566  0.37484853  0.87525543  1
  V  V23  1  0.49025847  0.63375551  0.12108536  1
  V  V24  1  0.12324270  0.75271459  0.86287957  1
  V  V25  1  0.75205168  0.11619473  0.38201827  1
  V  V26  1  0.49930434  0.75155229  0.26139341  1
  V  V27  1  0.87515072  0.36898540  0.00248870  1
  V  V28  1  0.12155018  -0.00809004  0.12908165  1
  V  V29  1  0.73782412  0.75054429  0.49600539  1
  V  V30  1  0.37205271  0.24446267  0.11720235  1
  V  V31  1  0.74891630  0.12448244  0.87825597  1
  V  V32  1  0.25244391  0.38797127  0.62698177  1
  V  V33  1  0.24857992  0.62084114  0.86871966  1
  V  V34  1  0.00139987  0.75803147  0.24661709  1
  V  V35  1  0.74558143  0.24730172  0.50157870  1
  V  V36  1  0.49935495  0.13024042  0.64401425  1
  V  V37  1  0.86357113  0.74749604  0.12372407  1
  V  V38  1  0.75349097  0.87267837  0.62465032  1
  V  V39  1  0.00081539  -0.00184803  -0.00020119  1
  V  V40  1  0.24979654  0.36859999  0.12008685  1
  V  V41  1  0.10822716  0.62511846  0.50370921  1
  V  V42  1  0.12641251  0.50070135  0.12786807  1
  V  V43  1  0.00509484  0.12584309  0.61553272  1
  V  V44  1  0.24246034  0.12406849  0.37958302  1
  V  V45  1  0.87906771  0.49863489  0.38993533  1
  V  V46  1  0.13055807  0.12579096  0.00133455  1
  V  V47  1  0.87643447  0.87939011  0.49400269  1
  V  V48  1  0.49899627  0.24804979  0.24949066  1
  V  V49  1  0.24671001  -0.00608154  0.25209626  1
  V  V50  1  0.62480221  0.37255352  0.25146999  1
  V  V51  1  0.25129916  0.86832880  0.13074802  1
  V  V52  1  0.74748476  0.24602855  0.00507673  1
  V  V53  1  0.62227862  0.87436990  0.74965348  1
  V  V54  1  0.62677095  0.00660925  0.62248880  1
  V  V55  1  0.25233692  0.74908409  0.00067833  1
  V  V56  1  0.37897361  0.62007331  0.74603806  1
  V  V57  1  0.37970814  0.37386734  0.49910701  1
  V  V58  1  0.37160632  0.49808039  0.87234698  1
  V  V59  1  0.75273548  0.50255584  0.75038986  1
  V  V60  1  0.75470954  0.37132167  0.12793169  1
  V  V61  1  0.74909337  0.63065470  0.88108495  1
  V  V62  1  -0.00095534  0.49976472  0.00234340  1
  V  V63  1  0.87705411  0.12582913  0.74867007  1
  V  V64  1  0.49987689  0.01375885  0.50114045  1
  V  V65  1  0.00193026  0.25245760  0.75018822  1
  V  V66  1  0.50208824  0.51471758  0.50180674  1
  V  V67  1  0.51450009  -0.00009316  0.00200422  1
  V  V68  1  0.13026551  0.24626075  0.87862590  1
  V  V69  1  0.87407920  0.12452594  0.25648460  1
  V  V70  1  0.51725270  0.11830736  0.12602979  1
  V  V71  1  0.12233720  0.37059555  0.25490499  1
  V  V72  1  0.37454052  0.12324653  0.24928009  1
  V  V73  1  0.00088673  0.37533371  0.87399051  1
  V  V74  1  0.24950296  0.62159441  0.37499933  1
  V  V75  1  0.25068915  0.01905186  0.75803459  1
  V  V76  1  0.62244066  0.37266819  0.74807019  1
  V  V77  1  0.12737655  0.00159579  0.62087981  1
  V  V78  1  0.75044437  0.37803828  0.61881465  1
  V  V79  1  0.12808085  0.38337464  0.75152067  1
  V  V80  1  0.24907547  0.75081391  0.50086866  1
  V  V81  1  0.10836069  0.50390987  0.62400809  1
  V  V82  1  0.37466450  0.87716494  0.50174777  1
  V  V83  1  -0.00646358  0.13393092  0.12575372  1
  V  V84  1  0.87487732  0.86671114  -0.00113539  1
  Zn  Zn85  1  0.12496232  0.62666082  -0.00102968  1
  Zn  Zn86  1  0.50379668  0.74273194  0.74836555  1
  Zn  Zn87  1  0.49563624  0.87543106  0.87327753  1
  Zn  Zn88  1  0.62422580  0.87719543  0.25636281  1
  Zn  Zn89  1  0.49796482  0.49967780  0.00154577  1
  Zn  Zn90  1  0.74582043  0.00041641  0.25008070  1
  Zn  Zn91  1  0.87496228  0.62676108  0.25610591  1
  Zn  Zn92  1  -0.00841108  0.25483440  0.25280085  1
  Zn  Zn93  1  0.37643737  0.49918105  0.37247641  1
  Zn  Zn94  1  0.00242453  0.00461136  0.49368930  1
  Zn  Zn95  1  0.37566703  0.01432163  0.87282562  1
  Zn  Zn96  1  0.49918374  0.37557905  0.37512165  1
  Zn  Zn97  1  0.62757971  0.62931500  0.00322636  1
  Zn  Zn98  1  0.29457243  0.17919844  -0.06703974  1
  Zn  Zn99  1  0.11854660  0.24768047  0.38036561  1
  Zn  Zn100  1  0.89456694  0.74682071  0.62162769  1
  Zn  Zn101  1  0.75092975  0.00031683  0.74943052  1
  Zn  Zn102  1  0.25340416  0.49847979  0.25085448  1
  Zn  Zn103  1  0.37294543  0.36936824  -0.00242020  1
  Zn  Zn104  1  0.37171627  0.62505924  0.24674974  1
  Zn  Zn105  1  0.50663661  0.87194115  0.38227265  1
  Zn  Zn106  1  -0.00231749  0.37521336  0.38893427  1
  Zn  Zn107  1  0.18557277  0.18481878  0.18907338  1
  Zn  Zn108  1  0.18680662  0.19211146  0.68533132  1
  Zn  Zn109  1  0.18534213  0.68834258  0.18912094  1
  Zn  Zn110  1  0.18760327  0.68593032  0.68473349  1
  Zn  Zn111  1  0.69261380  0.18810262  0.19323391  1
  Zn  Zn112  1  0.68754768  0.18700295  0.68849764  1
  Zn  Zn113  1  0.68209754  0.68771356  0.19131815  1
  Zn  Zn114  1  0.69348657  0.69212855  0.69064738  1
  Zn  Zn115  1  0.31021978  0.31228754  0.31062406  1
  Zn  Zn116  1  0.31104439  0.31646424  0.80991262  1
  Zn  Zn117  1  0.31958869  0.80788874  0.31111263  1
  Zn  Zn118  1  0.31423945  0.81051698  0.81466486  1
  Zn  Zn119  1  0.81517774  0.31075482  0.31580243  1
  Zn  Zn120  1  0.81223943  0.31412189  0.80927543  1
  Zn  Zn121  1  0.81235311  0.81312639  0.31163237  1
  Zn  Zn122  1  0.81055708  0.81093720  0.81181675  1
  Zn  Zn123  1  0.18460369  0.43936560  0.44172439  1
  Zn  Zn124  1  0.18855626  0.43785841  0.94053932  1
  Zn  Zn125  1  0.18583958  0.93761035  0.44281271  1
  Zn  Zn126  1  0.18679568  0.93619443  0.93559602  1
  Zn  Zn127  1  0.68375786  0.43777273  0.43785483  1
  Zn  Zn128  1  0.68764919  0.43805058  0.93942392  1
  Zn  Zn129  1  0.68154177  0.93474038  0.43848798  1
  Zn  Zn130  1  0.69289604  0.93308183  0.93732105  1
  Zn  Zn131  1  0.31635400  0.05398957  0.06720655  1
  Zn  Zn132  1  0.31453986  0.06481184  0.56759591  1
  Zn  Zn133  1  0.31103368  0.55836019  0.05674590  1
  Zn  Zn134  1  0.31252873  0.56430780  0.55782681  1
  Zn  Zn135  1  0.81682703  0.06247404  0.06212308  1
  Zn  Zn136  1  0.81534793  0.06225792  0.56132438  1
  Zn  Zn137  1  0.81248214  0.56063444  0.06314994  1
  Zn  Zn138  1  0.80295240  0.57148164  0.56502324  1
  Zn  Zn139  1  0.43516596  0.43736350  0.18837942  1
  Zn  Zn140  1  0.43928097  0.43810664  0.68852742  1
  Zn  Zn141  1  0.43635196  0.93399472  0.18392111  1
  Zn  Zn142  1  0.43403592  0.94141224  0.68947778  1
  Zn  Zn143  1  0.93669732  0.43785786  0.19060282  1
  Zn  Zn144  1  0.93418414  0.43834498  0.56584621  1
  Zn  Zn145  1  0.93053552  0.94075392  0.18903121  1
  Zn  Zn146  1  0.93766783  0.93897107  0.68297208  1
  Zn  Zn147  1  0.06349495  0.06396225  0.30826969  1
  Zn  Zn148  1  0.06754453  0.06064803  0.80902870  1
  Zn  Zn149  1  0.06109647  0.56584560  0.31235646  1
  Zn  Zn150  1  0.06368393  0.56115322  0.81189100  1
  Zn  Zn151  1  0.56767696  0.05613015  0.31151510  1
  Zn  Zn152  1  0.56538469  0.05796857  0.81655353  1
  Zn  Zn153  1  0.55847341  0.56146828  0.30929428  1
  Zn  Zn154  1  0.56210798  0.56151251  0.81295321  1
  Zn  Zn155  1  0.43264651  0.18815135  0.43875506  1
  Zn  Zn156  1  0.45674870  0.18032381  0.93559341  1
  Zn  Zn157  1  0.43314107  0.68681923  0.43713334  1
  Zn  Zn158  1  0.43737232  0.68879523  0.93666933  1
  Zn  Zn159  1  0.93475965  0.19370560  0.43630028  1
  Zn  Zn160  1  0.93993720  0.18803355  0.93901889  1
  Zn  Zn161  1  0.92919535  0.69344664  0.43580411  1
  Zn  Zn162  1  0.93935813  0.68673896  0.93492817  1
  Zn  Zn163  1  0.06450224  0.31179177  0.06367262  1
  Zn  Zn164  1  0.06755918  0.31246672  0.56314926  1
  Zn  Zn165  1  0.06368435  0.81105061  0.05665895  1
  Zn  Zn166  1  0.06187065  0.81436859  0.56638731  1
  Zn  Zn167  1  0.56390950  0.31015344  0.06200947  1
  Zn  Zn168  1  0.56218716  0.31215960  0.56446869  1
  Zn  Zn169  1  0.55966116  0.81239201  0.06178430  1
  Zn  Zn170  1  0.56126247  0.81802902  0.56328127  1
  O  O171  1  0.11593546  0.11478161  0.12045544  1
  O  O172  1  0.11375769  0.12119330  0.62976459  1
  O  O173  1  0.11834755  0.61675663  0.12358190  1
  O  O174  1  0.13131247  0.61789949  0.61169259  1
  O  O175  1  0.61576516  0.12998412  0.13083524  1
  O  O176  1  0.61355444  0.11957317  0.63051797  1
  O  O177  1  0.61678433  0.61726899  0.12334267  1
  O  O178  1  0.62977020  0.61243461  0.63487336  1
  O  O179  1  0.37567081  0.37544813  0.38458761  1
  O  O180  1  0.38305014  0.37878067  0.87476468  1
  O  O181  1  0.37929520  0.88068507  0.38527949  1
  O  O182  1  0.37445667  0.87840236  0.88618775  1
  O  O183  1  0.87170304  0.39450164  0.37306092  1
  O  O184  1  0.87914970  0.38069357  0.88047597  1
  O  O185  1  0.88524817  0.87164372  0.38152537  1
  O  O186  1  0.87996223  0.87626672  0.88094316  1
  O  O187  1  0.25473177  0.00375749  0.37216710  1
  O  O188  1  0.24468216  0.00153345  0.86108385  1
  O  O189  1  0.24901520  0.50974661  0.37533396  1
  O  O190  1  0.25674424  0.50829330  0.87885133  1
  O  O191  1  0.74638147  0.01440070  0.38401235  1
  O  O192  1  0.75780937  0.00877975  0.87458984  1
  O  O193  1  0.75494901  0.50524084  0.37105267  1
  O  O194  1  0.75205878  0.50410136  0.86751480  1
  O  O195  1  0.24119605  0.49323350  0.12613579  1
  O  O196  1  0.24600478  0.48957849  0.61849666  1
  O  O197  1  0.24186850  0.98969827  0.13173300  1
  O  O198  1  0.24655221  0.99561707  0.63273843  1
  O  O199  1  0.74383095  0.49446828  0.13379800  1
  O  O200  1  0.74233544  0.49438235  0.63067388  1
  O  O201  1  0.75421505  0.98570027  0.12091354  1
  O  O202  1  0.74226746  0.99523477  0.62499285  1
  O  O203  1  0.01104055  0.37444090  0.24900783  1
  O  O204  1  0.01467657  0.36731291  0.75775577  1
  O  O205  1  -0.00661442  0.86580465  0.25433446  1
  O  O206  1  -0.00561424  0.87904798  0.76287732  1
  O  O207  1  0.50685122  0.36625049  0.25038296  1
  O  O208  1  0.51027256  0.37948400  0.76237871  1
  O  O209  1  0.49519570  0.86060880  0.24876782  1
  O  O210  1  0.51266466  0.87741060  0.74877665  1
  O  O211  1  0.49377652  0.12809224  0.24431946  1
  O  O212  1  0.50213701  0.12323911  0.74239693  1
  O  O213  1  0.49961066  0.63299820  0.23858884  1
  O  O214  1  0.48440457  0.62354040  0.75331213  1
  O  O215  1  0.98962707  0.12547108  0.24450901  1
  O  O216  1  0.99078263  0.13131527  0.74568043  1
  O  O217  1  0.99729507  0.63629354  0.24293562  1
  O  O218  1  0.98169181  0.62012808  0.75870135  1
  O  O219  1  0.37562154  0.24530500  0.00985320  1
  O  O220  1  0.36841708  0.25786574  0.50868932  1
  O  O221  1  0.36021898  0.75731582  -0.00713968  1
  O  O222  1  0.37038949  0.75782506  0.50672877  1
  O  O223  1  0.86634831  0.26242792  -0.00590967  1
  O  O224  1  0.86543098  0.24974149  0.51358210  1
  O  O225  1  0.88215847  0.75804682  0.00801536  1
  O  O226  1  0.86562076  0.76271492  0.50367378  1
  O  O227  1  0.14355073  0.25233047  0.50111422  1
  O  O228  1  0.11857409  0.23882079  0.99257053  1
  O  O229  1  0.13119560  0.74110219  0.49269330  1
  O  O230  1  0.13666163  0.74792417  0.99089195  1
  O  O231  1  0.63423744  0.25364491  0.49419993  1
  O  O232  1  0.64026753  0.25521013  0.99103485  1
  O  O233  1  0.63880000  0.75823572  0.50376911  1
  O  O234  1  0.62269254  0.75048378  0.98638495  1
  O  O235  1  0.49374693  0.24067365  0.12826009  1
  O  O236  1  0.49520613  0.23718657  0.62328631  1
  O  O237  1  0.49911168  0.73603371  0.12490885  1
  O  O238  1  0.48645088  0.75442604  0.62575621  1
  O  O239  1  1.00325839  0.23673463  0.12723403  1
  O  O240  1  0.99410596  0.24449993  0.62999495  1
  O  O241  1  0.99563333  0.74715948  0.13001031  1
  O  O242  1  1.00547266  0.74382360  0.62519739  1
  O  O243  1  0.00172325  0.25641493  0.37207493  1
  O  O244  1  0.00812139  0.25657199  0.87147693  1
  O  O245  1  0.00500565  0.75768208  0.36625811  1
  O  O246  1  0.01452081  0.75542646  0.87855739  1
  O  O247  1  0.50690719  0.24855922  0.37075928  1
  O  O248  1  0.51998561  0.25647097  0.87873900  1
  O  O249  1  0.49802459  0.74824233  0.36514156  1
  O  O250  1  0.50793670  0.75422215  0.87022674  1
  O  O251  1  0.26051526  0.13388285  0.49136456  1
  O  O252  1  0.23512713  0.12012174  1.01131419  1
  O  O253  1  0.24510040  0.63301985  0.49008881  1
  O  O254  1  0.24938837  0.63201829  0.98948667  1
  O  O255  1  0.75491361  0.13701894  0.49631985  1
  O  O256  1  0.75887049  0.13465618  0.99154692  1
  O  O257  1  0.74864438  0.64200713  0.49438292  1
  O  O258  1  0.74830088  0.61760633  0.98590498  1
  O  O259  1  0.25016777  0.37453696  0.01545406  1
  O  O260  1  0.26046836  0.37070501  0.50733716  1
  O  O261  1  0.25383539  0.86940244  0.00571445  1
  O  O262  1  0.26138600  0.87164962  0.50658249  1
  O  O263  1  0.75621214  0.36943611  0.00778840  1
  O  O264  1  0.74393266  0.36869497  0.51291893  1
  O  O265  1  0.76348216  0.87516951  0.00908742  1
  O  O266  1  0.75588269  0.86944813  0.50529641  1
  O  O267  1  0.12401690  0.49450180  0.23987903  1
  O  O268  1  0.12366993  0.49381799  0.74085526  1
  O  O269  1  0.13376186  1.00177739  0.23998058  1
  O  O270  1  0.13911570  1.00388494  0.73797415  1
  O  O271  1  0.63388925  0.49410402  0.24244505  1
  O  O272  1  0.63332909  0.49182889  0.74642130  1
  O  O273  1  0.63183454  0.99332349  0.24782055  1
  O  O274  1  0.62874718  0.99363109  0.74050567  1
  O  O275  1  0.36841022  0.00336928  0.25468578  1
  O  O276  1  0.35625138  -0.00319422  0.75281104  1
  O  O277  1  0.37177721  0.50461729  0.25426053  1
  O  O278  1  0.37605481  0.50390717  0.76137570  1
  O  O279  1  0.86661243  0.01675793  0.24774867  1
  O  O280  1  0.87381100  0.00963563  0.75499565  1
  O  O281  1  0.86184734  0.50309816  0.25298462  1
  O  O282  1  0.85972447  0.50898990  0.75695368  1
  O  O283  1  0.12468714  0.37591395  0.36617598  1
  O  O284  1  0.12128533  0.37194542  0.87068778  1
  O  O285  1  0.11890748  0.86241783  0.38201329  1
  O  O286  1  0.11752712  0.86195951  0.87768327  1
  O  O287  1  0.62482903  0.36346092  0.36863426  1
  O  O288  1  0.62195661  0.37076140  0.86882821  1
  O  O289  1  0.61885477  0.87412261  0.37250540  1
  O  O290  1  0.62717284  0.86869704  0.86593561  1
  O  O291  1  0.37960233  0.12892683  0.13223803  1
  O  O292  1  0.38910651  0.13331736  0.62594199  1
  O  O293  1  0.38783599  0.61759880  0.12273782  1
  O  O294  1  0.36474555  0.63431981  0.63375170  1
  O  O295  1  0.88409378  0.12232964  0.13425116  1
  O  O296  1  0.88055190  0.13244204  0.63325489  1
  O  O297  1  0.88058762  0.63210682  0.12505285  1
  O  O298  1  0.86858839  0.62512962  0.64088597  1
  O  O299  1  0.25975935  0.25498736  0.13153809  1
  O  O300  1  0.25844711  0.25764420  0.61950671  1
  O  O301  1  0.24180033  0.75905773  0.11675571  1
  O  O302  1  0.25601182  0.75861926  0.61996145  1
  O  O303  1  0.74627863  0.25893471  0.11743029  1
  O  O304  1  0.75504364  0.25647195  0.62039187  1
  O  O305  1  0.76083736  0.75251683  0.12810094  1
  O  O306  1  0.75275936  0.75829901  0.61448360  1
  O  O307  1  0.25145777  0.24063001  0.38314619  1
  O  O308  1  0.23550870  0.25947373  0.87717732  1
  O  O309  1  0.24221088  0.74649950  0.37930524  1
  O  O310  1  0.24047902  0.74457810  0.88031618  1
  O  O311  1  0.74470731  0.24530706  0.38581267  1
  O  O312  1  0.74560538  0.24560764  0.88097607  1
  O  O313  1  0.75398049  0.74354182  0.38633866  1
  O  O314  1  0.74016405  0.74099802  0.87089824  1
  O  O315  1  0.00391031  0.11820534  0.00873515  1
  O  O316  1  -0.00883740  0.12435057  0.51221180  1
  O  O317  1  0.00104263  0.61761780  0.00708602  1
  O  O318  1  0.01036619  0.63032828  0.49333559  1
  O  O319  1  0.50606173  0.10914055  0.01080504  1
  O  O320  1  0.49454136  0.11599505  0.50765516  1
  O  O321  1  0.50264208  0.62302898  0.01012326  1
  O  O322  1  0.49599573  0.61336766  0.50124674  1
  O  O323  1  0.48836305  0.37636523  0.50075076  1
  O  O324  1  0.49986741  0.37456082  0.98779892  1
  O  O325  1  0.48718671  0.88688855  0.50568854  1
  O  O326  1  0.49079297  0.88354785  1.00223772  1
  O  O327  1  1.00126210  0.37628142  0.50269249  1
  O  O328  1  0.99196037  0.37817569  0.99777290  1
  O  O329  1  0.99375475  0.87689056  0.48904506  1
  O  O330  1  0.99167549  0.87996694  0.99266203  1
  O  O331  1  0.50111364  0.49703801  0.38857209  1
  O  O332  1  0.49424047  0.49169274  0.87820363  1
  O  O333  1  0.49180725  1.00347732  0.38541316  1
  O  O334  1  0.49948466  0.99710182  0.88819945  1
  O  O335  1  0.98106173  0.50288511  0.37107023  1
  O  O336  1  0.99561317  0.49377570  0.88284288  1
  O  O337  1  1.00933466  0.98634572  0.37328031  1
  O  O338  1  0.99741898  0.99293792  0.87879432  1
  O  O339  1  0.00604474  0.00379829  0.12081531  1
  O  O340  1  0.00956354  0.00901741  0.62598690  1
  O  O341  1  0.00485757  0.50584118  0.12176361  1
  O  O342  1  0.00933638  0.50075855  0.62793542  1
  O  O343  1  0.49618927  0.00590863  0.11348329  1
  O  O344  1  0.50380860  0.01246054  0.62315151  1
  O  O345  1  0.50792573  0.50720092  0.12537639  1
  O  O346  1  0.50641420  0.49658379  0.61316710  1
  O  O347  1  0.23926554  0.37616947  0.24042756  1
  O  O348  1  0.23759839  0.37234376  0.74068304  1
  O  O349  1  0.25662347  0.87756989  0.24014723  1
  O  O350  1  0.25119757  0.87579459  0.74078471  1
  O  O351  1  0.74666107  0.37984292  0.24421696  1
  O  O352  1  0.74483344  0.38373957  0.74151577  1
  O  O353  1  0.75422979  0.87526751  0.23334067  1
  O  O354  1  0.74165643  0.87633462  0.74144146  1
  O  O355  1  0.25590235  0.11633734  0.25671968  1
  O  O356  1  0.24982167  0.11807128  0.74818180  1
  O  O357  1  0.24731482  0.62522213  0.26248826  1
  O  O358  1  0.25984591  0.62958290  0.76258000  1
  O  O359  1  0.75833679  0.12491623  0.26190152  1
  O  O360  1  0.76309030  0.12679771  0.75692744  1
  O  O361  1  0.75042737  0.61811310  0.25693928  1
  O  O362  1  0.75369903  0.61854016  0.76111684  1
  O  O363  1  0.36672434  0.11881798  0.36790182  1
  O  O364  1  0.37630917  0.12868185  0.87983692  1
  O  O365  1  0.36240965  0.62247296  0.37452840  1
  O  O366  1  0.36858775  0.61704924  0.86987678  1
  O  O367  1  0.86729894  0.12647157  0.36728973  1
  O  O368  1  0.87006272  0.12270319  0.86836772  1
  O  O369  1  0.86379211  0.61406048  0.37573358  1
  O  O370  1  0.86734042  0.62048703  0.86998672  1
  O  O371  1  0.13039538  0.38025784  0.13103692  1
  O  O372  1  0.13254705  0.38441275  0.63247354  1
  O  O373  1  0.13104099  0.88610766  0.11760493  1
  O  O374  1  0.13859219  0.88616032  0.61645271  1
  O  O375  1  0.63414994  0.38016314  0.13081602  1
  O  O376  1  0.62988860  0.38102725  0.63342526  1
  O  O377  1  0.64268568  0.86675548  0.12026732  1
  O  O378  1  0.63454327  0.88238439  0.63083305  1
  O  O379  1  0.12262856  0.25864012  0.25328731  1
  O  O380  1  0.12076393  0.25630953  0.75818741  1
  O  O381  1  0.11458445  0.74787302  0.25986451  1
  O  O382  1  0.13119905  0.74752097  0.76428206  1
  O  O383  1  0.61982421  0.25399752  0.25840784  1
  O  O384  1  0.63564109  0.26477581  0.75794497  1
  O  O385  1  0.60476910  0.75468704  0.24173691  1
  O  O386  1  0.62299098  0.75819070  0.75582998  1
  O  O387  1  0.38104471  0.24350315  0.24208058  1
  O  O388  1  0.37480727  0.25677341  0.73686525  1
  O  O389  1  0.39051627  0.74294000  0.24798219  1
  O  O390  1  0.37682851  0.74196937  0.74287732  1
  O  O391  1  0.87295561  0.23411660  0.25106343  1
  O  O392  1  0.87963666  0.24586804  0.74057611  1
  O  O393  1  0.88252834  0.74731274  0.24050634  1
  O  O394  1  0.86971429  0.73599239  0.74810837  1
  O  O395  1  0.38681952  0.49312808  0.50027946  1
  O  O396  1  0.37708870  0.49384852  0.98626403  1
  O  O397  1  0.37960502  0.99466217  0.49742612  1
  O  O398  1  0.38078956  0.99213518  0.99561852  1
  O  O399  1  0.86799079  0.50461001  0.49409701  1
  O  O400  1  0.87740433  0.48839063  0.99459364  1
  O  O401  1  0.88008792  0.98458197  0.50662062  1
  O  O402  1  0.88254029  0.99165686  0.99249436  1
  O  O403  1  0.11853215  0.00596959  0.00514870  1
  O  O404  1  0.12414251  0.00388636  0.51400276  1
  O  O405  1  0.11840380  0.49987615  0.01244103  1
  O  O406  1  0.12546570  0.51638767  0.50673231  1
  O  O407  1  0.61308479  -0.00977944  -0.00116003  1
  O  O408  1  0.61420981  -0.00351873  0.51537879  1
  O  O409  1  0.62456869  0.49898193  0.01470155  1
  O  O410  1  0.61096498  0.49526361  0.50931023  1
  O  O411  1  0.36813130  0.36390158  0.12358859  1
  O  O412  1  0.36959684  0.37076343  0.62051817  1
  O  O413  1  0.36154198  0.87871557  0.11158258  1
  O  O414  1  0.36749941  0.86947827  0.62055901  1
  O  O415  1  0.86302209  0.38052357  0.11812143  1
  O  O416  1  0.86388471  0.36844460  0.62888459  1
  O  O417  1  0.87037130  0.86675618  0.11686675  1
  O  O418  1  0.86367996  0.87412957  0.62180299  1
  O  O419  1  0.13862173  0.12557624  0.37184403  1
  O  O420  1  0.11816011  0.13430138  0.88615315  1
  O  O421  1  0.12784507  0.63284976  0.38437779  1
  O  O422  1  0.13098040  0.63274866  0.87567943  1
  O  O423  1  0.63375373  0.13754514  0.37227455  1
  O  O424  1  0.64035366  0.13301163  0.86703257  1
  O  O425  1  0.63714704  0.61765058  0.37184450  1
  O  O426  1  0.63097871  0.63279055  0.87525782  1
