# generated using pymatgen
data_V85Zn86O256
_symmetry_space_group_name_H-M   'P 1'
_cell_length_a   16.96366550
_cell_length_b   16.95125479
_cell_length_c   16.95647037
_cell_angle_alpha   90.02632391
_cell_angle_beta   89.89613868
_cell_angle_gamma   89.93724918
_symmetry_Int_Tables_number   1
_chemical_formula_structural   V85Zn86O256
_chemical_formula_sum   'V85 Zn86 O256'
_cell_volume   4875.91343779
_cell_formula_units_Z   1
loop_
 _symmetry_equiv_pos_site_id
 _symmetry_equiv_pos_as_xyz
  1  'x, y, z'
loop_
 _atom_site_type_symbol
 _atom_site_label
 _atom_site_symmetry_multiplicity
 _atom_site_fract_x
 _atom_site_fract_y
 _atom_site_fract_z
 _atom_site_occupancy
  V  V0  1  0.75581954  0.62315559  0.37444782  1
  V  V1  1  0.11729102  0.37763922  0.25494352  1
  V  V2  1  0.87589173  0.62599459  0.25050347  1
  V  V3  1  0.12812539  0.50187479  0.61874151  1
  V  V4  1  0.07928767  0.67563767  -0.05772092  1
  V  V5  1  0.25323417  0.12908566  0.85629233  1
  V  V6  1  0.62833447  0.00495738  0.61983278  1
  V  V7  1  0.74955682  0.61821709  0.86282088  1
  V  V8  1  0.50253170  0.25672518  0.25107446  1
  V  V9  1  0.74813037  0.25426139  0.00956750  1
  V  V10  1  0.00497419  0.62688442  0.12624077  1
  V  V11  1  0.62559386  0.12502343  -0.00236996  1
  V  V12  1  0.62478616  0.62745917  0.00935262  1
  V  V13  1  0.37481290  0.24526418  0.62681924  1
  V  V14  1  0.24820286  0.87734360  0.12851803  1
  V  V15  1  0.12404760  0.86506979  0.25373281  1
  V  V16  1  0.88343099  0.24651318  0.12561670  1
  V  V17  1  0.76214832  0.12351528  0.86986276  1
  V  V18  1  0.49778307  0.24431074  0.74958141  1
  V  V19  1  0.12122173  0.25676331  0.87476352  1
  V  V20  1  0.87631272  0.00058371  0.37657125  1
  V  V21  1  0.62200776  0.25491948  0.37111216  1
  V  V22  1  0.62412817  0.75357143  0.88044492  1
  V  V23  1  0.62423288  0.75477857  0.37111687  1
  V  V24  1  0.87389443  0.24348677  0.62861725  1
  V  V25  1  0.11471871  0.01010626  0.13283730  1
  V  V26  1  0.00820458  -0.00307990  0.50097279  1
  V  V27  1  0.49794232  -0.00457399  -0.00672925  1
  V  V28  1  0.74978747  0.00091414  0.24955371  1
  V  V29  1  0.13185996  -0.00048534  0.64052623  1
  V  V30  1  0.25329746  0.25073863  0.49651001  1
  V  V31  1  0.75291138  0.74798985  0.50293233  1
  V  V32  1  0.87042125  0.38085224  0.00721160  1
  V  V33  1  0.50278694  0.75291590  0.76101833  1
  V  V34  1  0.22112134  0.79138665  -0.04504982  1
  V  V35  1  0.49908681  0.12236574  0.12617281  1
  V  V36  1  0.36514358  0.74135241  0.11133042  1
  V  V37  1  0.87564111  0.74114572  0.63849041  1
  V  V38  1  -0.00373237  0.25426429  0.75320168  1
  V  V39  1  0.24940098  0.24501868  0.00209287  1
  V  V40  1  0.25267106  0.88030005  0.62940858  1
  V  V41  1  0.62461073  0.61650016  0.49633462  1
  V  V42  1  -0.00028534  0.86916469  0.37314597  1
  V  V43  1  0.37880131  0.62510025  0.75617090  1
  V  V44  1  0.00345323  0.49458685  -0.00382203  1
  V  V45  1  0.25091463  0.49676981  0.74996833  1
  V  V46  1  0.87435656  0.49395564  0.86194796  1
  V  V47  1  0.50420654  0.12620267  0.61782879  1
  V  V48  1  0.37962403  -0.01719014  0.37162287  1
  V  V49  1  0.74679985  0.75144616  0.00084633  1
  V  V50  1  0.74292496  0.24551789  0.50129015  1
  V  V51  1  0.88349286  0.36933923  0.49499015  1
  V  V52  1  0.37112375  0.88116862  -0.00689211  1
  V  V53  1  0.88307098  0.88041121  -0.01055075  1
  V  V54  1  0.50321947  0.62269387  0.62757032  1
  V  V55  1  0.62754715  0.24955044  0.87412104  1
  V  V56  1  0.50107067  0.50479810  0.00599910  1
  V  V57  1  0.75191252  0.87593595  0.62793220  1
  V  V58  1  0.87893740  0.87222384  0.50265898  1
  V  V59  1  0.75176376  0.38200998  0.62368167  1
  V  V60  1  0.37707451  0.75167903  0.62413556  1
  V  V61  1  0.74386693  0.12289172  0.38020246  1
  V  V62  1  0.50140543  0.37341609  0.87366356  1
  V  V63  1  0.88287979  0.49368294  0.37269094  1
  V  V64  1  0.87617136  0.75133654  0.13044567  1
  V  V65  1  0.50456171  -0.00606768  0.49461405  1
  V  V66  1  0.37792280  0.49970596  0.87558693  1
  V  V67  1  0.62373916  0.87922530  0.75550142  1
  V  V68  1  0.12298085  0.73795419  0.39034341  1
  V  V69  1  0.75169407  0.87420438  0.12356414  1
  V  V70  1  0.37505968  0.24795611  0.12809509  1
  V  V71  1  0.38417284  0.37799035  0.49178871  1
  V  V72  1  0.62560440  -0.00024234  0.12418251  1
  V  V73  1  0.37566255  0.37340326  0.00038765  1
  V  V74  1  0.25387125  0.11958849  0.37516180  1
  V  V75  1  -0.00053645  0.12230464  0.63068730  1
  V  V76  1  0.37421430  0.00741682  0.86219596  1
  V  V77  1  0.25857948  0.51423358  0.26161565  1
  V  V78  1  0.11724866  0.25164211  0.37797315  1
  V  V79  1  -0.00151095  0.62158224  0.63166406  1
  V  V80  1  0.24959624  0.62216354  0.88445213  1
  V  V81  1  0.00648666  0.50101683  0.49614326  1
  V  V82  1  0.62972138  0.38163319  0.74878738  1
  V  V83  1  0.63354953  0.48479715  0.12667841  1
  V  V84  1  0.24762004  0.37648627  0.13073728  1
  Zn  Zn85  1  0.25168272  -0.00481617  0.25416911  1
  Zn  Zn86  1  0.37787902  0.11932095  0.25258677  1
  Zn  Zn87  1  0.12760053  0.86507225  0.77939014  1
  Zn  Zn88  1  0.12521097  0.50300162  0.12397473  1
  Zn  Zn89  1  0.75247176  0.48639104  0.23834854  1
  Zn  Zn90  1  0.47435777  0.74752517  0.26612842  1
  Zn  Zn91  1  0.90247277  0.00135213  0.85473773  1
  Zn  Zn92  1  0.25277165  0.37445532  0.62247157  1
  Zn  Zn93  1  0.12700456  0.12426183  0.50071996  1
  Zn  Zn94  1  0.12301443  0.37534219  0.74825070  1
  Zn  Zn95  1  0.11577546  0.13281076  0.00919354  1
  Zn  Zn96  1  0.61886434  0.87277423  0.25462118  1
  Zn  Zn97  1  0.75642583  0.00699155  0.74849356  1
  Zn  Zn98  1  0.88237081  0.12178335  0.24656406  1
  Zn  Zn99  1  0.37688723  0.87375762  0.49724735  1
  Zn  Zn100  1  0.00275778  0.74710632  0.77275951  1
  Zn  Zn101  1  0.49183304  0.50812694  0.49034494  1
  Zn  Zn102  1  0.00161680  0.24713823  0.25147467  1
  Zn  Zn103  1  0.62851520  0.50151293  0.62641150  1
  Zn  Zn104  1  -0.00145779  0.01229631  -0.00185499  1
  Zn  Zn105  1  0.23944889  0.74029381  0.50405110  1
  Zn  Zn106  1  0.50272083  0.40656357  0.35478644  1
  Zn  Zn107  1  0.18973207  0.18884992  0.19635263  1
  Zn  Zn108  1  0.18305953  0.19053036  0.68328022  1
  Zn  Zn109  1  0.18776498  0.69268032  0.18345609  1
  Zn  Zn110  1  0.19120651  0.68149391  0.68960950  1
  Zn  Zn111  1  0.68818365  0.18710586  0.18948099  1
  Zn  Zn112  1  0.68567687  0.19056504  0.68834937  1
  Zn  Zn113  1  0.61707149  0.63443683  0.22859536  1
  Zn  Zn114  1  0.68436033  0.68952975  0.68729093  1
  Zn  Zn115  1  0.31313246  0.31267828  0.31258578  1
  Zn  Zn116  1  0.31420383  0.31194191  0.81172271  1
  Zn  Zn117  1  0.31739720  0.77735185  0.31576967  1
  Zn  Zn118  1  0.31535283  0.81967354  0.80537187  1
  Zn  Zn119  1  0.81040608  0.31434049  0.30917901  1
  Zn  Zn120  1  0.81258557  0.31327811  0.81342324  1
  Zn  Zn121  1  0.80944893  0.81246735  0.31162696  1
  Zn  Zn122  1  0.80923138  0.81334394  0.81293802  1
  Zn  Zn123  1  0.19271612  0.43669021  0.43433485  1
  Zn  Zn124  1  0.18806142  0.43456378  0.93859364  1
  Zn  Zn125  1  0.19118335  0.92717910  0.44374214  1
  Zn  Zn126  1  0.18130561  0.96090177  0.93736837  1
  Zn  Zn127  1  0.70221080  0.42248237  0.40826730  1
  Zn  Zn128  1  0.68872916  0.43817706  0.93827460  1
  Zn  Zn129  1  0.68915841  0.93636610  0.44124657  1
  Zn  Zn130  1  0.68991024  0.93952062  0.93776454  1
  Zn  Zn131  1  0.30970885  0.06012675  0.06442654  1
  Zn  Zn132  1  0.31781444  0.06189963  0.56021312  1
  Zn  Zn133  1  0.30523658  0.55694938  0.05906177  1
  Zn  Zn134  1  0.31142442  0.56424533  0.56432818  1
  Zn  Zn135  1  0.81468431  0.06533759  0.05925868  1
  Zn  Zn136  1  0.81556018  0.06203522  0.56302767  1
  Zn  Zn137  1  0.80958699  0.56450416  0.06131718  1
  Zn  Zn138  1  0.81741702  0.56029760  0.55872061  1
  Zn  Zn139  1  0.43557778  0.44077631  0.18364666  1
  Zn  Zn140  1  0.43838105  0.43394181  0.68311451  1
  Zn  Zn141  1  0.43792804  0.92846678  0.18731384  1
  Zn  Zn142  1  0.44346283  0.93775997  0.68638488  1
  Zn  Zn143  1  0.93795570  0.43616502  0.18370345  1
  Zn  Zn144  1  0.93887829  0.43124958  0.68155082  1
  Zn  Zn145  1  0.93725081  0.93613647  0.19132624  1
  Zn  Zn146  1  0.94109784  0.93241141  0.69280014  1
  Zn  Zn147  1  0.06324650  0.06437840  0.31202405  1
  Zn  Zn148  1  0.06529892  0.06965952  0.81626068  1
  Zn  Zn149  1  0.06233010  0.56109977  0.30738894  1
  Zn  Zn150  1  0.05644260  0.55252021  0.80427606  1
  Zn  Zn151  1  0.56391169  0.06407412  0.31276392  1
  Zn  Zn152  1  0.56391041  0.06455083  0.81000838  1
  Zn  Zn153  1  0.43952734  0.58454683  0.30097924  1
  Zn  Zn154  1  0.56559455  0.56273416  0.81818079  1
  Zn  Zn155  1  0.43772355  0.18124629  0.43741951  1
  Zn  Zn156  1  0.43671770  0.18496349  0.93805258  1
  Zn  Zn157  1  0.40625218  0.67224823  0.45046636  1
  Zn  Zn158  1  0.43641149  0.69742856  0.95327274  1
  Zn  Zn159  1  0.93580791  0.18128177  0.43856806  1
  Zn  Zn160  1  0.93966543  0.18919262  0.94137557  1
  Zn  Zn161  1  0.94354992  0.68583509  0.44330420  1
  Zn  Zn162  1  0.91470559  0.68189863  0.94154362  1
  Zn  Zn163  1  0.06097750  0.31737320  0.06088053  1
  Zn  Zn164  1  0.06530282  0.31442262  0.56430601  1
  Zn  Zn165  1  0.05765166  0.81888777  0.07159575  1
  Zn  Zn166  1  0.06693463  0.80795216  0.63530289  1
  Zn  Zn167  1  0.56183181  0.31280624  0.06333874  1
  Zn  Zn168  1  0.56493366  0.31384513  0.56004736  1
  Zn  Zn169  1  0.54780927  0.81774260  0.09179916  1
  Zn  Zn170  1  0.56384394  0.80947894  0.56478754  1
  O  O171  1  0.13063979  0.11238876  0.13444427  1
  O  O172  1  0.11948856  0.11684664  0.62046869  1
  O  O173  1  0.10878025  0.62578237  0.12959835  1
  O  O174  1  0.11869555  0.60896950  0.62485494  1
  O  O175  1  0.61951295  0.11907131  0.11813451  1
  O  O176  1  0.61900952  0.11603082  0.62935051  1
  O  O177  1  0.63200266  0.61866687  0.10986765  1
  O  O178  1  0.62067885  0.62314459  0.61796056  1
  O  O179  1  0.38434093  0.36505811  0.38866210  1
  O  O180  1  0.38040449  0.37983685  0.88150827  1
  O  O181  1  0.37216778  0.88024289  0.37302421  1
  O  O182  1  0.36399112  0.89072226  0.88388803  1
  O  O183  1  0.87780111  0.38024965  0.38521079  1
  O  O184  1  0.86593065  0.38912263  0.88530754  1
  O  O185  1  0.88015436  0.87920541  0.38059400  1
  O  O186  1  0.87114553  0.87627213  0.88728114  1
  O  O187  1  0.25937610  0.00315761  0.37864032  1
  O  O188  1  0.25644903  0.02267875  0.87516828  1
  O  O189  1  0.25133151  0.50223659  0.36060219  1
  O  O190  1  0.25599895  0.50269095  0.86929780  1
  O  O191  1  0.75316150  0.00468949  0.36981825  1
  O  O192  1  0.74639354  0.01847893  0.87493856  1
  O  O193  1  0.77032116  0.51719925  0.39602276  1
  O  O194  1  0.75716034  0.50992914  0.87706338  1
  O  O195  1  0.24597374  0.48684557  0.12712928  1
  O  O196  1  0.24559441  0.50038166  0.63196588  1
  O  O197  1  0.24128026  0.99157104  0.13048597  1
  O  O198  1  0.24396240  0.99480705  0.61792213  1
  O  O199  1  0.73964217  0.49519406  0.11982432  1
  O  O200  1  0.75140338  0.48502289  0.61826969  1
  O  O201  1  0.74795717  0.99701715  0.13157571  1
  O  O202  1  0.74351742  0.99621497  0.62538865  1
  O  O203  1  0.01378818  0.37245467  0.24644372  1
  O  O204  1  0.00337032  0.35918682  0.74314024  1
  O  O205  1  0.00626664  0.87962781  0.26472794  1
  O  O206  1  0.01577683  0.86094469  0.73519901  1
  O  O207  1  0.49483218  0.36152553  0.24734152  1
  O  O208  1  0.50668208  0.36544181  0.75344622  1
  O  O209  1  0.51555709  0.84721589  0.20864325  1
  O  O210  1  0.51529259  0.86703043  0.74655882  1
  O  O211  1  0.50166126  0.12909063  0.23599471  1
  O  O212  1  0.50617878  0.13846156  0.73929222  1
  O  O213  1  0.50541909  0.64467528  0.23133832  1
  O  O214  1  0.49867909  0.63037153  0.74922357  1
  O  O215  1  0.99383299  0.13391909  0.26051612  1
  O  O216  1  1.00700411  0.13519643  0.73654301  1
  O  O217  1  0.98432684  0.61720182  0.23943451  1
  O  O218  1  0.99935271  0.62541884  0.73570275  1
  O  O219  1  0.36901233  0.25402072  0.00702082  1
  O  O220  1  0.37224539  0.25513961  0.50505041  1
  O  O221  1  0.34229795  0.76771623  -0.00954232  1
  O  O222  1  0.40745170  0.76332147  0.52517001  1
  O  O223  1  0.86794951  0.25884489  0.00918569  1
  O  O224  1  0.86953178  0.25423813  0.50577473  1
  O  O225  1  0.86637941  0.76247458  0.00699789  1
  O  O226  1  0.86499230  0.75110212  0.50647677  1
  O  O227  1  0.13682145  0.25034513  0.49568187  1
  O  O228  1  0.13242452  0.25339460  0.99395582  1
  O  O229  1  0.12179427  0.74425025  0.49133434  1
  O  O230  1  0.12921330  0.74916341  1.00447912  1
  O  O231  1  0.63782225  0.24873354  0.49701045  1
  O  O232  1  0.63113492  0.24636182  0.99494288  1
  O  O233  1  0.63838576  0.74568674  0.49659537  1
  O  O234  1  0.62845077  0.74497603  0.99751896  1
  O  O235  1  0.49693242  0.24199864  0.13056086  1
  O  O236  1  0.49716274  0.24400873  0.62900949  1
  O  O237  1  0.46298082  0.74511225  0.07128221  1
  O  O238  1  0.50422129  0.73930871  0.64234956  1
  O  O239  1  0.98530833  0.25606564  0.12555936  1
  O  O240  1  0.99358002  0.24208572  0.62798770  1
  O  O241  1  0.98515146  0.74217829  0.11982972  1
  O  O242  1  0.98602817  0.73332782  0.61054450  1
  O  O243  1  0.01502382  0.24727941  0.38431059  1
  O  O244  1  0.00864259  0.24469391  0.86522435  1
  O  O245  1  0.00625007  0.76148419  0.38227025  1
  O  O246  1  0.00557776  0.73022334  0.88781110  1
  O  O247  1  0.50856728  0.23373333  0.36209038  1
  O  O248  1  0.50443569  0.25273237  0.86770205  1
  O  O249  1  0.52615076  0.75889933  0.37756571  1
  O  O250  1  0.50240426  0.74616758  0.86709445  1
  O  O251  1  0.25352475  0.13444569  0.49110233  1
  O  O252  1  0.24629118  0.13936641  1.00352530  1
  O  O253  1  0.30065198  0.64569118  0.49306461  1
  O  O254  1  0.23956199  0.61861689  0.98463285  1
  O  O255  1  0.75584325  0.13309225  0.49234006  1
  O  O256  1  0.74439361  0.13258644  0.99134758  1
  O  O257  1  0.74439739  0.63248666  0.50033216  1
  O  O258  1  0.74404848  0.63244045  0.99160654  1
  O  O259  1  0.25503534  0.36521081  0.00794106  1
  O  O260  1  0.26245678  0.36344633  0.49796869  1
  O  O261  1  0.25230650  0.88708757  0.00625586  1
  O  O262  1  0.25938845  0.86352180  0.51275143  1
  O  O263  1  0.75643424  0.36458635  -0.00523012  1
  O  O264  1  0.75967537  0.36395523  0.50382619  1
  O  O265  1  0.75955802  0.87323521  0.00580315  1
  O  O266  1  0.75770253  0.86730021  0.50838038  1
  O  O267  1  0.13349118  0.49151127  0.24738523  1
  O  O268  1  0.13485142  0.49552722  0.74197579  1
  O  O269  1  0.12714329  0.99075668  0.24466413  1
  O  O270  1  0.12574564  0.99698014  0.74152804  1
  O  O271  1  0.62718619  0.51342526  0.22530957  1
  O  O272  1  0.62033177  0.48541692  0.74984428  1
  O  O273  1  0.63127615  0.99537511  0.24301868  1
  O  O274  1  0.62719285  0.99349844  0.74115396  1
  O  O275  1  0.37714096  -0.00251063  0.25675552  1
  O  O276  1  0.38602177  -0.00020023  0.76343669  1
  O  O277  1  0.36396984  0.50569363  0.24456852  1
  O  O278  1  0.37197218  0.50335440  0.75568652  1
  O  O279  1  0.86597880  -0.00019934  0.25758569  1
  O  O280  1  0.86864032  -0.00619132  0.74879443  1
  O  O281  1  0.87404779  0.50140112  0.25788860  1
  O  O282  1  0.87843943  0.48876013  0.76316085  1
  O  O283  1  0.13316027  0.36422329  0.36629881  1
  O  O284  1  0.13287490  0.36067888  0.87009804  1
  O  O285  1  0.11564741  0.87060892  0.37119122  1
  O  O286  1  0.16082917  0.85932373  0.89062897  1
  O  O287  1  0.60607026  0.35676122  0.38935730  1
  O  O288  1  0.62235727  0.36885044  0.86842877  1
  O  O289  1  0.64372148  0.86018613  0.37075287  1
  O  O290  1  0.63254011  0.86770641  0.86776131  1
  O  O291  1  0.38300563  0.12929275  0.12574776  1
  O  O292  1  0.38536124  0.13710355  0.62010219  1
  O  O293  1  0.35437719  0.64282740  0.11272651  1
  O  O294  1  0.38605151  0.63240414  0.63893326  1
  O  O295  1  0.86819626  0.14268013  0.12594044  1
  O  O296  1  0.88304613  0.13581176  0.62193268  1
  O  O297  1  0.87816445  0.63264284  0.12996414  1
  O  O298  1  0.88117401  0.62985376  0.62375103  1
  O  O299  1  0.25347645  0.25796592  0.12215438  1
  O  O300  1  0.25818730  0.24881822  0.61547560  1
  O  O301  1  0.24813068  0.76706894  0.11385439  1
  O  O302  1  0.26412225  0.75314601  0.62592235  1
  O  O303  1  0.75301381  0.24760693  0.11360127  1
  O  O304  1  0.75661270  0.25282558  0.61808532  1
  O  O305  1  0.76146181  0.76163497  0.11720940  1
  O  O306  1  0.75694480  0.75296355  0.62150085  1
  O  O307  1  0.24718230  0.24146503  0.38124653  1
  O  O308  1  0.24885877  0.24420683  0.88292520  1
  O  O309  1  0.22572824  0.75713926  0.37861167  1
  O  O310  1  0.25278464  0.73701102  0.86692474  1
  O  O311  1  0.74251681  0.24147884  0.38167694  1
  O  O312  1  0.74749914  0.24083914  0.88361794  1
  O  O313  1  0.75703178  0.73906253  0.38686484  1
  O  O314  1  0.74727175  0.73883542  0.88082916  1
  O  O315  1  0.00283827  0.12724607  0.00639758  1
  O  O316  1  0.00063860  0.11550429  0.51187622  1
  O  O317  1  0.00250229  0.62052662  0.00369928  1
  O  O318  1  -0.00548189  0.60573222  0.51005753  1
  O  O319  1  0.50509047  0.12158586  0.01012852  1
  O  O320  1  0.50034974  0.11531322  0.51186991  1
  O  O321  1  0.51102093  0.61222268  -0.01227530  1
  O  O322  1  0.50728506  0.62853042  0.51166127  1
  O  O323  1  0.48899975  0.37841801  0.50408413  1
  O  O324  1  0.49487735  0.37914266  0.99238552  1
  O  O325  1  0.50459653  0.89135599  0.50891110  1
  O  O326  1  0.48918104  0.89059027  1.00398672  1
  O  O327  1  0.99028831  0.38284114  0.50819055  1
  O  O328  1  0.98603401  0.38361965  1.00111511  1
  O  O329  1  0.99247926  0.88394716  0.49185265  1
  O  O330  1  0.98389880  0.87618140  1.00511824  1
  O  O331  1  0.48693585  0.51363876  0.37662196  1
  O  O332  1  0.49691159  0.49182120  0.88288084  1
  O  O333  1  0.49463924  1.00358039  0.38273425  1
  O  O334  1  0.49089094  1.01502278  0.88536198  1
  O  O335  1  0.99088545  0.50193334  0.38086774  1
  O  O336  1  0.98263127  0.50674789  0.88120656  1
  O  O337  1  0.99572846  0.99401760  0.38390783  1
  O  O338  1  1.01095040  1.00009981  0.88310513  1
  O  O339  1  0.01287630  -0.00385642  0.12802267  1
  O  O340  1  0.00961708  0.00571907  0.61984539  1
  O  O341  1  -0.00162721  0.50956964  0.11373756  1
  O  O342  1  0.00767982  0.50218353  0.61912905  1
  O  O343  1  0.50403398  0.00696143  0.11704534  1
  O  O344  1  0.50846008  0.00893830  0.62037542  1
  O  O345  1  0.50947559  0.49276250  0.11058975  1
  O  O346  1  0.50239976  0.51332104  0.62465788  1
  O  O347  1  0.24633698  0.38127373  0.24408227  1
  O  O348  1  0.25420412  0.38751029  0.74752908  1
  O  O349  1  0.24071612  0.87438617  0.24233468  1
  O  O350  1  0.24294114  0.87258486  0.73438888  1
  O  O351  1  0.73484582  0.39403246  0.29888624  1
  O  O352  1  0.74103928  0.36555823  0.73742160  1
  O  O353  1  0.75022412  0.88578103  0.24051494  1
  O  O354  1  0.73860957  0.87410811  0.74385251  1
  O  O355  1  0.25441133  0.12055823  0.26467723  1
  O  O356  1  0.25289731  0.13573124  0.75815811  1
  O  O357  1  0.24233640  0.61137032  0.24322460  1
  O  O358  1  0.25841798  0.61211454  0.75758479  1
  O  O359  1  0.75222520  0.11282333  0.25601981  1
  O  O360  1  0.74507425  0.12954630  0.76675979  1
  O  O361  1  0.76179853  0.61184846  0.26318290  1
  O  O362  1  0.74081867  0.62523200  0.76436007  1
  O  O363  1  0.36863319  0.11221716  0.37426573  1
  O  O364  1  0.36090230  0.12435359  0.87754022  1
  O  O365  1  0.38992541  0.68677088  0.34142316  1
  O  O366  1  0.36869029  0.61908574  0.87521348  1
  O  O367  1  0.86234172  0.11740553  0.37485066  1
  O  O368  1  0.86386612  0.12376308  0.87910862  1
  O  O369  1  0.87678028  0.62056296  0.36803114  1
  O  O370  1  0.85846959  0.61066546  0.87466380  1
  O  O371  1  0.13303620  0.37387466  0.13469979  1
  O  O372  1  0.13228215  0.38580520  0.62650011  1
  O  O373  1  0.12856869  0.88345956  0.13466432  1
  O  O374  1  0.13866830  0.89061752  0.61193021  1
  O  O375  1  0.62558319  0.38545859  0.12380139  1
  O  O376  1  0.63375812  0.37633442  0.63047213  1
  O  O377  1  0.64178782  0.88190153  0.11700178  1
  O  O378  1  0.63276165  0.88186024  0.63205125  1
  O  O379  1  0.12576410  0.25864403  0.26125832  1
  O  O380  1  0.11763664  0.25265444  0.75591992  1
  O  O381  1  0.12263002  0.76250819  0.25120402  1
  O  O382  1  0.11624263  0.75247281  0.73118695  1
  O  O383  1  0.61718945  0.24612100  0.25878316  1
  O  O384  1  0.61749976  0.25986317  0.75509084  1
  O  O385  1  0.64465233  0.74386475  0.26867864  1
  O  O386  1  0.62015762  0.75681703  0.75932239  1
  O  O387  1  0.38284005  0.24453273  0.24415737  1
  O  O388  1  0.38590512  0.25567842  0.74035118  1
  O  O389  1  0.37001648  0.76948918  0.21128699  1
  O  O390  1  0.38613897  0.74755210  0.74538807  1
  O  O391  1  0.87158887  0.25467273  0.23480598  1
  O  O392  1  0.88160261  0.25345843  0.74040655  1
  O  O393  1  0.86767268  0.73993606  0.24111154  1
  O  O394  1  0.87948261  0.75254263  0.74125431  1
  O  O395  1  0.37320760  0.47930228  0.50950291  1
  O  O396  1  0.38281976  0.49467108  0.99635288  1
  O  O397  1  0.38688224  0.99532720  0.49135516  1
  O  O398  1  0.38006261  1.00018381  0.99099395  1
  O  O399  1  0.88601273  0.48843234  0.49492855  1
  O  O400  1  0.88032754  0.49476291  0.99577109  1
  O  O401  1  0.88500749  0.99371677  0.49673869  1
  O  O402  1  0.87549676  0.98689119  1.00108445  1
  O  O403  1  0.12385346  0.00797682  0.02177317  1
  O  O404  1  0.11495007  0.00083920  0.49979415  1
  O  O405  1  0.10887117  0.49075184  0.00031242  1
  O  O406  1  0.11886481  0.49160065  0.50448110  1
  O  O407  1  0.61640078  0.00507224  0.00330131  1
  O  O408  1  0.62237613  -0.00145591  0.51173953  1
  O  O409  1  0.61982415  0.50488518  0.00571215  1
  O  O410  1  0.62499314  0.51333201  0.49828079  1
  O  O411  1  0.36766927  0.36822982  0.11924913  1
  O  O412  1  0.37492547  0.36042516  0.61610148  1
  O  O413  1  0.36287721  0.88114334  0.10669798  1
  O  O414  1  0.37005068  0.86957974  0.63130427  1
  O  O415  1  0.87154363  0.36711683  0.11527001  1
  O  O416  1  0.86856766  0.36316778  0.61681523  1
  O  O417  1  0.86852522  0.87047214  0.12124715  1
  O  O418  1  0.87014467  0.86360463  0.61901345  1
  O  O419  1  0.13643106  0.13173341  0.37990629  1
  O  O420  1  0.14148396  0.13866740  0.87678811  1
  O  O421  1  0.11198012  0.64054070  0.37043536  1
  O  O422  1  0.13026657  0.61814114  0.87024682  1
  O  O423  1  0.63801344  0.13114656  0.37275254  1
  O  O424  1  0.62933771  0.13313382  0.88094263  1
  O  O425  1  0.64120323  0.63744903  0.38518596  1
  O  O426  1  0.63537358  0.62917482  0.88445297  1
