# generated using pymatgen
data_V85Zn86O256
_symmetry_space_group_name_H-M   'P 1'
_cell_length_a   16.94014771
_cell_length_b   16.94184438
_cell_length_c   16.92973572
_cell_angle_alpha   89.97747898
_cell_angle_beta   90.07262316
_cell_angle_gamma   89.97158484
_symmetry_Int_Tables_number   1
_chemical_formula_structural   V85Zn86O256
_chemical_formula_sum   'V85 Zn86 O256'
_cell_volume   4858.78434846
_cell_formula_units_Z   1
loop_
 _symmetry_equiv_pos_site_id
 _symmetry_equiv_pos_as_xyz
  1  'x, y, z'
loop_
 _atom_site_type_symbol
 _atom_site_label
 _atom_site_symmetry_multiplicity
 _atom_site_fract_x
 _atom_site_fract_y
 _atom_site_fract_z
 _atom_site_occupancy
  V  V0  1  0.36020330  0.75137845  0.12270703  1
  V  V1  1  0.87725692  0.24514954  0.12593433  1
  V  V2  1  0.37910719  0.23695269  0.63532720  1
  V  V3  1  0.12189696  0.25359199  0.37892442  1
  V  V4  1  0.14163342  0.75575112  0.87924976  1
  V  V5  1  0.49435664  -0.00373920  0.00039395  1
  V  V6  1  0.62390531  0.62812122  -0.00388346  1
  V  V7  1  0.50139384  0.75122563  0.74650514  1
  V  V8  1  0.86960317  0.12626761  0.25787026  1
  V  V9  1  0.12356259  0.37364771  0.25391577  1
  V  V10  1  0.25959146  0.24681173  0.00404452  1
  V  V11  1  0.74238762  0.86226603  0.62922869  1
  V  V12  1  0.24756386  0.38578876  0.63442121  1
  V  V13  1  0.12537471  0.62525589  0.50515022  1
  V  V14  1  0.62870010  0.74949096  0.38164522  1
  V  V15  1  -0.00024975  0.12387994  0.62467369  1
  V  V16  1  0.49502784  0.62921693  0.62386229  1
  V  V17  1  0.88084513  0.49987057  0.36642895  1
  V  V18  1  0.75792492  0.62850173  0.37250755  1
  V  V19  1  0.50077373  0.36511618  0.87496462  1
  V  V20  1  0.25545618  0.12346026  0.87282228  1
  V  V21  1  0.74917031  0.37242625  0.12569890  1
  V  V22  1  0.37797169  0.49910034  0.37695105  1
  V  V23  1  0.49658091  0.50174089  -0.00309882  1
  V  V24  1  0.37152815  0.12971603  0.24528684  1
  V  V25  1  0.87959034  0.37639406  -0.00246015  1
  V  V26  1  0.62359851  0.49896233  0.12549113  1
  V  V27  1  0.37522917  0.37256150  0.00539902  1
  V  V28  1  0.24955878  0.12133168  0.37217715  1
  V  V29  1  0.74989539  0.24570387  0.49646672  1
  V  V30  1  -0.00761183  0.64380099  0.62805251  1
  V  V31  1  0.63330806  0.87336312  0.24753632  1
  V  V32  1  0.62635052  0.23786682  0.37577391  1
  V  V33  1  0.12229132  -0.00078189  0.62319875  1
  V  V34  1  -0.00014675  0.37492525  0.87439166  1
  V  V35  1  0.25310685  0.86862467  0.62385182  1
  V  V36  1  0.87867104  0.37704188  0.49341803  1
  V  V37  1  0.74788554  0.00327673  0.25203956  1
  V  V38  1  0.74613360  0.75528219  0.00619748  1
  V  V39  1  0.12512129  0.12087851  0.00594616  1
  V  V40  1  0.00276805  -0.00335493  0.00619607  1
  V  V41  1  0.50834919  0.00688882  0.51447322  1
  V  V42  1  -0.00124124  0.74687182  0.25080970  1
  V  V43  1  0.37764204  0.00145087  0.37161154  1
  V  V44  1  0.86269900  0.63433813  0.75357197  1
  V  V45  1  0.25110476  0.00287472  0.74724166  1
  V  V46  1  0.37741719  0.87187411  0.50074856  1
  V  V47  1  0.37701275  0.37300448  0.50494639  1
  V  V48  1  0.49408464  0.13114205  0.12060228  1
  V  V49  1  0.11702724  0.87064050  0.74840264  1
  V  V50  1  0.62885708  -0.00592984  0.11977547  1
  V  V51  1  0.25132728  0.36955728  0.12800109  1
  V  V52  1  0.74713394  0.12733818  0.87383851  1
  V  V53  1  0.50352756  0.87298259  0.86981976  1
  V  V54  1  0.37525488  -0.00437968  0.86931425  1
  V  V55  1  0.87249976  -0.00372006  0.87260351  1
  V  V56  1  0.00436892  0.49868380  0.50608245  1
  V  V57  1  0.19158865  0.56943879  0.81783778  1
  V  V58  1  0.25148261  0.24856718  0.50426392  1
  V  V59  1  -0.01241510  0.62604255  0.12392898  1
  V  V60  1  0.12343550  0.50201985  0.12750364  1
  V  V61  1  0.13816796  0.63131002  0.00493637  1
  V  V62  1  0.37539150  0.62597455  0.25219385  1
  V  V63  1  0.87651402  0.12242481  0.75160356  1
  V  V64  1  0.24940907  0.62718876  0.37789875  1
  V  V65  1  0.37447235  0.62133419  0.75443798  1
  V  V66  1  0.24362221  0.89252208  0.12387522  1
  V  V67  1  0.62638090  0.12574114  0.00101281  1
  V  V68  1  -0.00029686  0.25243666  0.25560494  1
  V  V69  1  0.63335808  0.50204199  0.63216729  1
  V  V70  1  0.62585452  0.37525995  0.25309830  1
  V  V71  1  -0.00365863  0.86449564  0.87363694  1
  V  V72  1  0.87562961  0.25393183  0.62609523  1
  V  V73  1  0.12707573  0.24832273  0.87141826  1
  V  V74  1  0.12734051  0.89029868  0.25095242  1
  V  V75  1  0.63621685  0.37440031  0.75746209  1
  V  V76  1  0.50238949  0.37332477  0.37647740  1
  V  V77  1  0.87021072  0.85181904  0.50504354  1
  V  V78  1  0.87040823  0.00065947  0.38195578  1
  V  V79  1  0.86558323  0.87474053  0.00961557  1
  V  V80  1  0.49762981  0.62741386  0.12540990  1
  V  V81  1  0.50699515  0.50075599  0.50197618  1
  V  V82  1  0.25028154  0.49820089  0.25372425  1
  V  V83  1  0.50045337  0.75548890  0.24889246  1
  V  V84  1  0.74792489  0.24874661  -0.00290899  1
  Zn  Zn85  1  0.12351010  0.12354366  0.49995980  1
  Zn  Zn86  1  0.12683566  0.75369363  0.37395387  1
  Zn  Zn87  1  0.00364483  0.25501557  0.74782999  1
  Zn  Zn88  1  0.36403735  0.86715460  -0.00447114  1
  Zn  Zn89  1  -0.00382622  -0.00343098  0.49914663  1
  Zn  Zn90  1  0.50937705  0.24554563  0.74121117  1
  Zn  Zn91  1  0.50386686  0.87937269  0.37704955  1
  Zn  Zn92  1  0.25516802  0.74912133  0.50197657  1
  Zn  Zn93  1  0.75404370  0.38353035  0.62716091  1
  Zn  Zn94  1  0.86781827  0.74874899  0.13187727  1
  Zn  Zn95  1  0.63307727  0.63088439  0.50444796  1
  Zn  Zn96  1  0.62966105  0.75261687  0.87054645  1
  Zn  Zn97  1  0.12615086  0.38987778  0.74914145  1
  Zn  Zn98  1  0.71975987  -0.00360459  0.72245389  1
  Zn  Zn99  1  0.00284091  0.50588664  -0.00316844  1
  Zn  Zn100  1  0.49683492  0.25069105  0.24615758  1
  Zn  Zn101  1  -0.00197569  0.87608478  0.37446650  1
  Zn  Zn102  1  0.36708953  0.50020520  0.87207069  1
  Zn  Zn103  1  0.62403714  0.12434979  0.52496416  1
  Zn  Zn104  1  0.00552912  0.11938134  0.12984628  1
  Zn  Zn105  1  0.75687650  0.61669639  0.87589674  1
  Zn  Zn106  1  0.75943090  0.50575892  0.24323642  1
  Zn  Zn107  1  0.18819660  0.18472696  0.18877703  1
  Zn  Zn108  1  0.19040702  0.18773433  0.68716775  1
  Zn  Zn109  1  0.18226679  0.68875231  0.19273757  1
  Zn  Zn110  1  0.17903504  0.69263668  0.68326011  1
  Zn  Zn111  1  0.68510241  0.18560331  0.18725963  1
  Zn  Zn112  1  0.69359745  0.19395473  0.68945510  1
  Zn  Zn113  1  0.68952872  0.68622317  0.18636292  1
  Zn  Zn114  1  0.68631617  0.69101077  0.68672648  1
  Zn  Zn115  1  0.31332776  0.30853536  0.31587119  1
  Zn  Zn116  1  0.31408217  0.31486236  0.81383078  1
  Zn  Zn117  1  0.31094548  0.81670839  0.31017814  1
  Zn  Zn118  1  0.31790639  0.81153020  0.80336537  1
  Zn  Zn119  1  0.81010826  0.31489051  0.31500480  1
  Zn  Zn120  1  0.81463288  0.31295478  0.81321348  1
  Zn  Zn121  1  0.81318096  0.81463087  0.31393642  1
  Zn  Zn122  1  0.80927273  0.80607091  0.81193524  1
  Zn  Zn123  1  0.18735562  0.43680161  0.44262404  1
  Zn  Zn124  1  0.18086437  0.43181997  0.94459397  1
  Zn  Zn125  1  0.18845525  0.93853462  0.43691726  1
  Zn  Zn126  1  0.18634360  0.93606821  0.93897538  1
  Zn  Zn127  1  0.69426686  0.43850102  0.43731205  1
  Zn  Zn128  1  0.68877461  0.44067488  0.93395970  1
  Zn  Zn129  1  0.69036166  0.93536876  0.44108528  1
  Zn  Zn130  1  0.65322019  0.97606407  0.88572317  1
  Zn  Zn131  1  0.31396837  0.06147481  0.05965406  1
  Zn  Zn132  1  0.31409664  0.05930797  0.55908686  1
  Zn  Zn133  1  0.31278836  0.55961884  0.06565335  1
  Zn  Zn134  1  0.31637925  0.56265413  0.56334736  1
  Zn  Zn135  1  0.81349992  0.05919123  0.06534093  1
  Zn  Zn136  1  0.80616102  0.06355700  0.56610878  1
  Zn  Zn137  1  0.80147468  0.54816577  0.03444014  1
  Zn  Zn138  1  0.81669130  0.57050801  0.55859946  1
  Zn  Zn139  1  0.43853413  0.43622854  0.18725656  1
  Zn  Zn140  1  0.43957195  0.43666340  0.68913569  1
  Zn  Zn141  1  0.43515405  0.93909614  0.18797584  1
  Zn  Zn142  1  0.43633964  0.93545130  0.68688579  1
  Zn  Zn143  1  0.94022078  0.43297144  0.18447849  1
  Zn  Zn144  1  0.93659743  0.44189641  0.68333085  1
  Zn  Zn145  1  0.93887477  0.93752072  0.19050342  1
  Zn  Zn146  1  0.92929585  0.93211761  0.68445821  1
  Zn  Zn147  1  0.05759243  0.06575891  0.31622148  1
  Zn  Zn148  1  0.06100837  0.05898718  0.81510731  1
  Zn  Zn149  1  0.06108855  0.56463873  0.31557484  1
  Zn  Zn150  1  0.00816216  0.54733846  0.79377439  1
  Zn  Zn151  1  0.55732243  0.06062972  0.30982388  1
  Zn  Zn152  1  0.56178132  0.06968101  0.71659751  1
  Zn  Zn153  1  0.56699387  0.56466181  0.31340047  1
  Zn  Zn154  1  0.55948220  0.56046045  0.81250634  1
  Zn  Zn155  1  0.43955583  0.18620287  0.44026589  1
  Zn  Zn156  1  0.47402293  0.15071172  0.88505985  1
  Zn  Zn157  1  0.44155577  0.68944455  0.43717388  1
  Zn  Zn158  1  0.43034435  0.68882403  0.93444540  1
  Zn  Zn159  1  0.93730826  0.18618754  0.43927888  1
  Zn  Zn160  1  0.94006623  0.18780765  0.93779587  1
  Zn  Zn161  1  0.94172875  0.68250080  0.43151575  1
  Zn  Zn162  1  0.93959803  0.68917281  0.93844104  1
  Zn  Zn163  1  0.06567494  0.30676297  0.06342907  1
  Zn  Zn164  1  0.06376484  0.31600495  0.56390089  1
  Zn  Zn165  1  0.06394214  0.81181748  0.06373108  1
  Zn  Zn166  1  0.06387208  0.81481798  0.55278103  1
  Zn  Zn167  1  0.56299567  0.31139583  0.05946395  1
  Zn  Zn168  1  0.56562096  0.31340828  0.56641706  1
  Zn  Zn169  1  0.55839056  0.81440857  0.06096658  1
  Zn  Zn170  1  0.56222858  0.81636869  0.56555622  1
  O  O171  1  0.12473024  0.12904601  0.11049066  1
  O  O172  1  0.11715604  0.11778446  0.62649098  1
  O  O173  1  0.12005010  0.61893516  0.12163059  1
  O  O174  1  0.11814243  0.62916484  0.61043054  1
  O  O175  1  0.61649766  0.11409002  0.11992576  1
  O  O176  1  0.63179372  0.11742020  0.63849373  1
  O  O177  1  0.61558175  0.62069407  0.11753424  1
  O  O178  1  0.61493207  0.61809641  0.62366559  1
  O  O179  1  0.38118142  0.37882950  0.38332533  1
  O  O180  1  0.38005910  0.37918112  0.88676577  1
  O  O181  1  0.37503733  0.88590259  0.37924214  1
  O  O182  1  0.37932774  0.87978251  0.87710269  1
  O  O183  1  0.87290468  0.38248492  0.38591420  1
  O  O184  1  0.88594354  0.36682950  0.88610259  1
  O  O185  1  0.87328672  0.88350797  0.38543866  1
  O  O186  1  0.87986520  0.87953713  0.88131780  1
  O  O187  1  0.25860719  0.01500466  0.38452384  1
  O  O188  1  0.25350305  0.00270700  0.86767118  1
  O  O189  1  0.25714645  0.50853495  0.37456232  1
  O  O190  1  0.24428808  0.50271230  0.87522403  1
  O  O191  1  0.75375167  -0.00346604  0.36085690  1
  O  O192  1  0.76620676  0.01029070  0.88226703  1
  O  O193  1  0.76088966  0.50772662  0.37056872  1
  O  O194  1  0.76830944  0.51441584  0.92467474  1
  O  O195  1  0.24056770  0.49245243  0.13311871  1
  O  O196  1  0.25234336  0.48352528  0.61689956  1
  O  O197  1  0.25084614  0.99095937  0.12786986  1
  O  O198  1  0.24218460  0.99548771  0.63037164  1
  O  O199  1  0.74174766  0.49113193  0.12413882  1
  O  O200  1  0.73678197  0.50401639  0.61669852  1
  O  O201  1  0.73979631  1.00363802  0.13560774  1
  O  O202  1  0.76634116  0.97881186  0.62443170  1
  O  O203  1  0.00691293  0.36010291  0.24746420  1
  O  O204  1  0.00597590  0.37548858  0.75656423  1
  O  O205  1  0.01199117  0.86854232  0.24860586  1
  O  O206  1  0.00663727  0.88274798  0.75949829  1
  O  O207  1  0.50635678  0.37114925  0.25551249  1
  O  O208  1  0.50735212  0.37024418  0.76005796  1
  O  O209  1  0.50945800  0.87006371  0.25072694  1
  O  O210  1  0.49123115  0.86439533  0.75796249  1
  O  O211  1  0.49236089  0.12656911  0.23706200  1
  O  O212  1  0.49730909  0.13903133  0.77551987  1
  O  O213  1  0.49538066  0.63260722  0.24558521  1
  O  O214  1  0.49254732  0.62858838  0.74345994  1
  O  O215  1  0.99217257  0.13521483  0.24818658  1
  O  O216  1  0.99318254  0.12635500  0.74212753  1
  O  O217  1  1.00673510  0.63913139  0.24175211  1
  O  O218  1  1.01219219  0.64042441  0.72854754  1
  O  O219  1  0.36105996  0.25757105  -0.00120447  1
  O  O220  1  0.36829152  0.25417341  0.50698706  1
  O  O221  1  0.38057899  0.75182926  0.01718181  1
  O  O222  1  0.37662436  0.76712242  0.49231135  1
  O  O223  1  0.87089577  0.25270612  0.01021853  1
  O  O224  1  0.87109078  0.25724659  0.50444467  1
  O  O225  1  0.86888471  0.76147939  0.00241121  1
  O  O226  1  0.87353837  0.75437230  0.49095469  1
  O  O227  1  0.13233347  0.24878411  0.49495602  1
  O  O228  1  0.13426836  0.24243160  0.98913230  1
  O  O229  1  0.13245422  0.74295740  0.49249470  1
  O  O230  1  0.12377278  0.74302073  0.99217367  1
  O  O231  1  0.63145510  0.24795264  0.49493066  1
  O  O232  1  0.64001398  0.24328162  1.00630484  1
  O  O233  1  0.61617549  0.75115759  0.48389075  1
  O  O234  1  0.62787967  0.74432505  1.00098508  1
  O  O235  1  0.50359655  0.23432403  0.12108196  1
  O  O236  1  0.48372242  0.25458199  0.62393219  1
  O  O237  1  0.49311729  0.74811219  0.13573475  1
  O  O238  1  0.50311127  0.74131099  0.63087128  1
  O  O239  1  0.99314715  0.24521549  0.13345063  1
  O  O240  1  0.99151372  0.24368581  0.62518935  1
  O  O241  1  0.99819073  0.74257249  0.13298008  1
  O  O242  1  1.00022151  0.74134686  0.61342708  1
  O  O243  1  0.01014756  0.24486939  0.36953233  1
  O  O244  1  0.01013891  0.25586017  0.87339332  1
  O  O245  1  0.00329508  0.75174094  0.36222248  1
  O  O246  1  0.01077232  0.76297031  0.88023878  1
  O  O247  1  0.50818218  0.25790593  0.37666337  1
  O  O248  1  0.49991900  0.26559204  0.88906479  1
  O  O249  1  0.50745221  0.75176130  0.36186894  1
  O  O250  1  0.49776840  0.75782747  0.86835202  1
  O  O251  1  0.24845388  0.13558837  0.49541096  1
  O  O252  1  0.24455986  0.12974113  0.99442587  1
  O  O253  1  0.24611649  0.62582872  0.49498112  1
  O  O254  1  0.23801981  0.62408304  1.00891848  1
  O  O255  1  0.74701425  0.14148972  0.50586340  1
  O  O256  1  0.75127287  0.13163657  0.99691885  1
  O  O257  1  0.74762074  0.62074291  0.48007733  1
  O  O258  1  0.73519843  0.63947513  1.00925365  1
  O  O259  1  0.25567498  0.36764735  0.00631700  1
  O  O260  1  0.25521390  0.36387792  0.50661871  1
  O  O261  1  0.24710053  0.87805534  0.01810445  1
  O  O262  1  0.25790866  0.87644033  0.50685768  1
  O  O263  1  0.75890528  0.36401510  0.00577948  1
  O  O264  1  0.75972629  0.36649084  0.50384548  1
  O  O265  1  0.76472546  0.87252918  -0.00208975  1
  O  O266  1  0.76507048  0.87480014  0.50476192  1
  O  O267  1  0.13021596  0.49474884  0.24856702  1
  O  O268  1  0.12479112  0.51316767  0.76570678  1
  O  O269  1  0.11731740  0.98926781  0.25061545  1
  O  O270  1  0.12935292  0.99196095  0.74192132  1
  O  O271  1  0.62183072  0.48746709  0.24439677  1
  O  O272  1  0.61879232  0.48940346  0.74271873  1
  O  O273  1  0.62961741  0.99468488  0.24294566  1
  O  O274  1  0.62569709  0.99679851  0.77636287  1
  O  O275  1  0.38109235  0.01084626  0.26371590  1
  O  O276  1  0.36514158  -0.00507116  0.76002001  1
  O  O277  1  0.37065404  0.50440680  0.25682083  1
  O  O278  1  0.37954420  0.51312300  0.75133774  1
  O  O279  1  0.86774573  0.00646611  0.25585569  1
  O  O280  1  0.87971000  0.00872525  0.75923031  1
  O  O281  1  0.87808872  0.49040143  0.26187134  1
  O  O282  1  0.90090044  0.52797484  0.74908512  1
  O  O283  1  0.13359446  0.36099098  0.37039457  1
  O  O284  1  0.12161914  0.36363511  0.87253265  1
  O  O285  1  0.12497332  0.87615595  0.36328857  1
  O  O286  1  0.11735232  0.87257737  0.86864429  1
  O  O287  1  0.62185222  0.37107292  0.36800030  1
  O  O288  1  0.61914502  0.38259623  0.86509381  1
  O  O289  1  0.62580049  0.86729885  0.36580545  1
  O  O290  1  0.60587799  0.87023812  0.88665599  1
  O  O291  1  0.38131861  0.11845781  0.13271032  1
  O  O292  1  0.36837208  0.13861447  0.62354440  1
  O  O293  1  0.37778482  0.63222205  0.13328288  1
  O  O294  1  0.38842821  0.62051365  0.63025692  1
  O  O295  1  0.87593419  0.13367633  0.13488363  1
  O  O296  1  0.88070898  0.13210999  0.63233254  1
  O  O297  1  0.88655822  0.62306200  0.11536590  1
  O  O298  1  0.88553714  0.62807154  0.63093317  1
  O  O299  1  0.24259339  0.25804443  0.11674052  1
  O  O300  1  0.25870986  0.25550098  0.61981978  1
  O  O301  1  0.25810326  0.75449905  0.13477916  1
  O  O302  1  0.24779600  0.76502015  0.62429653  1
  O  O303  1  0.75765437  0.25218815  0.12011762  1
  O  O304  1  0.76474351  0.25680517  0.62035418  1
  O  O305  1  0.75103106  0.75184674  0.11441301  1
  O  O306  1  0.74704312  0.75996778  0.62031475  1
  O  O307  1  0.24499552  0.24130945  0.38471510  1
  O  O308  1  0.24698192  0.24131336  0.87997348  1
  O  O309  1  0.25308235  0.73605617  0.37279497  1
  O  O310  1  0.24091668  0.76447706  0.87624329  1
  O  O311  1  0.73942648  0.25574026  0.38426901  1
  O  O312  1  0.76068725  0.24082780  0.88697400  1
  O  O313  1  0.74287822  0.73866325  0.36613050  1
  O  O314  1  0.74667342  0.74441696  0.89027136  1
  O  O315  1  0.00842896  0.11691196  -0.00020164  1
  O  O316  1  0.00130222  0.12285412  0.51381747  1
  O  O317  1  0.01056670  0.62485637  0.00827873  1
  O  O318  1  0.00758564  0.62124747  0.50490860  1
  O  O319  1  0.50336204  0.11324880  -0.00263545  1
  O  O320  1  0.50238642  0.11086098  0.50086461  1
  O  O321  1  0.50175470  0.61906956  0.00488983  1
  O  O322  1  0.50273571  0.61751093  0.50597955  1
  O  O323  1  0.49726928  0.38241074  0.49729828  1
  O  O324  1  0.49274409  0.38247580  0.99965204  1
  O  O325  1  0.49404425  0.88753326  0.50014523  1
  O  O326  1  0.49225114  0.88592541  0.99708835  1
  O  O327  1  0.99159697  0.38412229  0.50513267  1
  O  O328  1  0.99543354  0.36642424  0.99344448  1
  O  O329  1  0.98524444  0.87729769  0.49519673  1
  O  O330  1  0.99311955  0.87987216  0.99389203  1
  O  O331  1  0.49844847  0.49508572  0.38225314  1
  O  O332  1  0.49880684  0.49120941  0.88869992  1
  O  O333  1  0.49144556  0.99930447  0.38289300  1
  O  O334  1  0.48659403  0.99217467  0.88291980  1
  O  O335  1  0.98910289  0.50975652  0.38678493  1
  O  O336  1  1.00947782  0.48014151  0.88427498  1
  O  O337  1  0.98726138  0.99812058  0.37649877  1
  O  O338  1  0.98958360  0.99292382  0.88485147  1
  O  O339  1  -0.00592239  0.00216068  0.11118010  1
  O  O340  1  0.00547922  0.00647605  0.62486231  1
  O  O341  1  0.01268339  0.50736104  0.13150227  1
  O  O342  1  -0.00184806  0.51253787  0.60967607  1
  O  O343  1  0.50347770  0.00719766  0.11679990  1
  O  O344  1  0.49975950  0.00227156  0.61774443  1
  O  O345  1  0.50209027  0.50554814  0.11567280  1
  O  O346  1  0.50886647  0.50460407  0.61760143  1
  O  O347  1  0.24627857  0.37802822  0.24766085  1
  O  O348  1  0.24874778  0.37756966  0.73952102  1
  O  O349  1  0.23536876  0.87492987  0.24269420  1
  O  O350  1  0.24346416  0.88531745  0.74212253  1
  O  O351  1  0.74160740  0.37741622  0.24349890  1
  O  O352  1  0.74090592  0.37964994  0.75248860  1
  O  O353  1  0.73892643  0.88134498  0.24873593  1
  O  O354  1  0.75722774  0.87304690  0.73493851  1
  O  O355  1  0.25700602  0.12799270  0.25996192  1
  O  O356  1  0.24379959  0.11088479  0.75740273  1
  O  O357  1  0.25417194  0.61759665  0.25797940  1
  O  O358  1  0.24948049  0.62346160  0.75001825  1
  O  O359  1  0.75793600  0.11775179  0.24689929  1
  O  O360  1  0.76427090  0.12667668  0.75895869  1
  O  O361  1  0.74256293  0.61958600  0.26388317  1
  O  O362  1  0.75799184  0.62466264  0.75409488  1
  O  O363  1  0.36906174  0.12097107  0.37009632  1
  O  O364  1  0.36011069  0.11296472  0.88146022  1
  O  O365  1  0.37097597  0.61916189  0.37168061  1
  O  O366  1  0.37402921  0.61852231  0.86543866  1
  O  O367  1  0.87670479  0.12061642  0.36375083  1
  O  O368  1  0.87422217  0.11844583  0.86921642  1
  O  O369  1  0.86574598  0.61756111  0.37224947  1
  O  O370  1  0.88029447  0.63055378  0.86021357  1
  O  O371  1  0.12926600  0.38199759  0.13205449  1
  O  O372  1  0.14161125  0.36930867  0.63018951  1
  O  O373  1  0.13579406  0.87363438  0.13492578  1
  O  O374  1  0.12781916  0.88155915  0.63003706  1
  O  O375  1  0.62769360  0.37706497  0.13277078  1
  O  O376  1  0.62820820  0.38392955  0.63754627  1
  O  O377  1  0.61768520  0.88812826  0.13033924  1
  O  O378  1  0.64244075  0.87601018  0.61877284  1
  O  O379  1  0.11785053  0.25138266  0.25825769  1
  O  O380  1  0.12611253  0.24669050  0.76319518  1
  O  O381  1  0.11377820  0.75996962  0.25233387  1
  O  O382  1  0.12982634  0.76549520  0.75838434  1
  O  O383  1  0.62364696  0.25936466  0.25640438  1
  O  O384  1  0.62757149  0.27024798  0.74817651  1
  O  O385  1  0.61869073  0.75793488  0.25154468  1
  O  O386  1  0.60743607  0.74046365  0.75578981  1
  O  O387  1  0.37811179  0.23545484  0.25465099  1
  O  O388  1  0.37303020  0.25293789  0.73688809  1
  O  O389  1  0.38266863  0.74695956  0.24537758  1
  O  O390  1  0.38525221  0.73460216  0.75112882  1
  O  O391  1  0.87959505  0.24518536  0.24800254  1
  O  O392  1  0.87896297  0.24392928  0.74198722  1
  O  O393  1  0.89264821  0.76132000  0.24725342  1
  O  O394  1  0.87583233  0.73465054  0.74815386  1
  O  O395  1  0.38786083  0.49453226  0.49600230  1
  O  O396  1  0.38006446  0.49279363  0.99950106  1
  O  O397  1  0.38512692  0.99483981  0.49240168  1
  O  O398  1  0.37853350  0.99527381  0.99024356  1
  O  O399  1  0.88119270  0.49360910  0.49240342  1
  O  O400  1  0.89155134  0.47615734  1.02346257  1
  O  O401  1  0.87225493  1.00985260  0.48571464  1
  O  O402  1  0.87998471  0.98975821  0.99553467  1
  O  O403  1  0.11510131  0.00860784  -0.00682481  1
  O  O404  1  0.12249692  0.00063167  0.51241068  1
  O  O405  1  0.12381717  0.50623513  0.01310143  1
  O  O406  1  0.11576232  0.50926665  0.49262460  1
  O  O407  1  0.61623340  0.00465811  0.00303473  1
  O  O408  1  0.61068371  0.00235708  0.49429600  1
  O  O409  1  0.61382453  0.50622119  0.00783469  1
  O  O410  1  0.61614099  0.49787163  0.50538935  1
  O  O411  1  0.36912921  0.37856972  0.11376952  1
  O  O412  1  0.36519169  0.36986689  0.62108797  1
  O  O413  1  0.35890096  0.87013432  0.13019108  1
  O  O414  1  0.36405398  0.88354443  0.61410856  1
  O  O415  1  0.87101374  0.35921914  0.12377457  1
  O  O416  1  0.87505879  0.36964873  0.61780317  1
  O  O417  1  0.87849448  0.87517341  0.11165814  1
  O  O418  1  0.87428447  0.86710047  0.60871809  1
  O  O419  1  0.13234455  0.13356566  0.37686358  1
  O  O420  1  0.13503283  0.12753020  0.88248122  1
  O  O421  1  0.13509096  0.62620324  0.38304392  1
  O  O422  1  0.13520519  0.63372392  0.88029650  1
  O  O423  1  0.61912396  0.13748314  0.37177638  1
  O  O424  1  0.64461916  0.12155400  0.88595073  1
  O  O425  1  0.63310236  0.63319917  0.37726224  1
  O  O426  1  0.62279677  0.62303893  0.88899527  1
