# generated using pymatgen
data_V85Zn86O256
_symmetry_space_group_name_H-M   'P 1'
_cell_length_a   16.94242183
_cell_length_b   16.93678476
_cell_length_c   16.92733354
_cell_angle_alpha   89.97508138
_cell_angle_beta   89.98907933
_cell_angle_gamma   90.04696020
_symmetry_Int_Tables_number   1
_chemical_formula_structural   V85Zn86O256
_chemical_formula_sum   'V85 Zn86 O256'
_cell_volume   4857.29875044
_cell_formula_units_Z   1
loop_
 _symmetry_equiv_pos_site_id
 _symmetry_equiv_pos_as_xyz
  1  'x, y, z'
loop_
 _atom_site_type_symbol
 _atom_site_label
 _atom_site_symmetry_multiplicity
 _atom_site_fract_x
 _atom_site_fract_y
 _atom_site_fract_z
 _atom_site_occupancy
  V  V0  1  0.37256675  0.50419561  0.87496313  1
  V  V1  1  0.00101547  0.36661001  0.36348339  1
  V  V2  1  0.04891616  0.18622242  0.18264242  1
  V  V3  1  -0.00587931  0.62412152  0.62587043  1
  V  V4  1  0.49952774  0.61868581  0.62171845  1
  V  V5  1  0.37730836  0.87541113  0.50068013  1
  V  V6  1  0.74743745  0.49396561  0.74403749  1
  V  V7  1  0.13606717  0.37614528  0.75604887  1
  V  V8  1  0.74115983  0.62711287  0.37164171  1
  V  V9  1  0.50529866  0.38213596  0.87206390  1
  V  V10  1  0.86246213  0.11891900  0.25078236  1
  V  V11  1  0.51153892  0.00902256  0.50579466  1
  V  V12  1  0.87020845  0.24424262  0.12582495  1
  V  V13  1  0.25355554  0.00565945  0.74891277  1
  V  V14  1  0.37608701  0.37784500  -0.00448982  1
  V  V15  1  0.86734373  0.63282827  0.74683864  1
  V  V16  1  0.00339274  0.74250990  0.24806277  1
  V  V17  1  -0.00124588  0.87988737  0.37482287  1
  V  V18  1  0.62754151  0.50800897  0.12325828  1
  V  V19  1  0.24843790  0.62302214  0.37414307  1
  V  V20  1  0.63096621  0.25407549  0.88152263  1
  V  V21  1  0.13232133  0.49275957  0.62932826  1
  V  V22  1  0.87301328  0.87378446  0.00277347  1
  V  V23  1  -0.01060933  0.13334740  0.62964695  1
  V  V24  1  0.63557577  0.25209394  0.37030119  1
  V  V25  1  0.48670694  0.24701682  0.75780322  1
  V  V26  1  0.62407467  0.86929737  0.74421391  1
  V  V27  1  0.87038702  0.49314018  0.37610023  1
  V  V28  1  0.38184321  0.12393328  0.25232792  1
  V  V29  1  -0.00095548  0.00255878  0.00136213  1
  V  V30  1  0.25474454  0.27046077  0.50178908  1
  V  V31  1  0.74286237  0.36848306  0.12212639  1
  V  V32  1  0.24852772  0.74963382  -0.00033476  1
  V  V33  1  0.12544597  0.87603214  0.75024582  1
  V  V34  1  0.50675515  0.51135823  -0.00041966  1
  V  V35  1  0.37899427  0.00276896  0.87073370  1
  V  V36  1  -0.00558070  0.49586035  0.50138409  1
  V  V37  1  0.37555371  0.62347061  0.74844313  1
  V  V38  1  0.38136079  0.49101719  0.38412793  1
  V  V39  1  0.74557230  0.24070224  0.52261663  1
  V  V40  1  0.12575852  0.74983744  0.37693068  1
  V  V41  1  0.75272799  0.12663385  0.87350384  1
  V  V42  1  0.63070604  0.12571342  -0.00029974  1
  V  V43  1  0.61998443  0.63057321  0.49690271  1
  V  V44  1  0.75292108  0.87702196  0.13686386  1
  V  V45  1  -0.00081645  0.87573667  0.87489806  1
  V  V46  1  0.50555681  0.75011778  0.25736448  1
  V  V47  1  0.25171544  0.12979214  0.86998256  1
  V  V48  1  0.24668052  0.62445145  0.86847813  1
  V  V49  1  0.87750011  0.49673449  0.87213130  1
  V  V50  1  0.12525043  0.00662754  0.62435076  1
  V  V51  1  0.24618069  0.37831114  0.12343695  1
  V  V52  1  0.37936248  0.74869324  0.62832590  1
  V  V53  1  -0.00210975  0.50000790  -0.00257453  1
  V  V54  1  0.37490325  0.00065221  0.37868824  1
  V  V55  1  0.86833566  0.36545507  0.51398448  1
  V  V56  1  0.37613249  0.75099967  0.12596010  1
  V  V57  1  0.62239792  0.48927153  0.61644479  1
  V  V58  1  0.12084664  0.62459784  0.50200314  1
  V  V59  1  0.87367698  0.36908616  -0.00280843  1
  V  V60  1  0.24728200  0.49387411  0.25085395  1
  V  V61  1  0.12085810  -0.00187964  0.12661775  1
  V  V62  1  0.74523066  0.62393264  0.88382813  1
  V  V63  1  -0.01262361  0.25830095  0.75169320  1
  V  V64  1  0.12931195  0.13166879  0.49950179  1
  V  V65  1  -0.00356884  0.75398102  0.74440888  1
  V  V66  1  0.25083557  0.25121654  -0.00579256  1
  V  V67  1  0.11987111  0.62466531  0.00300032  1
  V  V68  1  0.50176300  0.12517983  0.12228765  1
  V  V69  1  0.37712972  0.62304086  0.24820587  1
  V  V70  1  0.62987342  0.87319454  0.26146342  1
  V  V71  1  0.87883954  0.74613168  0.12564639  1
  V  V72  1  0.50183552  0.87288718  0.87361525  1
  V  V73  1  0.37946326  0.25228703  0.12204844  1
  V  V74  1  0.11665803  0.50001745  0.12909921  1
  V  V75  1  0.87358512  0.00351056  0.87166441  1
  V  V76  1  0.61999696  0.74592412  0.88294080  1
  V  V77  1  0.25246652  0.87739919  0.12465862  1
  V  V78  1  0.25008491  0.87487007  0.62589570  1
  V  V79  1  0.62923900  -0.00088049  0.13149534  1
  V  V80  1  0.50471376  0.26324247  0.25151653  1
  V  V81  1  0.12021035  0.12808222  -0.00337964  1
  V  V82  1  0.74877657  -0.00138225  0.74213055  1
  V  V83  1  0.74316673  0.48862225  0.25066841  1
  V  V84  1  0.87719082  0.61857453  0.24593036  1
  Zn  Zn85  1  0.51069618  0.63281553  0.12155711  1
  Zn  Zn86  1  0.37759899  0.87591512  -0.00129295  1
  Zn  Zn87  1  0.77322772  0.84836303  0.63541268  1
  Zn  Zn88  1  0.12957896  0.87455662  0.25109413  1
  Zn  Zn89  1  0.86063649  -0.00016308  0.37449617  1
  Zn  Zn90  1  0.87186161  0.87264846  0.50904875  1
  Zn  Zn91  1  0.50195021  0.00066140  -0.00328369  1
  Zn  Zn92  1  0.49543119  0.12203374  0.62828734  1
  Zn  Zn93  1  0.24972659  0.74944530  0.50146724  1
  Zn  Zn94  1  0.50565345  0.37495596  0.38800089  1
  Zn  Zn95  1  0.12345612  0.25314962  0.36788065  1
  Zn  Zn96  1  0.25284521  -0.00011753  0.25085471  1
  Zn  Zn97  1  -0.00268485  0.00499217  0.50047368  1
  Zn  Zn98  1  0.74457458  0.74588052  0.00621661  1
  Zn  Zn99  1  0.25138507  0.13037023  0.37724233  1
  Zn  Zn100  1  0.73366464  0.11331502  0.38250916  1
  Zn  Zn101  1  0.12024771  0.25641205  0.87298303  1
  Zn  Zn102  1  0.50425269  0.87227184  0.37908196  1
  Zn  Zn103  1  0.12287851  0.75058416  0.87470617  1
  Zn  Zn104  1  0.63012717  0.36959614  0.74498774  1
  Zn  Zn105  1  0.75310020  0.74689677  0.51132854  1
  Zn  Zn106  1  0.37118192  0.25429253  0.62251437  1
  Zn  Zn107  1  0.20960452  0.18542481  0.18438868  1
  Zn  Zn108  1  0.18958920  0.19411552  0.68577449  1
  Zn  Zn109  1  0.18839116  0.68388643  0.18608979  1
  Zn  Zn110  1  0.18519016  0.68766846  0.68673542  1
  Zn  Zn111  1  0.68654614  0.18970124  0.18946483  1
  Zn  Zn112  1  0.67170685  0.17604604  0.69609080  1
  Zn  Zn113  1  0.69254975  0.68767862  0.19388718  1
  Zn  Zn114  1  0.68196743  0.68640756  0.69080372  1
  Zn  Zn115  1  0.31099242  0.31075361  0.31319026  1
  Zn  Zn116  1  0.35034252  0.38903281  0.73948719  1
  Zn  Zn117  1  0.31394313  0.81296530  0.31265067  1
  Zn  Zn118  1  0.31425430  0.81143691  0.81176671  1
  Zn  Zn119  1  0.81756030  0.30730659  0.30880959  1
  Zn  Zn120  1  0.81114339  0.31214725  0.81376549  1
  Zn  Zn121  1  0.82232297  0.79825982  0.33665296  1
  Zn  Zn122  1  0.80904688  0.81172072  0.81636740  1
  Zn  Zn123  1  0.18038747  0.43931635  0.43468588  1
  Zn  Zn124  1  0.18714438  0.43866857  0.93325750  1
  Zn  Zn125  1  0.18939440  0.94002253  0.44020318  1
  Zn  Zn126  1  0.18852049  0.93971023  0.93750291  1
  Zn  Zn127  1  0.68598890  0.42889261  0.44195437  1
  Zn  Zn128  1  0.69171784  0.44048111  0.94062675  1
  Zn  Zn129  1  0.69477861  0.93327235  0.44799090  1
  Zn  Zn130  1  0.68830366  0.93606536  0.94166850  1
  Zn  Zn131  1  0.31364229  0.06191259  0.05734135  1
  Zn  Zn132  1  0.31887368  0.07282952  0.56701207  1
  Zn  Zn133  1  0.31119694  0.56444893  0.06082092  1
  Zn  Zn134  1  0.30714056  0.56289944  0.56056983  1
  Zn  Zn135  1  0.81099693  0.06163028  0.06369033  1
  Zn  Zn136  1  0.81581772  0.05651493  0.55781140  1
  Zn  Zn137  1  0.81346903  0.55985252  0.06419410  1
  Zn  Zn138  1  0.80649330  0.56552949  0.56171569  1
  Zn  Zn139  1  0.43671106  0.44146561  0.18453406  1
  Zn  Zn140  1  0.43606227  0.42850191  0.56480626  1
  Zn  Zn141  1  0.44328043  0.93757997  0.18816414  1
  Zn  Zn142  1  0.44028677  0.93677683  0.69010588  1
  Zn  Zn143  1  0.93388905  0.43338408  0.18383464  1
  Zn  Zn144  1  0.94002907  0.43760341  0.69058896  1
  Zn  Zn145  1  0.94088905  0.93470911  0.19318683  1
  Zn  Zn146  1  0.93575269  0.94365894  0.68477464  1
  Zn  Zn147  1  0.06836038  0.06204612  0.31475184  1
  Zn  Zn148  1  0.06100208  0.06714647  0.80939864  1
  Zn  Zn149  1  0.05967379  0.55805846  0.31412635  1
  Zn  Zn150  1  0.06034766  0.56171179  0.81161758  1
  Zn  Zn151  1  0.56327943  0.06178396  0.31657457  1
  Zn  Zn152  1  0.56613403  0.06669789  0.79423198  1
  Zn  Zn153  1  0.56152169  0.55766339  0.30831561  1
  Zn  Zn154  1  0.56267136  0.56434073  0.80516948  1
  Zn  Zn155  1  0.44120210  0.19088664  0.43947966  1
  Zn  Zn156  1  0.44095221  0.18635450  0.93004062  1
  Zn  Zn157  1  0.43628787  0.68469004  0.43843168  1
  Zn  Zn158  1  0.43687349  0.69137162  0.93693035  1
  Zn  Zn159  1  0.93478533  0.18772462  0.43866346  1
  Zn  Zn160  1  0.93785181  0.18957948  0.93511021  1
  Zn  Zn161  1  0.93330833  0.68636779  0.43606604  1
  Zn  Zn162  1  0.93662540  0.68567609  0.93479833  1
  Zn  Zn163  1  0.06298238  0.32117848  0.05371241  1
  Zn  Zn164  1  0.06124444  0.31210092  0.56147045  1
  Zn  Zn165  1  0.06137254  0.81316922  0.06343218  1
  Zn  Zn166  1  0.05771388  0.81413879  0.56344992  1
  Zn  Zn167  1  0.56315260  0.31565543  0.05820993  1
  Zn  Zn168  1  0.56565516  0.30249039  0.56522746  1
  Zn  Zn169  1  0.56337035  0.81507179  0.06279568  1
  Zn  Zn170  1  0.56022975  0.80928328  0.56245896  1
  O  O171  1  0.11858776  0.12542148  0.12373021  1
  O  O172  1  0.12175275  0.12022768  0.62005618  1
  O  O173  1  0.13063655  0.61544174  0.11070181  1
  O  O174  1  0.11267375  0.61691620  0.62358239  1
  O  O175  1  0.62352058  0.11888186  0.12020187  1
  O  O176  1  0.59133608  0.10046705  0.68472909  1
  O  O177  1  0.62970995  0.61276514  0.12767658  1
  O  O178  1  0.61408517  0.61751559  0.62001342  1
  O  O179  1  0.37420269  0.39023019  0.36940653  1
  O  O180  1  0.38565139  0.39066265  0.87857872  1
  O  O181  1  0.37610968  0.88090320  0.38405866  1
  O  O182  1  0.38422889  0.88075028  0.87380992  1
  O  O183  1  0.87968564  0.38014187  0.38040838  1
  O  O184  1  0.86951625  0.38460593  0.88411940  1
  O  O185  1  0.89577660  0.88544572  0.35369276  1
  O  O186  1  0.87937852  0.88061494  0.88307664  1
  O  O187  1  0.26306531  0.00103060  0.37271936  1
  O  O188  1  0.25601754  0.00549000  0.86828307  1
  O  O189  1  0.25529157  0.50277248  0.36734173  1
  O  O190  1  0.26062511  0.51344895  0.88617668  1
  O  O191  1  0.74692112  0.00247162  0.37756387  1
  O  O192  1  0.75827207  0.00372079  0.87432078  1
  O  O193  1  0.75425554  0.49679253  0.36735900  1
  O  O194  1  0.75795230  0.50706317  0.86948958  1
  O  O195  1  0.24256350  0.49582084  0.12986946  1
  O  O196  1  0.23042848  0.50786109  0.62571679  1
  O  O197  1  0.24216147  0.99354268  0.12315195  1
  O  O198  1  0.24499310  0.99644077  0.63065936  1
  O  O199  1  0.74490518  0.49205333  0.13055603  1
  O  O200  1  0.73593469  0.50865935  0.63349492  1
  O  O201  1  0.74235409  0.98940050  0.12508969  1
  O  O202  1  0.75679697  1.00333669  0.64159146  1
  O  O203  1  -0.00772499  0.37777302  0.26473107  1
  O  O204  1  0.00725637  0.36242931  0.74516296  1
  O  O205  1  0.00959126  0.86185109  0.25726099  1
  O  O206  1  0.00431169  0.86930266  0.75515885  1
  O  O207  1  0.49389287  0.36429144  0.24824529  1
  O  O208  1  0.50803539  0.37340457  0.76864535  1
  O  O209  1  0.50961057  0.86685036  0.25272517  1
  O  O210  1  0.51270335  0.87874478  0.76168386  1
  O  O211  1  0.49310529  0.13219510  0.24322666  1
  O  O212  1  0.48108314  0.15095827  0.78901642  1
  O  O213  1  0.49331379  0.63057310  0.24545144  1
  O  O214  1  0.48769627  0.61972708  0.73527973  1
  O  O215  1  0.99646862  0.12541744  0.24426337  1
  O  O216  1  1.00650435  0.13867473  0.73714589  1
  O  O217  1  0.99195315  0.63322959  0.25624480  1
  O  O218  1  0.99177411  0.63196157  0.74410627  1
  O  O219  1  0.37218288  0.25652255  0.00315827  1
  O  O220  1  0.35695509  0.24903958  0.49312978  1
  O  O221  1  0.36675651  0.75193799  0.00794681  1
  O  O222  1  0.37180003  0.75730629  0.50624767  1
  O  O223  1  0.88367795  0.25833322  0.01057251  1
  O  O224  1  0.86374684  0.25840603  0.50186195  1
  O  O225  1  0.87780568  0.75363247  0.01070856  1
  O  O226  1  0.85567844  0.76476067  0.45144356  1
  O  O227  1  0.13336196  0.24658244  0.49700470  1
  O  O228  1  0.12871712  0.24476405  0.99708229  1
  O  O229  1  0.12461819  0.74342133  0.49314640  1
  O  O230  1  0.12745331  0.74107466  0.99934061  1
  O  O231  1  0.64279988  0.25022068  0.49142122  1
  O  O232  1  0.62257582  0.24153757  0.99152230  1
  O  O233  1  0.62385475  0.73401415  0.50088016  1
  O  O234  1  0.62608900  0.75019424  0.98963482  1
  O  O235  1  0.49787605  0.24628009  0.12962165  1
  O  O236  1  0.50630656  0.24700816  0.65020994  1
  O  O237  1  0.49213801  0.75060888  0.13220747  1
  O  O238  1  0.48497974  0.74021473  0.62239184  1
  O  O239  1  0.99580763  0.25252059  0.12467078  1
  O  O240  1  1.00414663  0.24114549  0.63467323  1
  O  O241  1  0.98914545  0.75366771  0.13433267  1
  O  O242  1  1.00493166  0.74031523  0.63695422  1
  O  O243  1  0.00004040  0.26300570  0.37629714  1
  O  O244  1  0.00420532  0.24197391  0.85652560  1
  O  O245  1  0.01101785  0.75513208  0.36765496  1
  O  O246  1  0.00066217  0.75432628  0.86282915  1
  O  O247  1  0.50690025  0.25322836  0.36558867  1
  O  O248  1  0.50805756  0.26712894  0.88002051  1
  O  O249  1  0.49397811  0.74992926  0.36130511  1
  O  O250  1  0.50701103  0.75845208  0.87689013  1
  O  O251  1  0.23690699  0.12328996  0.49834465  1
  O  O252  1  0.23807099  0.13122753  0.99809252  1
  O  O253  1  0.24009749  0.62743976  0.49134332  1
  O  O254  1  0.24266546  0.63199309  0.99220717  1
  O  O255  1  0.75915674  0.13965781  0.49885625  1
  O  O256  1  0.73795473  0.11918711  0.99195645  1
  O  O257  1  0.74197820  0.62642579  0.48692518  1
  O  O258  1  0.75549496  0.62361754  0.98769316  1
  O  O259  1  0.25568118  0.37203311  0.00297480  1
  O  O260  1  0.24637115  0.36929009  0.49591010  1
  O  O261  1  0.24978501  0.86868642  0.00950029  1
  O  O262  1  0.26080633  0.87434684  0.50785063  1
  O  O263  1  0.76470141  0.38078323  0.00890115  1
  O  O264  1  0.76123920  0.35955932  0.50010258  1
  O  O265  1  0.75783624  0.87044725  0.01359807  1
  O  O266  1  0.75005804  0.86557485  0.51736906  1
  O  O267  1  0.13341617  0.50726678  0.24030690  1
  O  O268  1  0.11387901  0.49035279  0.73831571  1
  O  O269  1  0.13123770  0.99966290  0.23978710  1
  O  O270  1  0.13013974  0.99650760  0.74062031  1
  O  O271  1  0.63303113  0.49639559  0.23988790  1
  O  O272  1  0.63183460  0.49884646  0.73812431  1
  O  O273  1  0.61729120  0.99070125  0.23893974  1
  O  O274  1  0.63993293  0.97597922  0.76868450  1
  O  O275  1  0.37982187  0.00701189  0.25834724  1
  O  O276  1  0.36844799  -0.00368977  0.76156842  1
  O  O277  1  0.36720244  0.50714972  0.25427541  1
  O  O278  1  0.37165508  0.50869864  0.76679027  1
  O  O279  1  0.88094005  0.01662079  0.24641795  1
  O  O280  1  0.86708434  -0.00567142  0.76574233  1
  O  O281  1  0.86968616  0.50271333  0.25493748  1
  O  O282  1  0.86984158  0.50748317  0.75555369  1
  O  O283  1  0.10570412  0.37639588  0.37437762  1
  O  O284  1  0.12107370  0.37920229  0.86136735  1
  O  O285  1  0.12149406  0.86629157  0.37399191  1
  O  O286  1  0.11753949  0.87645800  0.86920785  1
  O  O287  1  0.62408588  0.35922655  0.37517888  1
  O  O288  1  0.62218710  0.37028541  0.88143420  1
  O  O289  1  0.62534122  0.87581985  0.36367341  1
  O  O290  1  0.61955864  0.86531643  0.87446026  1
  O  O291  1  0.38077782  0.13026312  0.12886853  1
  O  O292  1  0.38204854  0.13931512  0.62846986  1
  O  O293  1  0.37291113  0.62912619  0.13707772  1
  O  O294  1  0.37651641  0.62628972  0.63030271  1
  O  O295  1  0.87101204  0.13239277  0.13277344  1
  O  O296  1  0.89212836  0.12174212  0.62240552  1
  O  O297  1  0.87217173  0.62906394  0.13761366  1
  O  O298  1  0.88599932  0.61587307  0.63317833  1
  O  O299  1  0.25844127  0.26090550  0.11575469  1
  O  O300  1  0.24746670  0.25030657  0.60535639  1
  O  O301  1  0.25465102  0.75697277  0.12052851  1
  O  O302  1  0.25876671  0.75512524  0.62451323  1
  O  O303  1  0.75688360  0.25741761  0.12583054  1
  O  O304  1  0.73481948  0.23937681  0.62165341  1
  O  O305  1  0.76408559  0.75278977  0.12587591  1
  O  O306  1  0.75803177  0.73341352  0.62610610  1
  O  O307  1  0.24264157  0.25101628  0.38221406  1
  O  O308  1  0.24246864  0.24013168  0.88246040  1
  O  O309  1  0.23844005  0.74472508  0.37319040  1
  O  O310  1  0.24670248  0.74406283  0.88218479  1
  O  O311  1  0.74103100  0.24556554  0.37094894  1
  O  O312  1  0.74351632  0.24061864  0.87362000  1
  O  O313  1  0.73447138  0.72526835  0.35069532  1
  O  O314  1  0.74319337  0.74032236  0.88063605  1
  O  O315  1  0.01269531  0.12004994  -0.00415282  1
  O  O316  1  0.01062285  0.12992760  0.51089950  1
  O  O317  1  0.00673907  0.61343722  -0.00392665  1
  O  O318  1  -0.00145459  0.62049413  0.50644241  1
  O  O319  1  0.51198628  0.12433931  0.00411821  1
  O  O320  1  0.50101974  0.11374812  0.50262845  1
  O  O321  1  0.49384549  0.61530120  0.00380645  1
  O  O322  1  0.50372898  0.62465951  0.51036819  1
  O  O323  1  0.50408321  0.36881799  0.50039821  1
  O  O324  1  0.49468383  0.38865833  0.99399183  1
  O  O325  1  0.48907243  0.87788110  0.49903011  1
  O  O326  1  0.49968154  0.87904860  0.98780820  1
  O  O327  1  0.98582143  0.37701992  0.49402667  1
  O  O328  1  0.98911245  0.38970359  1.00055155  1
  O  O329  1  0.99884909  0.86985325  0.48192941  1
  O  O330  1  0.99494177  0.88088314  0.99369457  1
  O  O331  1  0.48390841  0.49610220  0.36813881  1
  O  O332  1  0.49709921  0.50134436  0.88181357  1
  O  O333  1  0.49036969  0.99725203  0.38629792  1
  O  O334  1  0.49331000  0.99574678  0.87185951  1
  O  O335  1  0.98922274  0.49244245  0.38214702  1
  O  O336  1  0.98541042  0.50551543  0.88066218  1
  O  O337  1  1.01128930  0.98442962  0.37605970  1
  O  O338  1  0.99284621  0.99776287  0.87883102  1
  O  O339  1  0.01328490  -0.00866807  0.11852109  1
  O  O340  1  0.01014807  0.01498884  0.62786080  1
  O  O341  1  0.01055461  0.49516206  0.11940586  1
  O  O342  1  0.00461781  0.50716957  0.61913528  1
  O  O343  1  0.50773716  0.00825385  0.12118243  1
  O  O344  1  0.48933669  -0.00347634  0.60726528  1
  O  O345  1  0.51022588  0.50247959  0.11796344  1
  O  O346  1  0.51389150  0.50482422  0.62133510  1
  O  O347  1  0.25411635  0.38614585  0.24017473  1
  O  O348  1  0.23456671  0.38205204  0.75536817  1
  O  O349  1  0.25002022  0.87572404  0.23678040  1
  O  O350  1  0.24484802  0.88251671  0.74533662  1
  O  O351  1  0.75931500  0.38254379  0.23905701  1
  O  O352  1  0.74887051  0.38986382  0.75526704  1
  O  O353  1  0.74530081  0.86398603  0.24116149  1
  O  O354  1  0.74330045  0.87751999  0.74771686  1
  O  O355  1  0.26864042  0.12117969  0.25332301  1
  O  O356  1  0.24226552  0.11912645  0.75934174  1
  O  O357  1  0.25670043  0.61533223  0.25428117  1
  O  O358  1  0.25147692  0.62791887  0.76272621  1
  O  O359  1  0.76067463  0.12525989  0.25150383  1
  O  O360  1  0.74610821  0.11336088  0.76678892  1
  O  O361  1  0.75705742  0.60702420  0.25188116  1
  O  O362  1  0.75543220  0.61529140  0.75950563  1
  O  O363  1  0.37754139  0.11815251  0.36760899  1
  O  O364  1  0.35827883  0.11698692  0.88547516  1
  O  O365  1  0.36978291  0.61624266  0.36546093  1
  O  O366  1  0.36858839  0.62436762  0.86807899  1
  O  O367  1  0.87898717  0.12530609  0.35799821  1
  O  O368  1  0.86568522  0.11493673  0.88480056  1
  O  O369  1  0.86581525  0.60960025  0.36572633  1
  O  O370  1  0.86660166  0.61875993  0.86602153  1
  O  O371  1  0.13779802  0.38476904  0.11811887  1
  O  O372  1  0.11984610  0.38798895  0.63124664  1
  O  O373  1  0.13380365  0.88266531  0.12478622  1
  O  O374  1  0.12854303  0.88394284  0.62880860  1
  O  O375  1  0.63844782  0.38278746  0.11664602  1
  O  O376  1  0.62540260  0.38674007  0.62623610  1
  O  O377  1  0.63355061  0.88187064  0.13108010  1
  O  O378  1  0.61963522  0.86551223  0.64383652  1
  O  O379  1  0.11733961  0.23703901  0.23910931  1
  O  O380  1  0.12262722  0.26644003  0.74850359  1
  O  O381  1  0.11908323  0.74573432  0.25587385  1
  O  O382  1  0.11601620  0.75750780  0.75138364  1
  O  O383  1  0.61757878  0.25192607  0.25761388  1
  O  O384  1  0.61614691  0.25436619  0.76955540  1
  O  O385  1  0.61492183  0.75960600  0.23922358  1
  O  O386  1  0.62950820  0.76180864  0.76564144  1
  O  O387  1  0.38126828  0.24352079  0.24293134  1
  O  O388  1  0.38878985  0.27155757  0.76078636  1
  O  O389  1  0.38006187  0.74218819  0.24542829  1
  O  O390  1  0.36915532  0.73417940  0.74276956  1
  O  O391  1  0.87746337  0.23769761  0.23615959  1
  O  O392  1  0.88796096  0.25688279  0.74944451  1
  O  O393  1  0.88326814  0.73833891  0.24803596  1
  O  O394  1  0.88082937  0.73841288  0.75684828  1
  O  O395  1  0.37331376  0.50269801  0.48787848  1
  O  O396  1  0.38231874  0.49971460  0.99284664  1
  O  O397  1  0.37634092  0.99287651  0.49358355  1
  O  O398  1  0.37637330  0.99655507  0.98568054  1
  O  O399  1  0.87215311  0.49025434  0.49219553  1
  O  O400  1  0.88137635  0.49587301  0.99407684  1
  O  O401  1  0.88289228  0.99287037  0.49136552  1
  O  O402  1  0.88063696  0.99377022  0.99507360  1
  O  O403  1  0.12261325  0.00948000  0.00813841  1
  O  O404  1  0.12154270  0.00609198  0.51152584  1
  O  O405  1  0.11672966  0.50459349  0.00443059  1
  O  O406  1  0.11605317  0.50459967  0.50999765  1
  O  O407  1  0.62422862  0.00649041  0.01188301  1
  O  O408  1  0.60869632  -0.00605594  0.49978681  1
  O  O409  1  0.61730329  0.49937367  0.00776028  1
  O  O410  1  0.63462745  0.50687579  0.51286515  1
  O  O411  1  0.36543696  0.37504315  0.11634182  1
  O  O412  1  0.37187231  0.36917049  0.63217677  1
  O  O413  1  0.36863557  0.87207874  0.12311545  1
  O  O414  1  0.37190074  0.86579756  0.62211976  1
  O  O415  1  0.86702742  0.36604314  0.11797809  1
  O  O416  1  0.87600231  0.38119696  0.61142389  1
  O  O417  1  0.87060061  0.86740717  0.12546571  1
  O  O418  1  0.88705998  0.86704676  0.62328089  1
  O  O419  1  0.12642416  0.13058480  0.38381981  1
  O  O420  1  0.13435893  0.12229837  0.88354245  1
  O  O421  1  0.12670324  0.62990351  0.38097055  1
  O  O422  1  0.13051315  0.62339113  0.88407569  1
  O  O423  1  0.62072251  0.14437258  0.37053772  1
  O  O424  1  0.63149505  0.13129106  0.88328017  1
  O  O425  1  0.62960074  0.60798752  0.38553592  1
  O  O426  1  0.63298677  0.63239286  0.86822247  1
