# generated using pymatgen
data_V85Zn86O256
_symmetry_space_group_name_H-M   'P 1'
_cell_length_a   16.92359585
_cell_length_b   16.92082577
_cell_length_c   16.93011570
_cell_angle_alpha   90.01814895
_cell_angle_beta   89.96542567
_cell_angle_gamma   90.00942824
_symmetry_Int_Tables_number   1
_chemical_formula_structural   V85Zn86O256
_chemical_formula_sum   'V85 Zn86 O256'
_cell_volume   4848.12734121
_cell_formula_units_Z   1
loop_
 _symmetry_equiv_pos_site_id
 _symmetry_equiv_pos_as_xyz
  1  'x, y, z'
loop_
 _atom_site_type_symbol
 _atom_site_label
 _atom_site_symmetry_multiplicity
 _atom_site_fract_x
 _atom_site_fract_y
 _atom_site_fract_z
 _atom_site_occupancy
  V  V0  1  0.49449313  -0.00730855  0.00003160  1
  V  V1  1  0.87266927  0.00247871  0.37428380  1
  V  V2  1  0.36374679  0.87062106  0.49976879  1
  V  V3  1  0.74322119  0.25847207  0.49593173  1
  V  V4  1  0.37547144  -0.01280731  0.87675696  1
  V  V5  1  -0.00116791  0.00160877  0.50160503  1
  V  V6  1  0.24639349  0.37800186  0.13737489  1
  V  V7  1  0.37675885  0.12726846  0.25158963  1
  V  V8  1  0.88115521  0.49614382  0.87155567  1
  V  V9  1  0.37611152  0.75365206  0.11942622  1
  V  V10  1  0.62358437  0.00152090  0.62466761  1
  V  V11  1  0.49799092  0.49791682  0.49747669  1
  V  V12  1  0.74591772  0.50321528  0.25026981  1
  V  V13  1  0.63321726  0.62829805  0.50649092  1
  V  V14  1  -0.00167835  0.12676769  0.63034040  1
  V  V15  1  0.24821680  0.12901386  0.37683071  1
  V  V16  1  0.50022953  0.62329305  0.62862052  1
  V  V17  1  0.62172377  0.12872587  -0.00945625  1
  V  V18  1  0.49017062  0.24401185  0.75604208  1
  V  V19  1  0.12218720  0.01462134  0.11631607  1
  V  V20  1  0.00649479  0.62617461  0.11740405  1
  V  V21  1  0.86860738  0.62578141  0.75419980  1
  V  V22  1  0.87326269  0.87153024  0.50058407  1
  V  V23  1  0.36629890  0.50137756  0.37180930  1
  V  V24  1  0.36818061  0.25128088  0.61480443  1
  V  V25  1  0.36371424  0.74262067  0.62255720  1
  V  V26  1  -0.00151573  0.37713071  0.36912480  1
  V  V27  1  0.74871758  0.37560509  0.12199559  1
  V  V28  1  0.87232201  0.75433860  0.10855256  1
  V  V29  1  0.24978023  0.74626089  0.00004233  1
  V  V30  1  0.50579800  0.49710672  0.00465333  1
  V  V31  1  0.62173724  0.87237123  0.75430289  1
  V  V32  1  0.63482093  0.75131209  0.38213636  1
  V  V33  1  0.00060872  0.50268877  0.50129449  1
  V  V34  1  0.25443648  0.00485784  0.74878757  1
  V  V35  1  0.37158736  0.37528473  0.00071473  1
  V  V36  1  0.00329589  0.25140008  0.24518394  1
  V  V37  1  0.49882524  0.37348207  0.37796453  1
  V  V38  1  0.13944734  0.38322548  0.75071716  1
  V  V39  1  0.12621788  0.74319689  0.87965215  1
  V  V40  1  0.12022015  0.24820988  0.87684307  1
  V  V41  1  0.00454782  0.62385634  0.62335927  1
  V  V42  1  0.87330724  -0.00314701  0.87405415  1
  V  V43  1  0.62672909  0.37489755  0.25229379  1
  V  V44  1  0.12423560  0.25620906  0.37309690  1
  V  V45  1  0.62494901  0.12724684  0.49329489  1
  V  V46  1  0.74835387  0.87374953  0.62134125  1
  V  V47  1  0.75059330  0.87531480  0.11205122  1
  V  V48  1  0.87739749  0.12538640  0.24682577  1
  V  V49  1  0.87946967  0.37378923  -0.00528954  1
  V  V50  1  0.49955485  0.74872814  0.25671579  1
  V  V51  1  0.13535976  0.75000928  0.37580475  1
  V  V52  1  -0.00150069  0.26149413  0.75343881  1
  V  V53  1  0.24461977  0.24696575  0.00194337  1
  V  V54  1  0.01185001  0.49787021  -0.00455507  1
  V  V55  1  0.86810755  0.25701776  0.62448270  1
  V  V56  1  0.50202535  0.12682469  0.12410624  1
  V  V57  1  0.37602579  0.50158755  0.86922260  1
  V  V58  1  0.74547029  0.25183890  -0.00767571  1
  V  V59  1  0.12608371  0.87705695  0.75164975  1
  V  V60  1  -0.00035609  0.75244666  0.24777744  1
  V  V61  1  0.25402614  0.12464600  0.87585898  1
  V  V62  1  0.62794482  0.48996096  0.62370624  1
  V  V63  1  -0.00068899  0.75130953  0.74990272  1
  V  V64  1  0.36188901  0.62345167  0.25513372  1
  V  V65  1  0.12994393  0.49993258  0.14121014  1
  V  V66  1  0.87396427  0.50165076  0.37461091  1
  V  V67  1  0.75132087  0.49266524  0.74429903  1
  V  V68  1  -0.00018484  0.87507143  0.37443502  1
  V  V69  1  0.50748250  0.24896728  0.25469372  1
  V  V70  1  0.25699165  0.62125999  0.87230445  1
  V  V71  1  0.49917948  0.87305348  0.37781541  1
  V  V72  1  0.37256028  0.00086189  0.37607864  1
  V  V73  1  0.14022668  0.63033094  0.49673992  1
  V  V74  1  -0.00595239  0.00627956  0.00257909  1
  V  V75  1  0.87485347  0.62615012  0.24801528  1
  V  V76  1  0.63046660  0.36216290  0.75969927  1
  V  V77  1  0.12574743  0.12837703  0.50167638  1
  V  V78  1  0.50292162  0.61962570  0.12892384  1
  V  V79  1  0.49593006  0.75194611  0.74810670  1
  V  V80  1  0.86558116  0.74898558  0.62276721  1
  V  V81  1  0.49639187  0.00093629  0.50094808  1
  V  V82  1  0.25028777  0.87877167  0.11729098  1
  V  V83  1  0.87830203  0.24603029  0.12237622  1
  V  V84  1  0.24728447  0.00222763  0.24745769  1
  Zn  Zn85  1  0.74940524  0.00313763  0.74950045  1
  Zn  Zn86  1  0.87057914  0.12734292  0.75154163  1
  Zn  Zn87  1  0.63124441  0.87748104  0.25318447  1
  Zn  Zn88  1  0.37443390  0.25335530  0.12686241  1
  Zn  Zn89  1  0.86891939  0.37971555  0.50356076  1
  Zn  Zn90  1  0.74991303  -0.00103779  0.24594422  1
  Zn  Zn91  1  0.53477919  0.83229847  0.90927629  1
  Zn  Zn92  1  0.12364129  0.87876437  0.24742464  1
  Zn  Zn93  1  0.68015017  0.70299014  0.95196857  1
  Zn  Zn94  1  0.49487480  0.12476347  0.62836532  1
  Zn  Zn95  1  0.66090659  0.54514468  0.08699220  1
  Zn  Zn96  1  0.62507063  -0.00094064  0.12625734  1
  Zn  Zn97  1  0.24598319  0.87437900  0.62228085  1
  Zn  Zn98  1  0.16857125  0.45923709  0.59261301  1
  Zn  Zn99  1  0.31799544  0.56557697  0.69673436  1
  Zn  Zn100  1  0.50663454  0.36850222  0.88197897  1
  Zn  Zn101  1  -0.00396712  0.87110048  0.88437276  1
  Zn  Zn102  1  0.12511856  0.00039870  0.62723411  1
  Zn  Zn103  1  0.75402334  0.63013527  0.38090602  1
  Zn  Zn104  1  0.24526319  0.27250677  0.50437256  1
  Zn  Zn105  1  0.74635212  0.13005524  0.37066125  1
  Zn  Zn106  1  0.74775335  0.12806175  0.86979749  1
  Zn  Zn107  1  0.18767308  0.19101320  0.18852917  1
  Zn  Zn108  1  0.18756256  0.18983052  0.69050747  1
  Zn  Zn109  1  0.18456705  0.68819065  0.18464254  1
  Zn  Zn110  1  0.18483689  0.68522494  0.68850054  1
  Zn  Zn111  1  0.68867036  0.18757200  0.18449672  1
  Zn  Zn112  1  0.68711824  0.18587925  0.68317981  1
  Zn  Zn113  1  0.69004468  0.69685857  0.19287286  1
  Zn  Zn114  1  0.68524756  0.68402201  0.78734117  1
  Zn  Zn115  1  0.31699339  0.31237608  0.31586041  1
  Zn  Zn116  1  0.31396087  0.31239284  0.81405962  1
  Zn  Zn117  1  0.31275302  0.81597328  0.30564627  1
  Zn  Zn118  1  0.31343510  0.81198988  0.80959856  1
  Zn  Zn119  1  0.81359782  0.31285624  0.31472802  1
  Zn  Zn120  1  0.81320303  0.31538032  0.81208146  1
  Zn  Zn121  1  0.81411607  0.81598879  0.30648629  1
  Zn  Zn122  1  0.80748245  0.81664778  0.81768243  1
  Zn  Zn123  1  0.18183124  0.44319651  0.42253182  1
  Zn  Zn124  1  0.18971085  0.43220269  0.93321202  1
  Zn  Zn125  1  0.18415056  0.93960488  0.43565678  1
  Zn  Zn126  1  0.18538388  0.93484015  0.93799833  1
  Zn  Zn127  1  0.68407027  0.43812421  0.43436124  1
  Zn  Zn128  1  0.68650761  0.53597030  0.92353121  1
  Zn  Zn129  1  0.68882339  0.93834183  0.43916219  1
  Zn  Zn130  1  0.68714252  0.94306613  0.94075492  1
  Zn  Zn131  1  0.31459344  0.06652108  0.06076241  1
  Zn  Zn132  1  0.31156531  0.06717382  0.56644973  1
  Zn  Zn133  1  0.31426774  0.56374563  0.06120611  1
  Zn  Zn134  1  0.32417916  0.43572506  0.55665678  1
  Zn  Zn135  1  0.81225503  0.06433679  0.05862928  1
  Zn  Zn136  1  0.81018140  0.06654096  0.56227534  1
  Zn  Zn137  1  0.82276799  0.56790532  0.05564107  1
  Zn  Zn138  1  0.81308879  0.56255584  0.56666420  1
  Zn  Zn139  1  0.43539639  0.43789402  0.18851573  1
  Zn  Zn140  1  0.44541012  0.42772645  0.68975387  1
  Zn  Zn141  1  0.43731466  0.93720879  0.18769423  1
  Zn  Zn142  1  0.43339867  0.93569414  0.68660516  1
  Zn  Zn143  1  0.93732954  0.43728688  0.18492514  1
  Zn  Zn144  1  0.94413946  0.43664918  0.68502336  1
  Zn  Zn145  1  0.93695665  0.93724426  0.18219728  1
  Zn  Zn146  1  0.93749554  0.93773431  0.69098643  1
  Zn  Zn147  1  0.06028253  0.06579653  0.30894698  1
  Zn  Zn148  1  0.06289183  0.06610588  0.81720825  1
  Zn  Zn149  1  0.06242486  0.56889695  0.31339353  1
  Zn  Zn150  1  0.06452641  0.56379354  0.81316573  1
  Zn  Zn151  1  0.56396282  0.05871042  0.31195248  1
  Zn  Zn152  1  0.55842085  0.05977473  0.81299120  1
  Zn  Zn153  1  0.56446098  0.56504059  0.31454463  1
  Zn  Zn154  1  0.55390680  0.55547483  0.80789875  1
  Zn  Zn155  1  0.43687814  0.19034958  0.44065641  1
  Zn  Zn156  1  0.43118784  0.18515711  0.93702115  1
  Zn  Zn157  1  0.43587489  0.68350247  0.44161002  1
  Zn  Zn158  1  0.45242586  0.68398757  0.94246585  1
  Zn  Zn159  1  0.93436489  0.18944792  0.43896156  1
  Zn  Zn160  1  0.93940380  0.18073630  0.93779308  1
  Zn  Zn161  1  0.93932665  0.68924251  0.43655727  1
  Zn  Zn162  1  0.93891902  0.68251993  0.93399233  1
  Zn  Zn163  1  0.06450308  0.31602788  0.06309036  1
  Zn  Zn164  1  0.05851955  0.31292761  0.56332494  1
  Zn  Zn165  1  0.06526923  0.81970220  0.06001243  1
  Zn  Zn166  1  0.06156303  0.81097622  0.56335990  1
  Zn  Zn167  1  0.56445774  0.31361879  0.06567644  1
  Zn  Zn168  1  0.55805440  0.31007894  0.56595815  1
  Zn  Zn169  1  0.56696827  0.80689287  0.07320554  1
  Zn  Zn170  1  0.55877445  0.81205940  0.56402123  1
  O  O171  1  0.12963134  0.11292866  0.12572386  1
  O  O172  1  0.11658055  0.12735607  0.61740193  1
  O  O173  1  0.11874471  0.61336054  0.12490839  1
  O  O174  1  0.11280936  0.63439179  0.61289003  1
  O  O175  1  0.61326687  0.12545764  0.11900479  1
  O  O176  1  0.62189972  0.11547694  0.61319766  1
  O  O177  1  0.60898500  0.63235621  0.13890083  1
  O  O178  1  0.61552392  0.60944438  0.61789502  1
  O  O179  1  0.39007208  0.38638246  0.36598300  1
  O  O180  1  0.37348444  0.38216676  0.88726121  1
  O  O181  1  0.37873317  0.87845705  0.38081537  1
  O  O182  1  0.37023377  0.88675942  0.87702919  1
  O  O183  1  0.88217074  0.38276625  0.37929571  1
  O  O184  1  0.87670766  0.38120829  0.88386845  1
  O  O185  1  0.88026635  0.88101076  0.37974447  1
  O  O186  1  0.87820804  0.89039970  0.87035865  1
  O  O187  1  0.25234451  0.00808998  0.36829078  1
  O  O188  1  0.25329601  0.00548905  0.87207711  1
  O  O189  1  0.26658907  0.49682187  0.37122664  1
  O  O190  1  0.26049162  0.50999562  0.88414237  1
  O  O191  1  0.76372654  0.00026990  0.37381885  1
  O  O192  1  0.76190938  0.00212262  0.87617906  1
  O  O193  1  0.75639427  0.50244767  0.36734460  1
  O  O194  1  0.76757339  0.49437474  0.85545488  1
  O  O195  1  0.23634315  0.49632219  0.11947980  1
  O  O196  1  0.26293212  0.50649980  0.62258924  1
  O  O197  1  0.24252640  0.99694323  0.12451782  1
  O  O198  1  0.24673024  0.99872953  0.63446708  1
  O  O199  1  0.75561604  0.49226089  0.13255823  1
  O  O200  1  0.74398615  0.49766567  0.63370227  1
  O  O201  1  0.75270335  0.98663261  0.12168711  1
  O  O202  1  0.74099059  0.99368833  0.62406257  1
  O  O203  1  -0.00731554  0.36820978  0.26118275  1
  O  O204  1  0.00216110  0.36363541  0.75299634  1
  O  O205  1  -0.00003436  0.86800093  0.25332208  1
  O  O206  1  0.00542494  0.86340177  0.75245767  1
  O  O207  1  0.50868664  0.36889678  0.25174333  1
  O  O208  1  0.51224804  0.36174276  0.75553703  1
  O  O209  1  0.49790644  0.86307418  0.25792882  1
  O  O210  1  0.50858314  0.86568404  0.73965125  1
  O  O211  1  0.49886409  0.13188927  0.24579504  1
  O  O212  1  0.50807530  0.14119064  0.74801211  1
  O  O213  1  0.49344330  0.63525717  0.24990790  1
  O  O214  1  0.50239505  0.63068920  0.73490306  1
  O  O215  1  0.98659253  0.13670630  0.25339450  1
  O  O216  1  1.00124429  0.13274014  0.73940036  1
  O  O217  1  0.99558556  0.63156933  0.23740536  1
  O  O218  1  0.99657452  0.63305150  0.74231455  1
  O  O219  1  0.36634209  0.25868855  0.00306457  1
  O  O220  1  0.36723335  0.25306249  0.50849154  1
  O  O221  1  0.37307539  0.74532425  0.01510249  1
  O  O222  1  0.37917054  0.75685685  0.51156535  1
  O  O223  1  0.87403209  0.25475268  0.00623437  1
  O  O224  1  0.86381530  0.25301490  0.50632098  1
  O  O225  1  0.87973789  0.74635197  0.01024168  1
  O  O226  1  0.88247200  0.75910145  0.50966278  1
  O  O227  1  0.12340741  0.24459123  0.49232615  1
  O  O228  1  0.13219303  0.25803197  0.99097306  1
  O  O229  1  0.11751062  0.74035186  0.48999568  1
  O  O230  1  0.13530254  0.75390443  0.99171441  1
  O  O231  1  0.63523083  0.24303395  0.50633895  1
  O  O232  1  0.63432602  0.24412207  1.00518670  1
  O  O233  1  0.61867844  0.74049411  0.49473427  1
  O  O234  1  0.58011652  0.74951280  0.97902764  1
  O  O235  1  0.49806671  0.24366084  0.13446078  1
  O  O236  1  0.48951534  0.24761112  0.63395385  1
  O  O237  1  0.49101988  0.74470166  0.13806841  1
  O  O238  1  0.49161480  0.74131480  0.62869746  1
  O  O239  1  0.99310072  0.25827666  0.13489795  1
  O  O240  1  0.99235933  0.24348634  0.63178478  1
  O  O241  1  0.99585511  0.74611286  0.12686446  1
  O  O242  1  0.99164010  0.74490330  0.63323558  1
  O  O243  1  0.00334482  0.25851345  0.37010205  1
  O  O244  1  0.00772966  0.24148029  0.86576565  1
  O  O245  1  0.00403701  0.75631682  0.36453311  1
  O  O246  1  0.00786507  0.74905064  0.86871792  1
  O  O247  1  0.49633446  0.25973017  0.36705187  1
  O  O248  1  0.49147375  0.25059093  0.86175800  1
  O  O249  1  0.50530128  0.75328797  0.37256885  1
  O  O250  1  0.47548397  0.75052717  0.85229840  1
  O  O251  1  0.23527504  0.12456473  0.49506880  1
  O  O252  1  0.25188469  0.13963640  0.99581623  1
  O  O253  1  0.23485804  0.62824441  0.49998165  1
  O  O254  1  0.25514725  0.63888384  0.99274674  1
  O  O255  1  0.74177214  0.13431125  0.49636240  1
  O  O256  1  0.73927479  0.13477437  1.00175408  1
  O  O257  1  0.73754917  0.62137704  0.50133119  1
  O  O258  1  0.72791577  0.60844369  1.00873869  1
  O  O259  1  0.25534877  0.36664304  0.00728996  1
  O  O260  1  0.23162698  0.38618889  0.50775107  1
  O  O261  1  0.24908384  0.86557685  0.00976489  1
  O  O262  1  0.25988720  0.87982077  0.49948666  1
  O  O263  1  0.76365979  0.36850257  0.01024677  1
  O  O264  1  0.74661789  0.36300031  0.49729985  1
  O  O265  1  0.74298907  0.87058747  0.01177672  1
  O  O266  1  0.75627941  0.87769787  0.51293305  1
  O  O267  1  0.12313540  0.50300174  0.23999957  1
  O  O268  1  0.12287900  0.48319624  0.75812754  1
  O  O269  1  0.12834758  1.00252987  0.23832587  1
  O  O270  1  0.12914417  0.99169095  0.75219098  1
  O  O271  1  0.63792688  0.49557917  0.25157954  1
  O  O272  1  0.63309192  0.48809372  0.74279343  1
  O  O273  1  0.62944616  0.99642237  0.24480684  1
  O  O274  1  0.62086984  0.99477874  0.73644790  1
  O  O275  1  0.36919445  0.00724559  0.25645408  1
  O  O276  1  0.36498664  -0.00403973  0.75834319  1
  O  O277  1  0.38188668  0.51635912  0.25601717  1
  O  O278  1  0.38508898  0.49612681  0.76386073  1
  O  O279  1  0.87758375  0.00890850  0.25500947  1
  O  O280  1  0.87523767  0.00425665  0.76106591  1
  O  O281  1  0.86636482  0.50512689  0.25269867  1
  O  O282  1  0.87402304  0.50305319  0.75153147  1
  O  O283  1  0.11494805  0.36382305  0.37217608  1
  O  O284  1  0.12959542  0.36031560  0.86381425  1
  O  O285  1  0.11599323  0.87002750  0.37177190  1
  O  O286  1  0.12498377  0.86336403  0.86472569  1
  O  O287  1  0.61622154  0.37915615  0.36002931  1
  O  O288  1  0.62664034  0.37346776  0.85813891  1
  O  O289  1  0.61753252  0.86832773  0.37903102  1
  O  O290  1  0.62323046  0.88809045  0.85908871  1
  O  O291  1  0.38590117  0.12803888  0.13244569  1
  O  O292  1  0.37883500  0.14200594  0.62074589  1
  O  O293  1  0.38247396  0.63041788  0.13734505  1
  O  O294  1  0.38243733  0.63733834  0.62384114  1
  O  O295  1  0.87195364  0.13800087  0.12993637  1
  O  O296  1  0.88351653  0.13490645  0.62425553  1
  O  O297  1  0.88280800  0.63665500  0.12819825  1
  O  O298  1  0.88526299  0.63219161  0.63035722  1
  O  O299  1  0.24854228  0.25870826  0.11849040  1
  O  O300  1  0.26318937  0.24717688  0.62470280  1
  O  O301  1  0.25437050  0.75652083  0.11913814  1
  O  O302  1  0.26058765  0.75014951  0.62638196  1
  O  O303  1  0.75889757  0.25704717  0.11810753  1
  O  O304  1  0.75819629  0.24555305  0.61110910  1
  O  O305  1  0.76399546  0.75716281  0.12622213  1
  O  O306  1  0.76427616  0.75780769  0.62879410  1
  O  O307  1  0.24082606  0.24832331  0.37831830  1
  O  O308  1  0.24620529  0.24354879  0.88178572  1
  O  O309  1  0.23421866  0.75824416  0.36592852  1
  O  O310  1  0.24751202  0.74627599  0.88232035  1
  O  O311  1  0.75418274  0.24838778  0.39064436  1
  O  O312  1  0.75728864  0.24931568  0.88935166  1
  O  O313  1  0.73859098  0.75188807  0.37149709  1
  O  O314  1  0.74523126  0.74127268  0.86712959  1
  O  O315  1  0.00539080  0.10738717  -0.00172222  1
  O  O316  1  0.00717569  0.12380984  0.50789982  1
  O  O317  1  -0.00470427  0.61450513  0.01113168  1
  O  O318  1  -0.00034244  0.61643209  0.50591727  1
  O  O319  1  0.50364176  0.12412836  0.00798098  1
  O  O320  1  0.50657568  0.11837165  0.49986283  1
  O  O321  1  0.49497613  0.60912827  0.01629249  1
  O  O322  1  0.50811850  0.61699985  0.50827100  1
  O  O323  1  0.51092849  0.38271140  0.48780028  1
  O  O324  1  0.49023727  0.37674236  1.00264986  1
  O  O325  1  0.48870789  0.88139821  0.49565519  1
  O  O326  1  0.50268820  0.89016546  1.00759720  1
  O  O327  1  1.00163266  0.38815370  0.49019831  1
  O  O328  1  0.98699579  0.38385928  1.00855111  1
  O  O329  1  0.99468636  0.88239874  0.49562276  1
  O  O330  1  1.00822902  0.89458240  0.99687251  1
  O  O331  1  0.49800048  0.49476588  0.38028187  1
  O  O332  1  0.49197251  0.49347072  0.88594974  1
  O  O333  1  0.49167294  0.99350696  0.38015793  1
  O  O334  1  0.48863976  1.00412682  0.88533618  1
  O  O335  1  0.99558073  0.49560922  0.37846632  1
  O  O336  1  0.99170851  0.50447916  0.88200448  1
  O  O337  1  0.99049015  0.99655234  0.37863710  1
  O  O338  1  0.99199650  0.99992570  0.88317928  1
  O  O339  1  0.01108645  -0.00139815  0.11608408  1
  O  O340  1  0.00047680  0.00953565  0.62109529  1
  O  O341  1  0.01015942  0.50633453  0.12041633  1
  O  O342  1  -0.00164158  0.51039794  0.61486291  1
  O  O343  1  0.49799150  0.00949753  0.11915676  1
  O  O344  1  0.50447112  0.00164770  0.61797842  1
  O  O345  1  0.49949279  0.50719721  0.12162917  1
  O  O346  1  0.50335842  0.50394876  0.61757559  1
  O  O347  1  0.25535109  0.36919572  0.23646493  1
  O  O348  1  0.23883772  0.37258465  0.75002869  1
  O  O349  1  0.24763344  0.88623312  0.23895100  1
  O  O350  1  0.24133539  0.88454385  0.74903547  1
  O  O351  1  0.74542610  0.38074366  0.24626361  1
  O  O352  1  0.73939121  0.37601681  0.74600982  1
  O  O353  1  0.75116270  0.87792648  0.23650581  1
  O  O354  1  0.74065162  0.87962510  0.73721320  1
  O  O355  1  0.25583390  0.12293946  0.25638968  1
  O  O356  1  0.24367256  0.11237763  0.75811169  1
  O  O357  1  0.26350411  0.62956990  0.24600792  1
  O  O358  1  0.25307464  0.63214606  0.76552262  1
  O  O359  1  0.76197615  0.12487794  0.25100630  1
  O  O360  1  0.75041976  0.12175996  0.75166649  1
  O  O361  1  0.75574205  0.61872602  0.25092140  1
  O  O362  1  0.76466136  0.61271018  0.73869575  1
  O  O363  1  0.36840348  0.12158688  0.37207947  1
  O  O364  1  0.35943302  0.11683358  0.87672248  1
  O  O365  1  0.37864228  0.62008600  0.36281647  1
  O  O366  1  0.37064198  0.61278185  0.88360806  1
  O  O367  1  0.87427467  0.11788992  0.36785829  1
  O  O368  1  0.87192456  0.11249220  0.87350950  1
  O  O369  1  0.87434795  0.62096523  0.36738435  1
  O  O370  1  0.88030923  0.61473636  0.86250544  1
  O  O371  1  0.13080426  0.39064119  0.12538590  1
  O  O372  1  0.11464456  0.37310836  0.64374087  1
  O  O373  1  0.13581463  0.88479664  0.12790757  1
  O  O374  1  0.12514617  0.87464533  0.63732897  1
  O  O375  1  0.63972145  0.37218474  0.13564987  1
  O  O376  1  0.61708709  0.38629951  0.63215925  1
  O  O377  1  0.63946004  0.87208183  0.13013257  1
  O  O378  1  0.63131678  0.88136277  0.62663259  1
  O  O379  1  0.11162253  0.24410230  0.25774311  1
  O  O380  1  0.11718417  0.25651965  0.75632943  1
  O  O381  1  0.11289058  0.74991146  0.25363850  1
  O  O382  1  0.11749705  0.75509983  0.75553542  1
  O  O383  1  0.61616105  0.25708755  0.24750404  1
  O  O384  1  0.61737294  0.25905052  0.74158846  1
  O  O385  1  0.61568971  0.75325220  0.26347662  1
  O  O386  1  0.61089901  0.76110302  0.74334382  1
  O  O387  1  0.38728540  0.24406038  0.24960812  1
  O  O388  1  0.38631418  0.25465689  0.74275525  1
  O  O389  1  0.38004641  0.74070189  0.24601486  1
  O  O390  1  0.37915255  0.75872802  0.72940728  1
  O  O391  1  0.88135510  0.24590172  0.24342801  1
  O  O392  1  0.88060358  0.24911742  0.74293121  1
  O  O393  1  0.88642223  0.74578448  0.24264460  1
  O  O394  1  0.88203223  0.74310359  0.74573438  1
  O  O395  1  0.39145014  0.50116377  0.48732299  1
  O  O396  1  0.38276763  0.49108880  0.99732530  1
  O  O397  1  0.37653492  0.99428837  0.49513175  1
  O  O398  1  0.38363773  1.00562309  0.99242522  1
  O  O399  1  0.88166390  0.50047513  0.49433663  1
  O  O400  1  0.88272238  0.49293948  0.99034752  1
  O  O401  1  0.87961921  0.99605441  0.49299247  1
  O  O402  1  0.88563559  1.00275525  0.99253879  1
  O  O403  1  0.12147573  0.00060356  0.01113363  1
  O  O404  1  0.11635609  0.00953070  0.50113657  1
  O  O405  1  0.11350077  0.49193178  0.00029449  1
  O  O406  1  0.11671892  0.51427205  0.49601192  1
  O  O407  1  0.61458289  0.01069870  0.00507180  1
  O  O408  1  0.61872534  0.00399855  0.50795862  1
  O  O409  1  0.61048728  0.48507960  0.00061626  1
  O  O410  1  0.61839330  0.50536767  0.50454375  1
  O  O411  1  0.36574529  0.37669225  0.11718585  1
  O  O412  1  0.38313119  0.36010648  0.62215280  1
  O  O413  1  0.36440062  0.86485284  0.13312160  1
  O  O414  1  0.37136777  0.86523833  0.61424178  1
  O  O415  1  0.86699998  0.36596271  0.12202784  1
  O  O416  1  0.88239220  0.36170525  0.62091220  1
  O  O417  1  0.86748250  0.86293551  0.12368538  1
  O  O418  1  0.86894547  0.87031614  0.62230124  1
  O  O419  1  0.12499932  0.13637923  0.38129916  1
  O  O420  1  0.13670109  0.13854329  0.87152618  1
  O  O421  1  0.11963498  0.63524066  0.38681096  1
  O  O422  1  0.13404242  0.63705503  0.87169038  1
  O  O423  1  0.62683890  0.11799557  0.38875444  1
  O  O424  1  0.62553372  0.12090304  0.88740103  1
  O  O425  1  0.62726229  0.63404878  0.38582715  1
  O  O426  1  0.62976844  0.61643823  0.86472873  1
