# generated using pymatgen
data_V85Zn86O256
_symmetry_space_group_name_H-M   'P 1'
_cell_length_a   16.96475272
_cell_length_b   16.95833131
_cell_length_c   16.96977319
_cell_angle_alpha   89.89762377
_cell_angle_beta   89.98506845
_cell_angle_gamma   90.03572815
_symmetry_Int_Tables_number   1
_chemical_formula_structural   V85Zn86O256
_chemical_formula_sum   'V85 Zn86 O256'
_cell_volume   4882.09127277
_cell_formula_units_Z   1
loop_
 _symmetry_equiv_pos_site_id
 _symmetry_equiv_pos_as_xyz
  1  'x, y, z'
loop_
 _atom_site_type_symbol
 _atom_site_label
 _atom_site_symmetry_multiplicity
 _atom_site_fract_x
 _atom_site_fract_y
 _atom_site_fract_z
 _atom_site_occupancy
  V  V0  1  0.62173995  0.62615379  0.49647195  1
  V  V1  1  0.05795670  0.55747292  0.06070682  1
  V  V2  1  0.61327504  0.37098091  0.74517454  1
  V  V3  1  0.37762736  0.00313200  0.86233837  1
  V  V4  1  0.63161301  0.63543822  -0.01651505  1
  V  V5  1  0.68212875  0.81926508  0.80962152  1
  V  V6  1  0.24764228  0.74341944  -0.00001145  1
  V  V7  1  0.12821928  0.62259298  0.50385963  1
  V  V8  1  0.25478947  0.12770778  0.86762590  1
  V  V9  1  0.24991462  0.50045512  0.24586800  1
  V  V10  1  0.00328816  0.37153392  0.37635632  1
  V  V11  1  0.49808868  0.50059779  0.49911178  1
  V  V12  1  0.74842647  0.87401490  0.12244955  1
  V  V13  1  0.00536025  0.00063922  0.00357183  1
  V  V14  1  0.63535878  0.12681807  0.49848352  1
  V  V15  1  0.75087994  0.62578004  0.37563657  1
  V  V16  1  0.62822773  0.50915341  0.12286722  1
  V  V17  1  0.49950644  0.37320154  0.37563625  1
  V  V18  1  0.37798795  0.25550666  0.11831819  1
  V  V19  1  0.49610643  0.12815486  0.63451633  1
  V  V20  1  0.37352909  0.74912842  0.13187453  1
  V  V21  1  0.86971745  0.12584847  0.26451201  1
  V  V22  1  0.87020499  0.24771503  0.62384067  1
  V  V23  1  0.48586923  0.00276561  0.49646213  1
  V  V24  1  0.62468017  0.00253165  0.12305441  1
  V  V25  1  0.00827059  0.87775706  0.86514866  1
  V  V26  1  -0.00439305  0.62453487  0.63038302  1
  V  V27  1  0.87656552  0.24526167  0.12324277  1
  V  V28  1  0.49842395  0.00096400  -0.00126226  1
  V  V29  1  0.50003843  0.12721414  0.12578780  1
  V  V30  1  0.85822502  0.51210126  0.87375232  1
  V  V31  1  0.62000354  0.87939160  0.25271450  1
  V  V32  1  0.37584212  0.24777092  0.63922739  1
  V  V33  1  0.25293458  0.75684942  0.49954833  1
  V  V34  1  0.87452377  0.12342573  0.75084736  1
  V  V35  1  0.75085506  0.75263375  0.49999421  1
  V  V36  1  0.62705570  0.12510344  -0.00090465  1
  V  V37  1  0.49958462  0.75518421  0.75966470  1
  V  V38  1  -0.00378241  0.38656500  0.87936917  1
  V  V39  1  0.12686191  0.37477438  0.24510771  1
  V  V40  1  0.62370606  0.37549932  0.25120958  1
  V  V41  1  -0.00161032  0.25192246  0.75098749  1
  V  V42  1  0.75018879  0.25322991  -0.00394223  1
  V  V43  1  0.61986708  0.75518468  0.37159332  1
  V  V44  1  0.25500376  0.11538426  0.37569054  1
  V  V45  1  0.62316740  0.49900358  0.62359956  1
  V  V46  1  0.74945387  0.37363447  0.62473977  1
  V  V47  1  0.75571203  0.49950918  0.25153860  1
  V  V48  1  0.87371033  -0.00331841  0.87481267  1
  V  V49  1  0.23491562  -0.00333456  0.74808783  1
  V  V50  1  0.37479193  0.76328820  0.62430530  1
  V  V51  1  0.87330012  0.87945210  0.49358607  1
  V  V52  1  0.24919043  0.88067245  0.12045378  1
  V  V53  1  0.48190211  0.87981343  0.37819479  1
  V  V54  1  0.24107120  0.37942768  0.62317842  1
  V  V55  1  0.87369903  0.87136212  -0.00070436  1
  V  V56  1  0.00696695  0.49717502  0.50687799  1
  V  V57  1  0.62273049  -0.00618997  0.62504580  1
  V  V58  1  0.25263399  0.24745184  0.50008539  1
  V  V59  1  0.00447125  0.11555743  0.62908915  1
  V  V60  1  0.12662187  0.11659551  0.50459852  1
  V  V61  1  0.75084680  0.37578934  0.12467256  1
  V  V62  1  0.24797045  0.00164183  0.24244109  1
  V  V63  1  0.37407794  0.37267626  0.50005700  1
  V  V64  1  0.23225455  0.87856536  0.62665256  1
  V  V65  1  0.25111693  0.62777132  0.36700172  1
  V  V66  1  0.50123952  0.62954417  0.13050611  1
  V  V67  1  0.11823668  0.75731843  0.36555880  1
  V  V68  1  0.74546205  0.00757310  0.26503271  1
  V  V69  1  0.87240593  0.37072955  0.50045587  1
  V  V70  1  0.61912709  0.24891778  0.86619399  1
  V  V71  1  0.13029411  0.74806769  0.86551388  1
  V  V72  1  0.37762532  0.87381793  -0.00514700  1
  V  V73  1  0.24515361  0.50582135  0.74714114  1
  V  V74  1  -0.00329976  -0.00148714  0.49742892  1
  V  V75  1  0.87770897  0.50014347  0.37573192  1
  V  V76  1  0.37527893  0.50457432  0.36993819  1
  V  V77  1  0.74271087  0.00070161  0.75403485  1
  V  V78  1  0.49263387  0.62725777  0.62536979  1
  V  V79  1  0.12866805  0.12527380  0.00532703  1
  V  V80  1  0.63760350  0.24925402  0.38060017  1
  V  V81  1  0.37800247  0.12368117  0.25391391  1
  V  V82  1  0.25349172  0.37783460  0.11619352  1
  V  V83  1  0.12706658  0.24360557  0.37380520  1
  V  V84  1  0.12350643  0.25273745  0.87567919  1
  Zn  Zn85  1  0.25818790  0.25752932  -0.00804076  1
  Zn  Zn86  1  0.50083026  0.25021060  0.25274055  1
  Zn  Zn87  1  0.24890023  0.61911883  0.88206705  1
  Zn  Zn88  1  0.74805223  0.51009942  0.75027131  1
  Zn  Zn89  1  0.00323632  0.12262173  0.12686830  1
  Zn  Zn90  1  0.08573982  -0.06823454  0.18262692  1
  Zn  Zn91  1  0.89669482  0.75038728  0.13161952  1
  Zn  Zn92  1  0.49119596  0.37449118  0.88182145  1
  Zn  Zn93  1  0.49455015  0.49835179  -0.00183489  1
  Zn  Zn94  1  0.00101384  0.75331242  0.74665532  1
  Zn  Zn95  1  0.49228747  0.74821461  0.25547529  1
  Zn  Zn96  1  0.87364130  0.74845004  0.62772395  1
  Zn  Zn97  1  0.75145592  0.12642523  0.87480323  1
  Zn  Zn98  1  0.12067733  0.38027094  0.74492047  1
  Zn  Zn99  1  -0.00320372  0.87537210  0.36340309  1
  Zn  Zn100  1  0.74932034  0.87301791  0.62762050  1
  Zn  Zn101  1  0.00152867  0.24664267  0.24748070  1
  Zn  Zn102  1  0.89294903  0.63795941  0.24915022  1
  Zn  Zn103  1  0.37215534  0.49331453  0.88629874  1
  Zn  Zn104  1  0.37533373  0.62363850  0.75753540  1
  Zn  Zn105  1  0.87808352  0.38157607  0.00322974  1
  Zn  Zn106  1  0.50827772  0.87537464  0.87073501  1
  Zn  Zn107  1  0.19273081  0.19080966  0.18643172  1
  Zn  Zn108  1  0.18842899  0.18928290  0.68995651  1
  Zn  Zn109  1  0.06517983  0.68885442  0.18750383  1
  Zn  Zn110  1  0.18325289  0.68876880  0.68464964  1
  Zn  Zn111  1  0.68908996  0.19016775  0.18842182  1
  Zn  Zn112  1  0.68690760  0.18457363  0.68403446  1
  Zn  Zn113  1  0.73307375  0.66773510  0.16276048  1
  Zn  Zn114  1  0.68082014  0.68405439  0.68156144  1
  Zn  Zn115  1  0.31370908  0.30959797  0.30946238  1
  Zn  Zn116  1  0.31156335  0.32157752  0.81144098  1
  Zn  Zn117  1  0.30262285  0.81519856  0.30777164  1
  Zn  Zn118  1  0.31387743  0.81502163  0.80883452  1
  Zn  Zn119  1  0.81461428  0.31134232  0.31224952  1
  Zn  Zn120  1  0.81009233  0.31757061  0.81078576  1
  Zn  Zn121  1  0.81015626  0.81725966  0.31221386  1
  Zn  Zn122  1  0.82232158  0.68548583  0.79814373  1
  Zn  Zn123  1  0.18823285  0.43624337  0.43499699  1
  Zn  Zn124  1  0.18223182  0.44179353  0.93506771  1
  Zn  Zn125  1  0.18859289  0.93701932  0.43880114  1
  Zn  Zn126  1  0.18868840  0.93811578  0.93491892  1
  Zn  Zn127  1  0.68929450  0.43514811  0.43985893  1
  Zn  Zn128  1  0.66386872  0.43049339  0.94487965  1
  Zn  Zn129  1  0.68007036  0.93726212  0.44202531  1
  Zn  Zn130  1  0.74368965  0.75896829  0.98345775  1
  Zn  Zn131  1  0.31534212  0.06648308  0.05711567  1
  Zn  Zn132  1  0.31112518  0.06227007  0.57038849  1
  Zn  Zn133  1  0.31562207  0.56442626  0.06485735  1
  Zn  Zn134  1  0.31149128  0.56304770  0.56138543  1
  Zn  Zn135  1  0.81112762  0.06102072  0.06267812  1
  Zn  Zn136  1  0.81241267  0.05916179  0.56514212  1
  Zn  Zn137  1  0.83590962  0.57890353  0.04425546  1
  Zn  Zn138  1  0.81260005  0.56044426  0.56274388  1
  Zn  Zn139  1  0.43817431  0.44153078  0.18467930  1
  Zn  Zn140  1  0.43045349  0.43785559  0.68981170  1
  Zn  Zn141  1  0.43369267  0.93917253  0.18872003  1
  Zn  Zn142  1  0.43785553  0.93750116  0.68651826  1
  Zn  Zn143  1  0.94066418  0.43870317  0.18743589  1
  Zn  Zn144  1  0.93537807  0.44116691  0.69188143  1
  Zn  Zn145  1  0.92305908  0.94151404  0.18936428  1
  Zn  Zn146  1  0.93013005  0.93138346  0.68499027  1
  Zn  Zn147  1  0.05175138  0.04843442  0.30377766  1
  Zn  Zn148  1  0.06274474  0.06561854  0.81800898  1
  Zn  Zn149  1  0.06693715  0.55956304  0.31745009  1
  Zn  Zn150  1  0.06911864  0.56174949  0.81492369  1
  Zn  Zn151  1  0.56183224  0.06438021  0.31748117  1
  Zn  Zn152  1  0.56354829  0.06237745  0.81326137  1
  Zn  Zn153  1  0.56360858  0.56378543  0.30925534  1
  Zn  Zn154  1  0.55905802  0.55855739  0.80931468  1
  Zn  Zn155  1  0.44117335  0.18712271  0.44019032  1
  Zn  Zn156  1  0.43784719  0.18837959  0.93484989  1
  Zn  Zn157  1  0.43280332  0.68958423  0.43779219  1
  Zn  Zn158  1  0.43614631  0.67731139  0.94153103  1
  Zn  Zn159  1  0.94050717  0.18717016  0.44053890  1
  Zn  Zn160  1  0.93860897  0.18696538  0.93821083  1
  Zn  Zn161  1  0.93823916  0.68727052  0.43733095  1
  Zn  Zn162  1  0.94793952  0.68862461  0.94017149  1
  Zn  Zn163  1  0.06314536  0.31594651  0.06188716  1
  Zn  Zn164  1  0.06097801  0.30381683  0.56157610  1
  Zn  Zn165  1  0.06389740  0.80909999  0.04863941  1
  Zn  Zn166  1  0.06218571  0.80923164  0.55516352  1
  Zn  Zn167  1  0.56333885  0.31344276  0.06220332  1
  Zn  Zn168  1  0.55986530  0.30826748  0.56205301  1
  Zn  Zn169  1  0.56252225  0.81253543  0.06156234  1
  Zn  Zn170  1  0.55788822  0.81499693  0.55895286  1
  O  O171  1  0.12710587  0.13544608  0.10886892  1
  O  O172  1  0.11560626  0.13410322  0.61679802  1
  O  O173  1  0.11876727  0.61280398  0.12042018  1
  O  O174  1  0.11721668  0.62681988  0.60976443  1
  O  O175  1  0.61893858  0.12271231  0.12183619  1
  O  O176  1  0.61684295  0.12056534  0.61427035  1
  O  O177  1  0.62600659  0.61888306  0.12896205  1
  O  O178  1  0.60959681  0.62100189  0.61399505  1
  O  O179  1  0.38011493  0.37930684  0.38015426  1
  O  O180  1  0.37791960  0.37491817  0.87882750  1
  O  O181  1  0.38303198  0.87081089  0.37087555  1
  O  O182  1  0.37812523  0.88469611  0.88035500  1
  O  O183  1  0.88150436  0.37649936  0.38350541  1
  O  O184  1  0.88562842  0.37752813  0.87620933  1
  O  O185  1  0.87816382  0.87180296  0.38777371  1
  O  O186  1  0.88466269  0.89042228  0.88409914  1
  O  O187  1  0.24710545  0.01112009  0.36837051  1
  O  O188  1  0.25792813  0.00742082  0.86761926  1
  O  O189  1  0.25886906  0.50499445  0.37164112  1
  O  O190  1  0.24770555  0.50038453  0.85967929  1
  O  O191  1  0.73661345  0.00037328  0.36368009  1
  O  O192  1  0.75924156  0.00399134  0.86093560  1
  O  O193  1  0.75750781  0.50167569  0.37135926  1
  O  O194  1  0.75790318  0.49521573  0.87408005  1
  O  O195  1  0.25743990  0.49370851  0.14014842  1
  O  O196  1  0.25354748  0.48958981  0.63014933  1
  O  O197  1  0.26156784  0.99424866  0.12947587  1
  O  O198  1  0.25204399  0.99159164  0.63563508  1
  O  O199  1  0.74290717  0.49432628  0.13623077  1
  O  O200  1  0.74064325  0.49149054  0.62173775  1
  O  O201  1  0.73924767  0.99486084  0.13002879  1
  O  O202  1  0.74143292  0.99870156  0.63571136  1
  O  O203  1  0.01020952  0.37158272  0.25879119  1
  O  O204  1  0.00062164  0.36813497  0.75677728  1
  O  O205  1  0.00799219  0.92803277  0.26166114  1
  O  O206  1  -0.00153034  0.88150555  0.76287943  1
  O  O207  1  0.50930399  0.37578869  0.25641247  1
  O  O208  1  0.51148946  0.37441225  0.74370471  1
  O  O209  1  0.50371451  0.87887991  0.26031400  1
  O  O210  1  0.49742957  0.86386773  0.75030945  1
  O  O211  1  0.49421193  0.12748482  0.24602976  1
  O  O212  1  0.50335489  0.12027750  0.73355542  1
  O  O213  1  0.50433597  0.62917176  0.23692224  1
  O  O214  1  0.50109552  0.63472919  0.73890451  1
  O  O215  1  0.98395755  0.12460629  0.24584151  1
  O  O216  1  0.99518866  0.13037844  0.74518367  1
  O  O217  1  1.00221282  0.61644714  0.25002111  1
  O  O218  1  1.00902508  0.61991514  0.73121634  1
  O  O219  1  0.37583654  0.24588627  0.01370135  1
  O  O220  1  0.36851057  0.25638900  0.50233949  1
  O  O221  1  0.37125461  0.75932122  0.00326091  1
  O  O222  1  0.36079516  0.74521713  0.50877530  1
  O  O223  1  0.86396086  0.24982159  0.00494430  1
  O  O224  1  0.88364131  0.26224909  0.50896901  1
  O  O225  1  0.87674470  0.76510659  -0.00022110  1
  O  O226  1  0.86456697  0.75499240  0.50081532  1
  O  O227  1  0.13159349  0.23866069  0.49272342  1
  O  O228  1  0.12622479  0.24607198  0.98707202  1
  O  O229  1  0.13676526  0.74178231  0.49276304  1
  O  O230  1  0.13920535  0.75591760  0.98332751  1
  O  O231  1  0.62119035  0.23647307  0.49509429  1
  O  O232  1  0.63674748  0.24320710  0.99405209  1
  O  O233  1  0.62701922  0.74707405  0.49020902  1
  O  O234  1  0.62249710  0.74050460  0.99675981  1
  O  O235  1  0.49666663  0.24666121  0.12769695  1
  O  O236  1  0.48681174  0.24164338  0.61977646  1
  O  O237  1  0.49224965  0.74675847  0.12843046  1
  O  O238  1  0.49248675  0.74560239  0.62660243  1
  O  O239  1  0.99029718  0.24840237  0.12577067  1
  O  O240  1  0.99001948  0.24236217  0.63266734  1
  O  O241  1  1.00830858  0.77284637  0.13644203  1
  O  O242  1  1.00245428  0.73364462  0.61925797  1
  O  O243  1  0.01105851  0.25346673  0.37445526  1
  O  O244  1  0.00434850  0.25495795  0.86751484  1
  O  O245  1  0.01344455  0.75359671  0.37894792  1
  O  O246  1  0.01379731  0.75917431  0.87521373  1
  O  O247  1  0.50853163  0.25950380  0.37476310  1
  O  O248  1  0.51616695  0.25236991  0.88012548  1
  O  O249  1  0.50226025  0.75958300  0.37727165  1
  O  O250  1  0.49308739  0.74934624  0.86168407  1
  O  O251  1  0.24460330  0.12538749  0.49448558  1
  O  O252  1  0.24447328  0.12825187  0.98698070  1
  O  O253  1  0.24401937  0.63038306  0.49330858  1
  O  O254  1  0.25375248  0.64107933  1.00260569  1
  O  O255  1  0.73418931  0.12124015  0.50614798  1
  O  O256  1  0.74294799  0.13217045  0.99944096  1
  O  O257  1  0.74333771  0.63116493  0.49433229  1
  O  O258  1  0.73657430  0.64030951  1.00142537  1
  O  O259  1  0.23928576  0.37712816  0.01392314  1
  O  O260  1  0.25482531  0.36982580  0.50497532  1
  O  O261  1  0.26445847  0.87508404  0.00102894  1
  O  O262  1  0.24757279  0.86700406  0.50890537  1
  O  O263  1  0.74774269  0.36693864  0.00650932  1
  O  O264  1  0.76017312  0.37697531  0.51164780  1
  O  O265  1  0.76230245  0.87695734  0.00730116  1
  O  O266  1  0.75459216  0.86897766  0.49834916  1
  O  O267  1  0.13955869  0.48314441  0.26669067  1
  O  O268  1  0.13871871  0.49737673  0.74755540  1
  O  O269  1  0.14405184  1.01767415  0.24153719  1
  O  O270  1  0.13584021  1.00327629  0.75606363  1
  O  O271  1  0.63179901  0.48920463  0.24830449  1
  O  O272  1  0.62595393  0.48974042  0.73862963  1
  O  O273  1  0.62697210  1.00253775  0.24087603  1
  O  O274  1  0.63276584  1.00764299  0.73955482  1
  O  O275  1  0.36659218  0.01636437  0.24650545  1
  O  O276  1  0.37037041  -0.00188739  0.76026126  1
  O  O277  1  0.36777975  0.49367578  0.26359351  1
  O  O278  1  0.35883784  0.50285800  0.74860053  1
  O  O279  1  0.85859254  0.01850661  0.24759415  1
  O  O280  1  0.86832821  0.00346040  0.75548737  1
  O  O281  1  0.86776849  0.49676633  0.25723017  1
  O  O282  1  0.86952005  0.49497165  0.76809727  1
  O  O283  1  0.12513706  0.35993864  0.37069659  1
  O  O284  1  0.11272545  0.36924349  0.87157063  1
  O  O285  1  0.12462506  0.86099562  0.37957174  1
  O  O286  1  0.11839933  0.86727341  0.87680062  1
  O  O287  1  0.61953599  0.37097528  0.37118227  1
  O  O288  1  0.63328026  0.36384106  0.85543121  1
  O  O289  1  0.61307072  0.87097651  0.37293379  1
  O  O290  1  0.62693281  0.87294792  0.87142045  1
  O  O291  1  0.38275888  0.13283853  0.13058981  1
  O  O292  1  0.38226231  0.13737030  0.61995263  1
  O  O293  1  0.38763694  0.63864432  0.12088303  1
  O  O294  1  0.38482396  0.63213149  0.62285788  1
  O  O295  1  0.87295206  0.13678672  0.12855376  1
  O  O296  1  0.88163189  0.13209637  0.62915916  1
  O  O297  1  0.84491487  0.64071571  0.13424310  1
  O  O298  1  0.89163941  0.62509747  0.61511536  1
  O  O299  1  0.26113521  0.25987735  0.12146944  1
  O  O300  1  0.25769602  0.25402453  0.61833258  1
  O  O301  1  0.26098012  0.76453378  0.11188469  1
  O  O302  1  0.25483851  0.75719723  0.61909638  1
  O  O303  1  0.75473460  0.25602714  0.11714883  1
  O  O304  1  0.76363192  0.25459038  0.62669120  1
  O  O305  1  0.73037057  0.77382877  0.12168843  1
  O  O306  1  0.74290137  0.75222368  0.60843243  1
  O  O307  1  0.24481915  0.24049756  0.38022346  1
  O  O308  1  0.24143826  0.24536851  0.87298306  1
  O  O309  1  0.24595312  0.74465238  0.38141774  1
  O  O310  1  0.24256738  0.75319908  0.87830298  1
  O  O311  1  0.73676070  0.25873405  0.37740494  1
  O  O312  1  0.74491106  0.24865013  0.88200517  1
  O  O313  1  0.73891779  0.74779264  0.38448585  1
  O  O314  1  0.74706847  0.76126144  0.86336377  1
  O  O315  1  0.00889301  0.11833167  0.00073243  1
  O  O316  1  0.00726492  0.12158176  0.51042510  1
  O  O317  1  -0.01496344  0.62143358  0.02167952  1
  O  O318  1  0.00816604  0.61511335  0.50349022  1
  O  O319  1  0.50751847  0.12128318  0.00528474  1
  O  O320  1  0.50639190  0.11509656  0.50593397  1
  O  O321  1  0.51563456  0.62528220  0.01371705  1
  O  O322  1  0.50214957  0.61988188  0.50378155  1
  O  O323  1  0.49482102  0.38159872  0.49531331  1
  O  O324  1  0.54700218  0.39212041  0.98663681  1
  O  O325  1  0.50080596  0.89264007  0.49317246  1
  O  O326  1  0.49105595  0.88108203  0.99646115  1
  O  O327  1  0.99691371  0.37951079  0.49774544  1
  O  O328  1  0.99712043  0.36759118  0.98206741  1
  O  O329  1  0.99286188  0.88397237  0.49988844  1
  O  O330  1  0.99496375  0.88541832  0.98898482  1
  O  O331  1  0.49340318  0.49523993  0.37776298  1
  O  O332  1  0.49585999  0.49498459  0.87556905  1
  O  O333  1  0.50019937  0.99621672  0.38839264  1
  O  O334  1  0.49391910  0.99974176  0.87996866  1
  O  O335  1  0.99562342  0.49084971  0.38713908  1
  O  O336  1  0.99452663  0.48835972  0.86697275  1
  O  O337  1  1.00152057  1.00693860  0.39663777  1
  O  O338  1  0.99489752  0.99684958  0.88267074  1
  O  O339  1  0.00144311  -0.00016624  0.11135259  1
  O  O340  1  -0.00488747  0.01235853  0.62151462  1
  O  O341  1  0.01091133  0.48228585  0.11347823  1
  O  O342  1  -0.00408481  0.50652920  0.61407566  1
  O  O343  1  0.50421349  0.00806669  0.12124406  1
  O  O344  1  0.50384293  0.00595972  0.61575757  1
  O  O345  1  0.51375991  0.50865895  0.12787975  1
  O  O346  1  0.50164171  0.50746923  0.61977015  1
  O  O347  1  0.24557260  0.37978766  0.24428078  1
  O  O348  1  0.24511517  0.38411169  0.73825980  1
  O  O349  1  0.25288378  0.88886017  0.23571119  1
  O  O350  1  0.25220860  0.88494048  0.73960062  1
  O  O351  1  0.74433952  0.38317644  0.24869138  1
  O  O352  1  0.74439563  0.37671177  0.73382475  1
  O  O353  1  0.73910024  0.88939808  0.24506590  1
  O  O354  1  0.73970487  0.88300106  0.74806022  1
  O  O355  1  0.25929196  0.12456393  0.25730890  1
  O  O356  1  0.24621020  0.11875371  0.76155356  1
  O  O357  1  0.24607068  0.61308800  0.26615577  1
  O  O358  1  0.24956742  0.61347779  0.74250768  1
  O  O359  1  0.75895142  0.12240912  0.24930246  1
  O  O360  1  0.75782423  0.11776732  0.74920849  1
  O  O361  1  0.74017376  0.60647824  0.26238405  1
  O  O362  1  0.74807843  0.62296775  0.74260242  1
  O  O363  1  0.36681965  0.13325607  0.36684791  1
  O  O364  1  0.36640416  0.11740631  0.87895209  1
  O  O365  1  0.36599529  0.61529193  0.37994773  1
  O  O366  1  0.36664116  0.61935507  0.87369917  1
  O  O367  1  0.87383056  0.13510941  0.36309161  1
  O  O368  1  0.87640249  0.11420649  0.86968022  1
  O  O369  1  0.86770801  0.61772607  0.37526976  1
  O  O370  1  0.87500510  0.61710181  0.87854495  1
  O  O371  1  0.13604308  0.36351526  0.13919610  1
  O  O372  1  0.13806687  0.36466068  0.62218647  1
  O  O373  1  0.14500622  0.87927232  0.10579401  1
  O  O374  1  0.13318815  0.87074693  0.62226040  1
  O  O375  1  0.63182336  0.38209624  0.13661791  1
  O  O376  1  0.63155398  0.37557355  0.62549193  1
  O  O377  1  0.62296446  0.88792504  0.13147462  1
  O  O378  1  0.62511247  0.89103979  0.61520387  1
  O  O379  1  0.12548781  0.25309676  0.25895913  1
  O  O380  1  0.11732479  0.25161299  0.76024566  1
  O  O381  1  0.13217489  0.74762520  0.26834222  1
  O  O382  1  0.12204487  0.75277905  0.76036881  1
  O  O383  1  0.62591309  0.26180733  0.25768167  1
  O  O384  1  0.63036520  0.25524757  0.75543838  1
  O  O385  1  0.62009353  0.75964793  0.26653715  1
  O  O386  1  0.61917701  0.75819592  0.74952310  1
  O  O387  1  0.37771300  0.23982453  0.24010381  1
  O  O388  1  0.36774132  0.25102750  0.73724466  1
  O  O389  1  0.37239710  0.75620395  0.23546318  1
  O  O390  1  0.38184774  0.74609273  0.74000224  1
  O  O391  1  0.87413160  0.24096654  0.24219139  1
  O  O392  1  0.87924214  0.24451438  0.74406292  1
  O  O393  1  0.85554326  0.74636681  0.24224439  1
  O  O394  1  0.88777390  0.75452288  0.74070426  1
  O  O395  1  0.37882981  0.49313060  0.49061222  1
  O  O396  1  0.38058144  0.49984756  1.00400851  1
  O  O397  1  0.38744907  1.00707773  0.50226655  1
  O  O398  1  0.38139561  0.99464224  0.99024660  1
  O  O399  1  0.88265236  0.48741101  0.49612200  1
  O  O400  1  0.87120973  0.49563389  0.98081337  1
  O  O401  1  0.88287133  0.99285955  0.50529580  1
  O  O402  1  0.88211267  0.99699005  0.99320729  1
  O  O403  1  0.11724521  0.01246558  -0.00968952  1
  O  O404  1  0.12080039  0.01194243  0.50055159  1
  O  O405  1  0.11621280  0.51532974  -0.01180246  1
  O  O406  1  0.11677159  0.50662929  0.49311682  1
  O  O407  1  0.61719024  0.00877859  0.01444728  1
  O  O408  1  0.61732493  0.01184872  0.50648527  1
  O  O409  1  0.63444814  0.51977940  0.01373686  1
  O  O410  1  0.61753844  0.50488437  0.50328415  1
  O  O411  1  0.36720930  0.36649465  0.13307645  1
  O  O412  1  0.36667749  0.36627678  0.61813182  1
  O  O413  1  0.37215104  0.87086194  0.11464740  1
  O  O414  1  0.36973604  0.86498052  0.62467113  1
  O  O415  1  0.86860603  0.36340941  0.12466464  1
  O  O416  1  0.86965498  0.36939629  0.62023443  1
  O  O417  1  0.86379137  0.87836991  0.11722203  1
  O  O418  1  0.86873459  0.87081402  0.61025169  1
  O  O419  1  0.13165700  0.13162592  0.38111548  1
  O  O420  1  0.13138726  0.13514478  0.88254290  1
  O  O421  1  0.13317858  0.63320511  0.38603078  1
  O  O422  1  0.12964891  0.64256630  0.87054409  1
  O  O423  1  0.62088251  0.13415053  0.38917793  1
  O  O424  1  0.62852033  0.13157991  0.88066519  1
  O  O425  1  0.62741409  0.63314865  0.37982671  1
  O  O426  1  0.62169208  0.62181237  0.88625727  1
