# generated using pymatgen
data_V85Zn86O256
_symmetry_space_group_name_H-M   'P 1'
_cell_length_a   16.96258783
_cell_length_b   16.96460670
_cell_length_c   16.95944344
_cell_angle_alpha   90.09073271
_cell_angle_beta   89.88241205
_cell_angle_gamma   89.94316018
_symmetry_Int_Tables_number   1
_chemical_formula_structural   V85Zn86O256
_chemical_formula_sum   'V85 Zn86 O256'
_cell_volume   4880.29220974
_cell_formula_units_Z   1
loop_
 _symmetry_equiv_pos_site_id
 _symmetry_equiv_pos_as_xyz
  1  'x, y, z'
loop_
 _atom_site_type_symbol
 _atom_site_label
 _atom_site_symmetry_multiplicity
 _atom_site_fract_x
 _atom_site_fract_y
 _atom_site_fract_z
 _atom_site_occupancy
  V  V0  1  0.49840197  0.11911487  0.63224924  1
  V  V1  1  0.37236094  0.24600175  0.62426774  1
  V  V2  1  0.24393414  0.23875152  0.48635062  1
  V  V3  1  0.62653945  0.75572863  0.37146863  1
  V  V4  1  0.86964110  0.76024233  0.62748282  1
  V  V5  1  0.74928531  0.75866404  0.50318156  1
  V  V6  1  0.37715031  0.87532573  -0.00539404  1
  V  V7  1  0.12686020  0.75036029  0.87496802  1
  V  V8  1  0.62914115  0.88378120  0.23565895  1
  V  V9  1  0.12448244  0.87976961  0.25309689  1
  V  V10  1  0.74750422  0.62302084  0.87438174  1
  V  V11  1  0.88675938  0.25556440  0.12677082  1
  V  V12  1  0.87501416  0.74960166  0.12242218  1
  V  V13  1  0.87991136  0.49637150  0.37557897  1
  V  V14  1  0.75199514  0.74696964  0.00338656  1
  V  V15  1  0.88629729  0.12517188  0.74834593  1
  V  V16  1  0.88544468  0.24506969  0.62260150  1
  V  V17  1  0.49884560  0.36418185  0.37170072  1
  V  V18  1  0.62642162  0.37665312  0.25434167  1
  V  V19  1  0.00627164  0.25392376  0.26821486  1
  V  V20  1  0.75484400  0.38712618  0.13396862  1
  V  V21  1  0.36814215  0.00909616  0.37353426  1
  V  V22  1  0.75497597  0.13133995  0.87099489  1
  V  V23  1  0.74751676  0.62094011  0.37214377  1
  V  V24  1  0.36699858  0.00034569  0.87353443  1
  V  V25  1  0.62405081  0.37316673  0.74882413  1
  V  V26  1  0.25137065  0.87957613  0.12619980  1
  V  V27  1  0.00457833  0.49923074  -0.00146781  1
  V  V28  1  0.35843669  0.11789598  0.75190577  1
  V  V29  1  0.87589326  0.49897840  0.87230526  1
  V  V30  1  0.00074611  0.75216692  0.25586664  1
  V  V31  1  0.00311756  0.62517216  0.12572250  1
  V  V32  1  0.49317134  0.49968867  0.00243066  1
  V  V33  1  0.88532937  -0.00699045  0.37343548  1
  V  V34  1  0.62365848  0.12005754  0.50127101  1
  V  V35  1  0.37308099  0.49291351  0.87576538  1
  V  V36  1  0.62206383  0.50195341  0.62341319  1
  V  V37  1  0.13327331  0.88559221  0.74974910  1
  V  V38  1  0.57297366  0.17358693  0.05523027  1
  V  V39  1  0.49783213  0.24714228  0.74874997  1
  V  V40  1  0.25489516  0.50159962  0.24878127  1
  V  V41  1  0.62196786  0.62154612  0.00224323  1
  V  V42  1  0.49491985  -0.00378797  0.50059987  1
  V  V43  1  0.61254136  0.75244128  0.86949012  1
  V  V44  1  0.25106699  0.62709211  0.37056591  1
  V  V45  1  0.37177500  0.37166726  0.49999716  1
  V  V46  1  0.87804962  0.37843013  -0.00125335  1
  V  V47  1  0.51690476  -0.01305891  0.00083360  1
  V  V48  1  0.37370888  0.49971232  0.37278431  1
  V  V49  1  0.74883304  0.49796493  0.74693192  1
  V  V50  1  0.38314164  0.62725957  0.75012105  1
  V  V51  1  0.87055646  0.62184998  0.25017971  1
  V  V52  1  0.12127095  0.49544066  0.63221270  1
  V  V53  1  0.38218373  0.13357006  0.23844179  1
  V  V54  1  0.12620639  0.25404397  0.86964910  1
  V  V55  1  -0.00353416  0.62593185  0.62390563  1
  V  V56  1  0.81741499  0.92204475  0.05823815  1
  V  V57  1  0.49483929  0.87934600  0.37268130  1
  V  V58  1  0.12524915  0.62744459  0.50291086  1
  V  V59  1  0.25941663  0.87402232  0.61762921  1
  V  V60  1  0.84989903  -0.02260454  0.85470477  1
  V  V61  1  0.00253844  -0.00124366  0.00188676  1
  V  V62  1  0.26155044  0.24613849  -0.00432118  1
  V  V63  1  0.63721467  -0.00954359  0.64363583  1
  V  V64  1  0.24965668  0.62439303  0.87341897  1
  V  V65  1  0.49786122  0.37438587  0.87576020  1
  V  V66  1  0.44038895  0.68058816  0.57909635  1
  V  V67  1  0.24380987  0.37104220  0.62984367  1
  V  V68  1  0.87270913  0.62476560  0.74810572  1
  V  V69  1  0.62391536  0.24259959  0.87294274  1
  V  V70  1  0.37301332  0.74902789  0.13360417  1
  V  V71  1  0.12869213  0.49801652  0.12584864  1
  V  V72  1  0.74976460  0.37245611  0.61992510  1
  V  V73  1  -0.00016885  0.87533810  0.88075845  1
  V  V74  1  0.74806213  0.24717418  0.49913921  1
  V  V75  1  0.12410343  0.75692399  0.37998672  1
  V  V76  1  0.75432048  0.25582759  0.00170280  1
  V  V77  1  0.11087084  0.12246273  0.49248211  1
  V  V78  1  0.49346365  0.62226781  0.13782086  1
  V  V79  1  0.12599367  0.37265402  0.26326195  1
  V  V80  1  0.25989753  0.37023234  0.12077654  1
  V  V81  1  0.12962247  0.12671070  -0.00315061  1
  V  V82  1  0.49748133  0.49759594  0.50399960  1
  V  V83  1  0.74968082  0.11755252  0.37140747  1
  V  V84  1  0.62236584  0.62715431  0.50215167  1
  Zn  Zn85  1  0.61968249  0.24275734  0.36846932  1
  Zn  Zn86  1  0.88160669  0.36910310  0.49252354  1
  Zn  Zn87  1  0.26464291  0.74864514  0.50641736  1
  Zn  Zn88  1  0.87975944  0.87363870  0.49600275  1
  Zn  Zn89  1  0.00351526  0.49470660  0.49443218  1
  Zn  Zn90  1  0.12795079  0.62573598  0.00019835  1
  Zn  Zn91  1  0.00899914  0.25518909  0.74163052  1
  Zn  Zn92  1  0.24661968  0.01178740  0.25468110  1
  Zn  Zn93  1  0.00487089  0.12840579  0.12644275  1
  Zn  Zn94  1  0.49890527  0.75869078  0.74406549  1
  Zn  Zn95  1  0.87858001  0.12491842  0.24975470  1
  Zn  Zn96  1  0.24669808  0.49491604  0.75168597  1
  Zn  Zn97  1  0.12282844  0.01060173  0.62999682  1
  Zn  Zn98  1  -0.00072922  0.75199042  0.75241433  1
  Zn  Zn99  1  0.25085795  0.74986639  0.00084689  1
  Zn  Zn100  1  0.63164008  0.50723856  0.13753431  1
  Zn  Zn101  1  0.00838876  0.38002410  0.86185251  1
  Zn  Zn102  1  0.75118084  -0.00046500  0.23780040  1
  Zn  Zn103  1  0.49954538  0.75399935  0.24729371  1
  Zn  Zn104  1  0.00044540  -0.01057710  0.50994728  1
  Zn  Zn105  1  0.12613084  0.00443880  0.12707984  1
  Zn  Zn106  1  0.39040822  0.24919636  0.12013467  1
  Zn  Zn107  1  0.19234120  0.18609378  0.18805831  1
  Zn  Zn108  1  0.18458331  0.18659564  0.67961919  1
  Zn  Zn109  1  0.18779781  0.68913797  0.18834350  1
  Zn  Zn110  1  0.19034588  0.69149993  0.69037862  1
  Zn  Zn111  1  0.69568659  0.19753080  0.19256016  1
  Zn  Zn112  1  0.68965860  0.17959490  0.68718092  1
  Zn  Zn113  1  0.68626172  0.69092772  0.18733800  1
  Zn  Zn114  1  0.68507745  0.68701506  0.68572380  1
  Zn  Zn115  1  0.31562944  0.30964013  0.30661626  1
  Zn  Zn116  1  0.31030488  0.30885708  0.81194815  1
  Zn  Zn117  1  0.31038319  0.81706805  0.31390214  1
  Zn  Zn118  1  0.31445206  0.81272704  0.80967698  1
  Zn  Zn119  1  0.81096970  0.30918716  0.31189633  1
  Zn  Zn120  1  0.81818974  0.31349940  0.80847039  1
  Zn  Zn121  1  0.80890327  0.81345559  0.30893463  1
  Zn  Zn122  1  0.80852284  0.80860347  0.81581583  1
  Zn  Zn123  1  0.18796493  0.43820314  0.44335352  1
  Zn  Zn124  1  0.19149937  0.43257547  0.94009984  1
  Zn  Zn125  1  0.18684198  0.93724863  0.44381956  1
  Zn  Zn126  1  0.18919221  0.93696229  0.94007044  1
  Zn  Zn127  1  0.68818835  0.43798413  0.43463926  1
  Zn  Zn128  1  0.68526393  0.43717377  0.93741547  1
  Zn  Zn129  1  0.68582256  0.93902333  0.43718173  1
  Zn  Zn130  1  0.69222161  0.93215805  0.91238895  1
  Zn  Zn131  1  0.31585696  0.06196603  0.06321426  1
  Zn  Zn132  1  0.30592283  0.05603387  0.56426352  1
  Zn  Zn133  1  0.31298701  0.56421180  0.06176042  1
  Zn  Zn134  1  0.30369042  0.55695761  0.56018187  1
  Zn  Zn135  1  0.81593436  0.08305747  0.05864869  1
  Zn  Zn136  1  0.81460892  0.05975218  0.56286188  1
  Zn  Zn137  1  0.81607547  0.56507446  0.06133585  1
  Zn  Zn138  1  0.80953125  0.56589124  0.55836212  1
  Zn  Zn139  1  0.43760998  0.43450878  0.18966118  1
  Zn  Zn140  1  0.43305057  0.43702943  0.68764373  1
  Zn  Zn141  1  0.44157250  0.94485798  0.18434805  1
  Zn  Zn142  1  0.43361274  0.93687602  0.68511611  1
  Zn  Zn143  1  0.94182420  0.43841034  0.19222149  1
  Zn  Zn144  1  0.93796379  0.43262649  0.68221613  1
  Zn  Zn145  1  0.94462965  0.94178619  0.19529804  1
  Zn  Zn146  1  0.94777018  0.93694298  0.68820006  1
  Zn  Zn147  1  0.06702778  0.07128258  0.31709822  1
  Zn  Zn148  1  0.05947835  0.06376049  0.81966862  1
  Zn  Zn149  1  0.06499250  0.56437284  0.31138057  1
  Zn  Zn150  1  0.06138431  0.56527640  0.81057299  1
  Zn  Zn151  1  0.56204795  0.06100484  0.30715086  1
  Zn  Zn152  1  0.54915074  -0.05993447  0.81362810  1
  Zn  Zn153  1  0.56412800  0.55710668  0.31568145  1
  Zn  Zn154  1  0.56040849  0.56338610  0.81259767  1
  Zn  Zn155  1  0.43298695  0.18194102  0.43959894  1
  Zn  Zn156  1  0.43786309  0.17731488  0.93098758  1
  Zn  Zn157  1  0.43812182  0.68532053  0.41416195  1
  Zn  Zn158  1  0.43239437  0.68397999  0.94363096  1
  Zn  Zn159  1  0.93235155  0.18335987  0.43590329  1
  Zn  Zn160  1  0.94292914  0.18621764  0.93431786  1
  Zn  Zn161  1  0.93713828  0.68881085  0.43923921  1
  Zn  Zn162  1  0.93845395  0.68687564  0.93721042  1
  Zn  Zn163  1  0.07230930  0.31659113  0.06056937  1
  Zn  Zn164  1  0.06290583  0.31370682  0.55084227  1
  Zn  Zn165  1  0.06571618  0.81279582  0.06439636  1
  Zn  Zn166  1  0.05803407  0.81617533  0.56614188  1
  Zn  Zn167  1  0.56703567  0.33532354  0.06370271  1
  Zn  Zn168  1  0.56151099  0.30949848  0.55990099  1
  Zn  Zn169  1  0.55939703  0.80814475  0.05987304  1
  Zn  Zn170  1  0.56788974  0.82254018  0.56099527  1
  O  O171  1  0.12388547  0.12507966  0.11291416  1
  O  O172  1  0.13530282  0.12434792  0.60123747  1
  O  O173  1  0.12146436  0.61796889  0.12304918  1
  O  O174  1  0.11728986  0.62320315  0.62006199  1
  O  O175  1  0.63452840  0.12934990  0.11875772  1
  O  O176  1  0.61588224  0.11782403  0.61979816  1
  O  O177  1  0.61668136  0.62390048  0.11924241  1
  O  O178  1  0.62928324  0.61369997  0.61517879  1
  O  O179  1  0.38149772  0.38034643  0.37857540  1
  O  O180  1  0.38004455  0.38583632  0.86766736  1
  O  O181  1  0.38934522  0.88301216  0.36787440  1
  O  O182  1  0.36862938  0.87887984  0.88758747  1
  O  O183  1  0.86464574  0.39445592  0.37138928  1
  O  O184  1  0.87604298  0.38337812  0.88238164  1
  O  O185  1  0.86865919  0.88981719  0.37145686  1
  O  O186  1  0.89413031  0.87183696  0.87697409  1
  O  O187  1  0.26720445  -0.01085624  0.37526429  1
  O  O188  1  0.26686271  -0.00321209  0.88104095  1
  O  O189  1  0.25282344  0.50647388  0.36888511  1
  O  O190  1  0.25633718  0.50338666  0.87349384  1
  O  O191  1  0.75421208  0.00978031  0.37467603  1
  O  O192  1  0.76034453  0.02810127  0.90409492  1
  O  O193  1  0.75631589  0.51570961  0.37864865  1
  O  O194  1  0.75429650  0.50379268  0.86918905  1
  O  O195  1  0.24941564  0.49449241  0.13093397  1
  O  O196  1  0.23903399  0.49016050  0.62619604  1
  O  O197  1  0.24943437  0.98881895  0.12787441  1
  O  O198  1  0.23859177  0.98198383  0.62015334  1
  O  O199  1  0.75221518  0.49063491  0.11993621  1
  O  O200  1  0.74429967  0.49203808  0.62573953  1
  O  O201  1  0.76537487  0.99100063  0.11323564  1
  O  O202  1  0.73510779  1.00905872  0.62833774  1
  O  O203  1  0.01105151  0.36361325  0.24650264  1
  O  O204  1  -0.00406957  0.36799153  0.75004594  1
  O  O205  1  0.01466121  0.86587491  0.24682308  1
  O  O206  1  0.01270695  0.87160192  0.76405233  1
  O  O207  1  0.50802657  0.37961305  0.26217971  1
  O  O208  1  0.50457653  0.36854959  0.75475875  1
  O  O209  1  0.51160885  0.87811904  0.25547468  1
  O  O210  1  0.49175151  0.86968424  0.75013570  1
  O  O211  1  0.48259398  0.12021370  0.25346199  1
  O  O212  1  0.49181163  0.13042446  0.73634107  1
  O  O213  1  0.50348651  0.62395493  0.24066483  1
  O  O214  1  0.48652494  0.62296174  0.74743088  1
  O  O215  1  1.00240968  0.14265430  0.24755984  1
  O  O216  1  0.98968350  0.13335474  0.75662288  1
  O  O217  1  0.99442261  0.63266667  0.24418945  1
  O  O218  1  0.98982056  0.62824823  0.74319504  1
  O  O219  1  0.36524541  0.24154424  -0.00234772  1
  O  O220  1  0.36825526  0.25371900  0.50614335  1
  O  O221  1  0.37370110  0.75807374  0.00993889  1
  O  O222  1  0.38429124  0.73289590  0.50747457  1
  O  O223  1  0.87237167  0.26010316  0.00466933  1
  O  O224  1  0.86440050  0.24747628  0.50539726  1
  O  O225  1  0.86502257  0.74228520  0.00761878  1
  O  O226  1  0.86563119  0.74857169  0.50892999  1
  O  O227  1  0.13763950  0.24120205  0.50051145  1
  O  O228  1  0.13529618  0.24424281  0.99302263  1
  O  O229  1  0.12107267  0.73914375  0.49361483  1
  O  O230  1  0.12799574  0.74779894  0.98848180  1
  O  O231  1  0.62988057  0.23622608  0.49857795  1
  O  O232  1  0.62955717  0.24951819  0.99828637  1
  O  O233  1  0.62889553  0.74818246  0.48935741  1
  O  O234  1  0.62788477  0.73741096  0.99302389  1
  O  O235  1  0.51131568  0.24102807  0.10429325  1
  O  O236  1  0.49249364  0.24130764  0.62682033  1
  O  O237  1  0.49197281  0.73946674  0.12705307  1
  O  O238  1  0.50841886  0.74509074  0.62353394  1
  O  O239  1  0.99224611  0.25686798  0.12115461  1
  O  O240  1  0.98770319  0.25069919  0.61975713  1
  O  O241  1  0.99740239  0.74443412  0.13349112  1
  O  O242  1  0.99003567  0.73876733  0.62961322  1
  O  O243  1  -0.00480695  0.25311280  0.36583786  1
  O  O244  1  0.01714660  0.25536195  0.87898054  1
  O  O245  1  0.00863837  0.74163376  0.36341154  1
  O  O246  1  0.00860549  0.75647929  0.87711076  1
  O  O247  1  0.49932310  0.26165900  0.38479168  1
  O  O248  1  0.50667589  0.25259150  0.87138294  1
  O  O249  1  0.50887424  0.75993267  0.36919747  1
  O  O250  1  0.51212922  0.73372738  0.87575744  1
  O  O251  1  0.25689742  0.13826207  0.49726017  1
  O  O252  1  0.24456192  0.13739309  1.00479623  1
  O  O253  1  0.24147703  0.62847981  0.49284681  1
  O  O254  1  0.25052506  0.62606119  0.98554728  1
  O  O255  1  0.74125736  0.12888241  0.49439502  1
  O  O256  1  0.75542516  0.15030085  0.99244398  1
  O  O257  1  0.74183540  0.63577639  0.49078476  1
  O  O258  1  0.74137121  0.62857654  0.99609818  1
  O  O259  1  0.25015631  0.36035691  0.00843065  1
  O  O260  1  0.25437407  0.36785125  0.50901288  1
  O  O261  1  0.25702066  0.87216666  0.01025828  1
  O  O262  1  0.24458678  0.86554544  0.51210629  1
  O  O263  1  0.75402542  0.37044392  0.00683218  1
  O  O264  1  0.74992352  0.36429100  0.50212567  1
  O  O265  1  0.75314900  0.86695109  -0.00169158  1
  O  O266  1  0.75246151  0.86148946  0.49296383  1
  O  O267  1  0.13388435  0.49400821  0.24500111  1
  O  O268  1  0.12641875  0.50617732  0.73585148  1
  O  O269  1  0.12612620  0.99383362  0.25108000  1
  O  O270  1  0.12408930  0.98785908  0.75805713  1
  O  O271  1  0.62695304  0.48662594  0.25298745  1
  O  O272  1  0.62826582  0.49403136  0.74387428  1
  O  O273  1  0.62995317  0.98867637  0.24703181  1
  O  O274  1  0.62012482  1.00092407  0.74274428  1
  O  O275  1  0.37448091  0.00536285  0.26007963  1
  O  O276  1  0.37785599  0.00534790  0.76363698  1
  O  O277  1  0.36155573  0.49499254  0.25507142  1
  O  O278  1  0.37235856  0.50876133  0.75759637  1
  O  O279  1  0.87104439  0.00252254  0.25893621  1
  O  O280  1  0.88167698  0.00767473  0.75848427  1
  O  O281  1  0.87921745  0.51391818  0.25854639  1
  O  O282  1  0.86720888  0.50453454  0.75237739  1
  O  O283  1  0.12974567  0.38298060  0.36230562  1
  O  O284  1  0.12712938  0.35925956  0.87875723  1
  O  O285  1  0.13210749  0.86254616  0.36943720  1
  O  O286  1  0.12389741  0.86894813  0.86879718  1
  O  O287  1  0.61648787  0.37279827  0.37182174  1
  O  O288  1  0.61905494  0.36630719  0.86979342  1
  O  O289  1  0.61643999  0.87038536  0.36936148  1
  O  O290  1  0.61418035  0.85495372  0.87660565  1
  O  O291  1  0.37968110  0.12780672  0.13317137  1
  O  O292  1  0.37966497  0.12404542  0.63058538  1
  O  O293  1  0.38230286  0.63452895  0.12140261  1
  O  O294  1  0.37181996  0.61876865  0.63447517  1
  O  O295  1  0.88196242  0.14083803  0.12971751  1
  O  O296  1  0.86641042  0.13433896  0.63527745  1
  O  O297  1  0.88066987  0.62990406  0.13365133  1
  O  O298  1  0.87983234  0.62985355  0.62860375  1
  O  O299  1  0.25271180  0.25650872  0.11242862  1
  O  O300  1  0.25533512  0.25639423  0.61630430  1
  O  O301  1  0.25581318  0.75856128  0.12477203  1
  O  O302  1  0.24512218  0.76444207  0.62337342  1
  O  O303  1  0.76527037  0.26325387  0.11953589  1
  O  O304  1  0.75013948  0.25247642  0.61291401  1
  O  O305  1  0.75404166  0.74517964  0.11105182  1
  O  O306  1  0.75674553  0.74424818  0.61581983  1
  O  O307  1  0.25591141  0.25790177  0.38967834  1
  O  O308  1  0.24311258  0.25316544  0.88762228  1
  O  O309  1  0.24433937  0.74296772  0.37843309  1
  O  O310  1  0.24454055  0.74131762  0.87586347  1
  O  O311  1  0.75063613  0.23814421  0.38495887  1
  O  O312  1  0.74497697  0.25364739  0.88277846  1
  O  O313  1  0.74323366  0.74272605  0.37947354  1
  O  O314  1  0.73859453  0.74170092  0.88551008  1
  O  O315  1  0.00655872  0.11604309  0.00188088  1
  O  O316  1  0.00872767  0.12459367  0.49600480  1
  O  O317  1  0.00154678  0.61408995  0.00587101  1
  O  O318  1  0.00635227  0.62271770  0.50809166  1
  O  O319  1  0.51426971  0.11424510  -0.00498592  1
  O  O320  1  0.50545835  0.11805587  0.50896441  1
  O  O321  1  0.50508731  0.61586961  0.00875599  1
  O  O322  1  0.49920296  0.61986957  0.50296399  1
  O  O323  1  0.49395366  0.38113750  0.49371516  1
  O  O324  1  0.50264372  0.39127803  0.99152737  1
  O  O325  1  0.50489766  0.88899441  0.49033882  1
  O  O326  1  0.49023476  0.87771578  1.00124965  1
  O  O327  1  0.99327700  0.38277383  0.50066931  1
  O  O328  1  0.99874714  0.38895283  0.99962059  1
  O  O329  1  0.99396149  0.87398671  0.49813192  1
  O  O330  1  1.01204208  0.88415144  0.99162830  1
  O  O331  1  0.49342518  0.49527253  0.38707561  1
  O  O332  1  0.49222057  0.49700653  0.88178180  1
  O  O333  1  0.49369166  0.99597422  0.38137861  1
  O  O334  1  0.48399720  0.99485924  0.89203120  1
  O  O335  1  0.98372640  0.51027492  0.37412903  1
  O  O336  1  0.99629902  0.50074299  0.88221333  1
  O  O337  1  0.98573152  1.00476386  0.37134232  1
  O  O338  1  0.98927050  0.99314866  0.88682725  1
  O  O339  1  0.00159563  0.00104503  0.11330557  1
  O  O340  1  0.00932985  0.00064129  0.62423406  1
  O  O341  1  0.00700024  0.50512210  0.11929051  1
  O  O342  1  0.00342048  0.51241840  0.62354416  1
  O  O343  1  0.49938730  -0.00232873  0.10085718  1
  O  O344  1  0.50367047  0.00548267  0.61676505  1
  O  O345  1  0.49840805  0.50500318  0.11845603  1
  O  O346  1  0.50381045  0.49230326  0.61167525  1
  O  O347  1  0.24457075  0.38023823  0.24353403  1
  O  O348  1  0.25515512  0.37445378  0.73437205  1
  O  O349  1  0.23856091  0.87624713  0.24409709  1
  O  O350  1  0.23821289  0.87062716  0.74389484  1
  O  O351  1  0.74625606  0.37360744  0.24207355  1
  O  O352  1  0.74347533  0.37866630  0.74135037  1
  O  O353  1  0.73409836  0.87720095  0.25017533  1
  O  O354  1  0.76690573  0.91293607  0.81954726  1
  O  O355  1  0.26808883  0.12463069  0.24694594  1
  O  O356  1  0.26027428  0.12719186  0.74348297  1
  O  O357  1  0.24155030  0.61443806  0.25905342  1
  O  O358  1  0.25770647  0.62165843  0.76034027  1
  O  O359  1  0.75345211  0.12246072  0.25758058  1
  O  O360  1  0.76147944  0.13348062  0.76412969  1
  O  O361  1  0.75957142  0.63296930  0.25759472  1
  O  O362  1  0.75345563  0.61694627  0.75415682  1
  O  O363  1  0.37689265  0.11270681  0.36682572  1
  O  O364  1  0.37479547  0.11075993  0.86588808  1
  O  O365  1  0.35959950  0.61599728  0.37392842  1
  O  O366  1  0.37005573  0.61502040  0.86781699  1
  O  O367  1  0.86597914  0.11451727  0.37137146  1
  O  O368  1  0.87090788  0.12471492  0.86622274  1
  O  O369  1  0.86649168  0.62165093  0.36836007  1
  O  O370  1  0.86805224  0.61905722  0.86908328  1
  O  O371  1  0.13908959  0.38209249  0.13140828  1
  O  O372  1  0.13175217  0.38426230  0.61786546  1
  O  O373  1  0.13466659  0.87632731  0.13405037  1
  O  O374  1  0.12472360  0.87073985  0.64475825  1
  O  O375  1  0.63730362  0.38303635  0.13520488  1
  O  O376  1  0.63076274  0.37987697  0.62693170  1
  O  O377  1  0.62124097  0.86557934  0.13845941  1
  O  O378  1  0.62890446  0.89126825  0.62506348  1
  O  O379  1  0.11425289  0.25788507  0.24648197  1
  O  O380  1  0.12871020  0.24022197  0.76623652  1
  O  O381  1  0.11876201  0.75499894  0.25888070  1
  O  O382  1  0.12309513  0.75557910  0.76387240  1
  O  O383  1  0.62962143  0.26717493  0.25414617  1
  O  O384  1  0.61915198  0.25399905  0.75493282  1
  O  O385  1  0.62430062  0.75796665  0.26040552  1
  O  O386  1  0.62183631  0.73911459  0.76592803  1
  O  O387  1  0.37944092  0.23972428  0.24289300  1
  O  O388  1  0.37974703  0.24061848  0.74524163  1
  O  O389  1  0.37672603  0.75631854  0.23801344  1
  O  O390  1  0.37749518  0.73177717  0.75534749  1
  O  O391  1  0.88980210  0.25474874  0.24366321  1
  O  O392  1  0.87582629  0.24289016  0.73851046  1
  O  O393  1  0.88262640  0.74401777  0.24588909  1
  O  O394  1  0.86982435  0.74271259  0.74477701  1
  O  O395  1  0.37924201  0.49264861  0.49562370  1
  O  O396  1  0.38284349  0.50484671  0.98954565  1
  O  O397  1  0.38417795  1.00790941  0.48692781  1
  O  O398  1  0.37717111  0.99202879  0.99286230  1
  O  O399  1  0.87354826  0.50397286  0.48373544  1
  O  O400  1  0.88404477  0.49767069  0.99350442  1
  O  O401  1  0.87467686  0.99825375  0.48610017  1
  O  O402  1  0.87664974  0.98770819  1.00151094  1
  O  O403  1  0.11850147  0.00853507  -0.00083693  1
  O  O404  1  0.12050872  0.01251807  0.49517952  1
  O  O405  1  0.12011175  0.50100888  0.00550658  1
  O  O406  1  0.12506443  0.51313402  0.50947120  1
  O  O407  1  0.61545093  -0.01844762  -0.01196314  1
  O  O408  1  0.61786009  0.00972944  0.50372042  1
  O  O409  1  0.61810295  0.51057939  0.00189478  1
  O  O410  1  0.61528383  0.50583529  0.50141700  1
  O  O411  1  0.36533326  0.36865445  0.12918709  1
  O  O412  1  0.36825436  0.36818095  0.61819544  1
  O  O413  1  0.36885391  0.86998695  0.11913336  1
  O  O414  1  0.35833713  0.87818764  0.62330792  1
  O  O415  1  0.87207191  0.37561049  0.12031598  1
  O  O416  1  0.86167253  0.36462242  0.62107270  1
  O  O417  1  0.87761317  0.86975733  0.12431515  1
  O  O418  1  0.87567781  0.86194875  0.63114403  1
  O  O419  1  0.13062365  0.12838437  0.39184886  1
  O  O420  1  0.12175769  0.13541355  0.88869864  1
  O  O421  1  0.13273855  0.63164703  0.38204903  1
  O  O422  1  0.13281717  0.63159341  0.87453239  1
  O  O423  1  0.62998903  0.12356428  0.38193226  1
  O  O424  1  0.63759934  0.14253295  0.87303519  1
  O  O425  1  0.62916960  0.63334005  0.37944263  1
  O  O426  1  0.62995933  0.62584094  0.88384065  1
