# generated using pymatgen
data_V85Zn86O256
_symmetry_space_group_name_H-M   'P 1'
_cell_length_a   16.92917896
_cell_length_b   16.93820002
_cell_length_c   16.94346007
_cell_angle_alpha   89.98009082
_cell_angle_beta   89.97336561
_cell_angle_gamma   90.02650491
_symmetry_Int_Tables_number   1
_chemical_formula_structural   V85Zn86O256
_chemical_formula_sum   'V85 Zn86 O256'
_cell_volume   4858.53277678
_cell_formula_units_Z   1
loop_
 _symmetry_equiv_pos_site_id
 _symmetry_equiv_pos_as_xyz
  1  'x, y, z'
loop_
 _atom_site_type_symbol
 _atom_site_label
 _atom_site_symmetry_multiplicity
 _atom_site_fract_x
 _atom_site_fract_y
 _atom_site_fract_z
 _atom_site_occupancy
  V  V0  1  0.63001474  0.86886029  0.74290156  1
  V  V1  1  0.25083952  0.37600238  0.12379034  1
  V  V2  1  0.25894073  0.62232853  0.37087234  1
  V  V3  1  0.62990553  0.49890358  0.62457254  1
  V  V4  1  0.13568796  0.24571174  0.37389240  1
  V  V5  1  0.75144759  0.62986340  0.36993496  1
  V  V6  1  0.26555488  0.50373411  0.25096065  1
  V  V7  1  0.49410665  0.50301364  0.49286690  1
  V  V8  1  0.25075659  0.74826210  0.49869048  1
  V  V9  1  0.11516352  0.87130274  0.24949770  1
  V  V10  1  0.24940793  0.87660070  0.62328067  1
  V  V11  1  0.75208474  -0.00111302  0.74734412  1
  V  V12  1  -0.00071237  0.37152646  0.37660208  1
  V  V13  1  0.62485654  0.12720994  -0.00057469  1
  V  V14  1  0.87652419  0.24827299  0.12866885  1
  V  V15  1  0.63224800  0.62294090  -0.00403260  1
  V  V16  1  -0.00770461  0.62863907  0.62861020  1
  V  V17  1  0.24894221  0.25011622  -0.00220132  1
  V  V18  1  0.51767525  0.25323396  0.25267523  1
  V  V19  1  0.24893409  0.74941613  0.00143139  1
  V  V20  1  0.11783146  0.74946748  0.37128414  1
  V  V21  1  -0.00021739  0.25018942  0.73801761  1
  V  V22  1  0.88076916  0.37323332  -0.00242492  1
  V  V23  1  0.37240113  0.12921254  0.25479355  1
  V  V24  1  0.62773652  0.62889497  0.50277360  1
  V  V25  1  0.62102271  0.87655056  0.24488449  1
  V  V26  1  0.75108164  0.49591908  0.75100703  1
  V  V27  1  0.86084384  0.25495682  0.61822442  1
  V  V28  1  0.12577550  0.62401342  0.49892544  1
  V  V29  1  0.24945222  0.00141476  0.25548958  1
  V  V30  1  0.87985169  0.12309490  0.74187411  1
  V  V31  1  0.75157606  0.25157554  0.00030696  1
  V  V32  1  0.11065417  0.00662268  0.62098383  1
  V  V33  1  0.76083073  0.12734142  0.87201505  1
  V  V34  1  0.50087997  0.12311299  0.12692881  1
  V  V35  1  0.50301412  -0.00156999  0.00096963  1
  V  V36  1  -0.00356851  0.89320388  0.88249228  1
  V  V37  1  0.37357712  0.74687750  0.63123251  1
  V  V38  1  0.49655043  0.37488126  0.87367237  1
  V  V39  1  0.49694019  0.62305429  0.63321725  1
  V  V40  1  0.12482482  -0.00252549  0.12202306  1
  V  V41  1  0.12310313  0.11869926  -0.00329384  1
  V  V42  1  0.49942877  0.87212543  0.87550291  1
  V  V43  1  0.12341554  0.49644728  0.62516718  1
  V  V44  1  0.67579516  0.79792689  0.92850168  1
  V  V45  1  0.49858188  0.74809083  0.75744345  1
  V  V46  1  0.76424032  -0.00395440  0.25195391  1
  V  V47  1  0.25497517  0.00778746  0.74603759  1
  V  V48  1  0.89491527  0.63889946  0.24381307  1
  V  V49  1  0.37846601  0.00211666  0.37480526  1
  V  V50  1  0.62859055  -0.00195506  0.62116260  1
  V  V51  1  0.62479384  0.25008538  0.87321604  1
  V  V52  1  0.37697700  0.87272624  0.49286047  1
  V  V53  1  0.75916628  0.75666884  0.51430919  1
  V  V54  1  0.12046924  0.11795511  0.49068332  1
  V  V55  1  0.87970133  0.88281766  0.51513218  1
  V  V56  1  0.25039766  0.87371447  0.12763904  1
  V  V57  1  -0.00238980  0.24330149  0.25122121  1
  V  V58  1  0.75071663  0.13214107  0.37597831  1
  V  V59  1  0.12547687  0.37568767  0.24912359  1
  V  V60  1  0.87766978  0.49847261  0.87459937  1
  V  V61  1  0.37502059  0.73936646  0.13271065  1
  V  V62  1  0.62995251  0.49510543  0.12813621  1
  V  V63  1  0.00049854  0.11827065  0.12406305  1
  V  V64  1  0.12075213  0.50516684  0.12615140  1
  V  V65  1  0.25639471  0.50500920  0.74940766  1
  V  V66  1  0.11922392  0.62663665  0.00089473  1
  V  V67  1  0.12361404  0.87641195  0.74834910  1
  V  V68  1  0.50222163  -0.00396360  0.49745122  1
  V  V69  1  0.12034107  0.75063607  0.87434283  1
  V  V70  1  0.11637448  0.25212811  0.87446555  1
  V  V71  1  0.49460651  0.12120968  0.63354107  1
  V  V72  1  0.37424183  0.37476074  0.49185099  1
  V  V73  1  -0.00026385  0.49935893  -0.00161396  1
  V  V74  1  0.49853415  0.73864501  0.25862147  1
  V  V75  1  0.87410123  0.76029899  0.10848157  1
  V  V76  1  0.37164163  0.24614363  0.63275865  1
  V  V77  1  0.62612771  0.37230002  0.74608819  1
  V  V78  1  0.49717280  0.50201331  0.00017218  1
  V  V79  1  0.37599455  0.00559111  0.87114683  1
  V  V80  1  0.12062474  0.37598810  0.75387571  1
  V  V81  1  0.37572283  0.87452020  0.00352610  1
  V  V82  1  0.00068254  0.49813149  0.49934395  1
  V  V83  1  0.87620402  0.50258777  0.37004189  1
  V  V84  1  0.62481017  0.75880245  0.37778658  1
  Zn  Zn85  1  0.75139459  0.62785831  0.87592598  1
  Zn  Zn86  1  0.87472693  0.88454361  -0.00354630  1
  Zn  Zn87  1  0.51340811  0.36290947  0.37807758  1
  Zn  Zn88  1  0.37241847  0.37599718  -0.00381904  1
  Zn  Zn89  1  0.86934504  0.62942646  0.74827040  1
  Zn  Zn90  1  0.61907512  0.13547158  0.49386126  1
  Zn  Zn91  1  0.49363825  0.24235393  0.75398625  1
  Zn  Zn92  1  -0.00711526  0.75565620  0.74694212  1
  Zn  Zn93  1  0.25054340  0.37249228  0.62148411  1
  Zn  Zn94  1  0.74961704  0.49811543  0.25139585  1
  Zn  Zn95  1  0.37519059  0.24999873  0.12458020  1
  Zn  Zn96  1  0.25439037  0.62971268  0.86986482  1
  Zn  Zn97  1  -0.00410166  0.87942898  0.38124766  1
  Zn  Zn98  1  0.86435436  0.37907525  0.50392018  1
  Zn  Zn99  1  0.50123957  0.62112901  0.13114330  1
  Zn  Zn100  1  0.25376796  0.12890984  0.86949550  1
  Zn  Zn101  1  0.72796988  0.26254767  0.49175555  1
  Zn  Zn102  1  0.25399105  0.24321440  0.49789083  1
  Zn  Zn103  1  0.62965863  -0.00445004  0.12534722  1
  Zn  Zn104  1  0.88246541  0.00205181  0.38367132  1
  Zn  Zn105  1  0.37782696  0.50756479  0.86874491  1
  Zn  Zn106  1  0.74543640  0.36786302  0.13405617  1
  Zn  Zn107  1  0.18711151  0.18594598  0.18734225  1
  Zn  Zn108  1  0.18662835  0.18593883  0.68254012  1
  Zn  Zn109  1  0.18472527  0.68546409  0.18883079  1
  Zn  Zn110  1  0.18228138  0.68639268  0.68607738  1
  Zn  Zn111  1  0.69294343  0.17788759  0.19057268  1
  Zn  Zn112  1  0.68422225  0.18456243  0.68318062  1
  Zn  Zn113  1  0.69105303  0.68698182  0.18565621  1
  Zn  Zn114  1  0.68682261  0.68377081  0.69319194  1
  Zn  Zn115  1  0.31794648  0.31653500  0.31065548  1
  Zn  Zn116  1  0.30811971  0.31718561  0.81070576  1
  Zn  Zn117  1  0.30997955  0.81044223  0.31318414  1
  Zn  Zn118  1  0.31050427  0.81652464  0.81390524  1
  Zn  Zn119  1  0.81138176  0.31495889  0.31110319  1
  Zn  Zn120  1  0.81497339  0.31498583  0.81080849  1
  Zn  Zn121  1  0.81389016  0.81674918  0.31759259  1
  Zn  Zn122  1  0.82028755  0.81575894  0.80282682  1
  Zn  Zn123  1  0.19126408  0.43586878  0.43539469  1
  Zn  Zn124  1  0.18613952  0.43735661  0.93441373  1
  Zn  Zn125  1  0.18652931  0.93779157  0.43579419  1
  Zn  Zn126  1  0.18888938  0.93676245  0.93538046  1
  Zn  Zn127  1  0.68347452  0.43544663  0.43127875  1
  Zn  Zn128  1  0.69003183  0.43602292  0.93873776  1
  Zn  Zn129  1  0.69450421  0.93691200  0.43564501  1
  Zn  Zn130  1  0.72552403  0.97030883  0.95941683  1
  Zn  Zn131  1  0.31262731  0.06239881  0.06349521  1
  Zn  Zn132  1  0.30803434  0.06549756  0.55836734  1
  Zn  Zn133  1  0.30991035  0.56311163  0.05910180  1
  Zn  Zn134  1  0.31198883  0.56209764  0.56464712  1
  Zn  Zn135  1  0.81590949  0.06263691  0.07113852  1
  Zn  Zn136  1  0.80921991  0.07035339  0.56049878  1
  Zn  Zn137  1  0.81402396  0.56794096  0.06611589  1
  Zn  Zn138  1  0.81029434  0.56028463  0.55754220  1
  Zn  Zn139  1  0.44040601  0.43331687  0.18396597  1
  Zn  Zn140  1  0.43826832  0.43190531  0.68173768  1
  Zn  Zn141  1  0.44147182  0.93261103  0.19148967  1
  Zn  Zn142  1  0.43852941  0.93352365  0.68546464  1
  Zn  Zn143  1  0.93568435  0.43619568  0.18790761  1
  Zn  Zn144  1  0.93786494  0.43487403  0.68837004  1
  Zn  Zn145  1  0.93747483  0.93091051  0.18162872  1
  Zn  Zn146  1  0.93425976  0.93439692  0.68842054  1
  Zn  Zn147  1  0.05795938  0.05898501  0.31278820  1
  Zn  Zn148  1  0.06468657  0.06631621  0.80737877  1
  Zn  Zn149  1  0.06742809  0.56194431  0.31271051  1
  Zn  Zn150  1  0.06263642  0.56171673  0.81491011  1
  Zn  Zn151  1  0.56344950  0.06351229  0.31555605  1
  Zn  Zn152  1  0.56773285  0.05892835  0.81263056  1
  Zn  Zn153  1  0.56821386  0.54615296  0.32428319  1
  Zn  Zn154  1  0.56339761  0.56232068  0.81425473  1
  Zn  Zn155  1  0.44128194  0.18676145  0.43903096  1
  Zn  Zn156  1  0.43611844  0.18768201  0.93858404  1
  Zn  Zn157  1  0.44183848  0.68288868  0.43981451  1
  Zn  Zn158  1  0.43458385  0.68234652  0.94020906  1
  Zn  Zn159  1  0.93674200  0.18065848  0.43966454  1
  Zn  Zn160  1  0.94109895  0.18558415  0.93656225  1
  Zn  Zn161  1  0.93633571  0.68921876  0.44011574  1
  Zn  Zn162  1  0.93731438  0.68847300  0.93592557  1
  Zn  Zn163  1  0.06214750  0.31320055  0.06213863  1
  Zn  Zn164  1  0.06272555  0.30884993  0.55825715  1
  Zn  Zn165  1  0.05226757  0.80885505  0.06490290  1
  Zn  Zn166  1  0.06217257  0.81190584  0.56126240  1
  Zn  Zn167  1  0.56027397  0.31241113  0.06350451  1
  Zn  Zn168  1  0.55630583  0.31259510  0.56544513  1
  Zn  Zn169  1  0.55821182  0.81072512  0.07150599  1
  Zn  Zn170  1  0.56164184  0.81226544  0.56354533  1
  O  O171  1  0.11982719  0.11937481  0.11675526  1
  O  O172  1  0.12507342  0.11082573  0.61832178  1
  O  O173  1  0.12734945  0.61275804  0.11794869  1
  O  O174  1  0.11789636  0.61230407  0.61946445  1
  O  O175  1  0.61316562  0.12399510  0.12045036  1
  O  O176  1  0.61410374  0.11388119  0.62165114  1
  O  O177  1  0.62410569  0.61873738  0.11179119  1
  O  O178  1  0.61774741  0.61711292  0.62440140  1
  O  O179  1  0.38233084  0.37140397  0.38794989  1
  O  O180  1  0.38287827  0.38028875  0.87552374  1
  O  O181  1  0.37041519  0.87959715  0.38736679  1
  O  O182  1  0.38053378  0.88306733  0.88286667  1
  O  O183  1  0.88869899  0.38358672  0.37243460  1
  O  O184  1  0.87242823  0.38686617  0.88327260  1
  O  O185  1  0.87564479  0.87604285  0.39255792  1
  O  O186  1  0.89398932  0.87551894  0.87270014  1
  O  O187  1  0.26043549  -0.00583077  0.36262318  1
  O  O188  1  0.25877168  -0.00047828  0.86544896  1
  O  O189  1  0.24478252  0.50853828  0.36281624  1
  O  O190  1  0.24852197  0.49901614  0.85890004  1
  O  O191  1  0.75599326  0.00454096  0.36586501  1
  O  O192  1  0.73586023  0.01808675  0.85438357  1
  O  O193  1  0.76311317  0.51276062  0.37548094  1
  O  O194  1  0.75803859  0.49970127  0.86810238  1
  O  O195  1  0.24272941  0.49377435  0.12887881  1
  O  O196  1  0.23995859  0.49818681  0.63338653  1
  O  O197  1  0.24702882  0.99282032  0.13346235  1
  O  O198  1  0.24725147  0.99280703  0.63072859  1
  O  O199  1  0.73798727  0.49956003  0.12121659  1
  O  O200  1  0.73750316  0.50366535  0.63084725  1
  O  O201  1  0.74373288  1.01154906  0.14795281  1
  O  O202  1  0.73697197  1.00952490  0.63450090  1
  O  O203  1  0.00692449  0.36669940  0.25550463  1
  O  O204  1  0.01225770  0.36742376  0.74804475  1
  O  O205  1  0.01318775  0.87645001  0.24977202  1
  O  O206  1  0.01169002  0.87711088  0.75721559  1
  O  O207  1  0.49449190  0.35443046  0.24664242  1
  O  O208  1  0.50637267  0.37504247  0.76113204  1
  O  O209  1  0.51439476  0.86252478  0.25033723  1
  O  O210  1  0.50897065  0.86853924  0.75567377  1
  O  O211  1  0.49487552  0.13174739  0.24393083  1
  O  O212  1  0.50180063  0.12002995  0.73792830  1
  O  O213  1  0.50889848  0.63642715  0.25205636  1
  O  O214  1  0.50512177  0.63294067  0.74232174  1
  O  O215  1  1.01005027  0.13594303  0.23874371  1
  O  O216  1  0.98758113  0.13325214  0.75372925  1
  O  O217  1  0.99323430  0.62839053  0.25580696  1
  O  O218  1  1.00218304  0.61997978  0.73524796  1
  O  O219  1  0.36042206  0.25020092  0.00095942  1
  O  O220  1  0.37563964  0.25617782  0.50687392  1
  O  O221  1  0.37049625  0.75613115  0.01043521  1
  O  O222  1  0.37201926  0.75658658  0.50757745  1
  O  O223  1  0.87351216  0.25647845  0.00339280  1
  O  O224  1  0.87802170  0.25081819  0.51466584  1
  O  O225  1  0.87455233  0.75726068  0.00282134  1
  O  O226  1  0.86313056  0.75380104  0.50211175  1
  O  O227  1  0.12808219  0.24275418  0.48900810  1
  O  O228  1  0.13153439  0.24577695  0.99227711  1
  O  O229  1  0.13340185  0.74488946  0.49541619  1
  O  O230  1  0.12621923  0.74389698  0.99595978  1
  O  O231  1  0.61422537  0.24991875  0.49634707  1
  O  O232  1  0.63053079  0.24665710  0.99457002  1
  O  O233  1  0.63151538  0.74815257  0.49521516  1
  O  O234  1  0.61837154  0.74074094  0.99657527  1
  O  O235  1  0.49694295  0.24116280  0.13250844  1
  O  O236  1  0.49048803  0.23810183  0.63037121  1
  O  O237  1  0.49076981  0.74508614  0.13640617  1
  O  O238  1  0.49219257  0.74539700  0.63551523  1
  O  O239  1  0.99799111  0.24292820  0.13166909  1
  O  O240  1  0.99729737  0.25095921  0.63548320  1
  O  O241  1  0.97745914  0.74925103  0.12495188  1
  O  O242  1  1.01016460  0.73107224  0.62649861  1
  O  O243  1  0.00436092  0.25425913  0.36756861  1
  O  O244  1  0.01192687  0.24566597  0.86467563  1
  O  O245  1  0.01496300  0.75271038  0.38366536  1
  O  O246  1  0.01267703  0.75609501  0.87386972  1
  O  O247  1  0.50097949  0.24637231  0.35791978  1
  O  O248  1  0.50395960  0.25629484  0.87348556  1
  O  O249  1  0.51179918  0.74532624  0.37228165  1
  O  O250  1  0.49175146  0.75366055  0.86331135  1
  O  O251  1  0.23098333  0.12749789  0.50218024  1
  O  O252  1  0.24064600  0.13344851  1.00007270  1
  O  O253  1  0.24375221  0.62770308  0.49516947  1
  O  O254  1  0.23642847  0.63176290  0.99938489  1
  O  O255  1  0.74243994  0.13234181  0.48998186  1
  O  O256  1  0.74488180  0.13384112  0.99070249  1
  O  O257  1  0.74761966  0.63428218  0.49174393  1
  O  O258  1  0.73704455  0.62156963  0.99657207  1
  O  O259  1  0.24811220  0.36859452  0.00593375  1
  O  O260  1  0.25909858  0.37124431  0.50107365  1
  O  O261  1  0.25397074  0.86853509  0.00778516  1
  O  O262  1  0.25604906  0.86902315  0.50479194  1
  O  O263  1  0.76202938  0.36796967  0.00406557  1
  O  O264  1  0.75245082  0.37324110  0.48817749  1
  O  O265  1  0.72949487  0.85718183  -0.01242601  1
  O  O266  1  0.75632222  0.86183984  0.50172111  1
  O  O267  1  0.12845972  0.49353960  0.24030679  1
  O  O268  1  0.12792235  0.49269239  0.74382545  1
  O  O269  1  0.13463523  0.99355756  0.24325422  1
  O  O270  1  0.13140705  0.99633811  0.73799956  1
  O  O271  1  0.62633424  0.51301943  0.22828572  1
  O  O272  1  0.63086733  0.49285203  0.74595541  1
  O  O273  1  0.61995779  0.98371027  0.25170020  1
  O  O274  1  0.62844776  0.98972052  0.74072601  1
  O  O275  1  0.37246196  0.00483898  0.25692652  1
  O  O276  1  0.36640799  -0.01124713  0.75840770  1
  O  O277  1  0.36471363  0.49767637  0.24264507  1
  O  O278  1  0.35851086  0.49300834  0.74379966  1
  O  O279  1  0.86539589  -0.00832091  0.25006146  1
  O  O280  1  0.86505582  0.01003333  0.74181560  1
  O  O281  1  0.88167141  0.51100222  0.26040917  1
  O  O282  1  0.86859393  0.49843303  0.75734612  1
  O  O283  1  0.11563596  0.36775868  0.37096464  1
  O  O284  1  0.12772556  0.36515066  0.86552820  1
  O  O285  1  0.12628475  0.86718427  0.36647241  1
  O  O286  1  0.11870843  0.87130109  0.86725434  1
  O  O287  1  0.59549695  0.43801073  0.36554129  1
  O  O288  1  0.61868695  0.36981918  0.86727472  1
  O  O289  1  0.62895063  0.86332484  0.36882286  1
  O  O290  1  0.61868646  0.86456526  0.86903614  1
  O  O291  1  0.38655393  0.12359245  0.13199439  1
  O  O292  1  0.38193605  0.13230719  0.61893890  1
  O  O293  1  0.37517150  0.63656516  0.12244989  1
  O  O294  1  0.38141379  0.63738715  0.62316260  1
  O  O295  1  0.88781036  0.13793291  0.11778849  1
  O  O296  1  0.87192995  0.13975269  0.63252776  1
  O  O297  1  0.87901522  0.62435510  0.14128833  1
  O  O298  1  0.89014893  0.61475248  0.62390289  1
  O  O299  1  0.24647492  0.25867594  0.11634074  1
  O  O300  1  0.25729306  0.25149181  0.62226023  1
  O  O301  1  0.25583326  0.75417689  0.12239264  1
  O  O302  1  0.25548936  0.75408121  0.62141544  1
  O  O303  1  0.76022099  0.24534969  0.12021313  1
  O  O304  1  0.75864413  0.25034412  0.62221748  1
  O  O305  1  0.77508230  0.73841936  0.13002689  1
  O  O306  1  0.74387481  0.74234218  0.61132821  1
  O  O307  1  0.23764939  0.25527698  0.37063513  1
  O  O308  1  0.24138219  0.24870225  0.88064273  1
  O  O309  1  0.23980494  0.74449967  0.38064026  1
  O  O310  1  0.23761982  0.75466375  0.88200175  1
  O  O311  1  0.75431336  0.23614684  0.37098048  1
  O  O312  1  0.74527765  0.24519866  0.87778595  1
  O  O313  1  0.74357123  0.74469214  0.38419859  1
  O  O314  1  0.74341348  0.74835705  0.86938558  1
  O  O315  1  0.01454579  0.13063789  0.00759325  1
  O  O316  1  0.02011525  0.13110937  0.50096896  1
  O  O317  1  0.01205417  0.61728096  -0.00353013  1
  O  O318  1  0.00568483  0.61863125  0.50879502  1
  O  O319  1  0.50418006  0.12058316  0.00751358  1
  O  O320  1  0.49925843  0.10915749  0.50791486  1
  O  O321  1  0.50899299  0.61606279  0.00377962  1
  O  O322  1  0.50773092  0.62790910  0.51945026  1
  O  O323  1  0.49305889  0.38707178  0.49760880  1
  O  O324  1  0.49920619  0.38077316  0.98903931  1
  O  O325  1  0.49007045  0.88603273  0.50665359  1
  O  O326  1  0.49732163  0.87868597  0.99628412  1
  O  O327  1  0.99795304  0.37971081  0.49089684  1
  O  O328  1  0.98899765  0.37998590  1.00081707  1
  O  O329  1  0.98387914  0.86932213  0.50390843  1
  O  O330  1  1.00275411  0.87999526  0.98585946  1
  O  O331  1  0.47862139  0.53770877  0.40044675  1
  O  O332  1  0.49963520  0.49214641  0.88185235  1
  O  O333  1  0.48777430  1.00062815  0.38216012  1
  O  O334  1  0.49533329  0.99350332  0.88031599  1
  O  O335  1  0.99888293  0.49214086  0.37948950  1
  O  O336  1  0.99520268  0.50053123  0.88816702  1
  O  O337  1  0.99651583  0.99437012  0.37526223  1
  O  O338  1  1.00694541  0.99150700  0.87299561  1
  O  O339  1  0.00503219  0.01151282  0.12896565  1
  O  O340  1  0.01322256  -0.00214584  0.62904918  1
  O  O341  1  0.00917925  0.49226012  0.11217930  1
  O  O342  1  0.00621011  0.50426410  0.61958049  1
  O  O343  1  0.50208228  0.00528373  0.11900763  1
  O  O344  1  0.50459915  0.00338141  0.61862977  1
  O  O345  1  0.50936730  0.49974251  0.11735149  1
  O  O346  1  0.50678808  0.50886548  0.62490998  1
  O  O347  1  0.24537865  0.38151338  0.24244253  1
  O  O348  1  0.23683401  0.38413448  0.74453362  1
  O  O349  1  0.24427998  0.88185511  0.24377313  1
  O  O350  1  0.23809000  0.88330766  0.74599893  1
  O  O351  1  0.75871953  0.38554040  0.24486311  1
  O  O352  1  0.74038893  0.38556581  0.75347728  1
  O  O353  1  0.73852367  0.88840167  0.25760146  1
  O  O354  1  0.74030145  0.88559607  0.75557014  1
  O  O355  1  0.25986788  0.11333620  0.24188693  1
  O  O356  1  0.24596637  0.11141577  0.75016558  1
  O  O357  1  0.24518672  0.61495373  0.25784452  1
  O  O358  1  0.24089120  0.60856520  0.74834207  1
  O  O359  1  0.74724763  0.10946107  0.26377879  1
  O  O360  1  0.75864281  0.12384472  0.75348927  1
  O  O361  1  0.75522604  0.62213444  0.26253536  1
  O  O362  1  0.74888380  0.60986960  0.75473414  1
  O  O363  1  0.37726751  0.11567910  0.36639011  1
  O  O364  1  0.37415171  0.10991708  0.87907581  1
  O  O365  1  0.35672798  0.63784492  0.37880866  1
  O  O366  1  0.36710952  0.62053213  0.87757150  1
  O  O367  1  0.85948108  0.11877700  0.38378530  1
  O  O368  1  0.86528724  0.13297178  0.86564781  1
  O  O369  1  0.87265796  0.62117879  0.36808605  1
  O  O370  1  0.87375132  0.61073300  0.87601215  1
  O  O371  1  0.13369191  0.38332927  0.12682743  1
  O  O372  1  0.12369000  0.38451961  0.62839908  1
  O  O373  1  0.12892939  0.87740465  0.13020382  1
  O  O374  1  0.12857568  0.88327411  0.62995750  1
  O  O375  1  0.62668442  0.39052656  0.11650216  1
  O  O376  1  0.61388748  0.38447534  0.63918993  1
  O  O377  1  0.62706211  0.87307944  0.14031679  1
  O  O378  1  0.62032966  0.88416413  0.63350867  1
  O  O379  1  0.11928698  0.25536327  0.25498856  1
  O  O380  1  0.11933227  0.25422716  0.75333302  1
  O  O381  1  0.13157219  0.75942734  0.25867628  1
  O  O382  1  0.12350729  0.75948144  0.75651979  1
  O  O383  1  0.61616460  0.24826589  0.24397043  1
  O  O384  1  0.62236990  0.25723133  0.75340461  1
  O  O385  1  0.62292460  0.75687162  0.25735919  1
  O  O386  1  0.61477819  0.75941924  0.74362435  1
  O  O387  1  0.37319581  0.23696397  0.24660010  1
  O  O388  1  0.37373698  0.25388149  0.73800906  1
  O  O389  1  0.38505465  0.75659105  0.24435548  1
  O  O390  1  0.38169273  0.76075808  0.73993257  1
  O  O391  1  0.88787332  0.25249371  0.24135739  1
  O  O392  1  0.88095491  0.24696932  0.74111342  1
  O  O393  1  0.87575857  0.73936309  0.25500955  1
  O  O394  1  0.88139475  0.74156371  0.74999937  1
  O  O395  1  0.38269894  0.48689586  0.51590001  1
  O  O396  1  0.38755546  0.49815187  1.00225433  1
  O  O397  1  0.37774530  0.99338770  0.49261575  1
  O  O398  1  0.38082667  0.99338125  0.99425340  1
  O  O399  1  0.88306147  0.50041389  0.48696799  1
  O  O400  1  0.88159667  0.49465879  0.99765449  1
  O  O401  1  0.86594027  0.98589141  0.50737097  1
  O  O402  1  0.83394671  0.99020976  0.99070917  1
  O  O403  1  0.13438588  0.00933795  0.00723934  1
  O  O404  1  0.12849033  0.00526053  0.51036391  1
  O  O405  1  0.11982708  0.50566663  0.00391738  1
  O  O406  1  0.12133184  0.50222833  0.50689784  1
  O  O407  1  0.62297779  0.00951621  0.00289601  1
  O  O408  1  0.61745929  -0.00629464  0.50649557  1
  O  O409  1  0.61781945  0.50627616  0.00488822  1
  O  O410  1  0.61597924  0.51025144  0.51229240  1
  O  O411  1  0.36169121  0.37195026  0.12049310  1
  O  O412  1  0.37568499  0.36159457  0.61552061  1
  O  O413  1  0.36999194  0.86791473  0.12189434  1
  O  O414  1  0.36943533  0.86707487  0.61502620  1
  O  O415  1  0.87809245  0.36172238  0.11696175  1
  O  O416  1  0.87781507  0.35967752  0.62490998  1
  O  O417  1  0.87182538  0.86683806  0.11538193  1
  O  O418  1  0.87391546  0.87119170  0.61541044  1
  O  O419  1  0.12438855  0.13120559  0.38082386  1
  O  O420  1  0.12893448  0.13104610  0.88152911  1
  O  O421  1  0.13166659  0.63138816  0.38116091  1
  O  O422  1  0.12854471  0.63410105  0.88129879  1
  O  O423  1  0.64220610  0.11397448  0.37883010  1
  O  O424  1  0.63038435  0.13440930  0.87783913  1
  O  O425  1  0.63528436  0.63253483  0.38268603  1
  O  O426  1  0.62583317  0.62151112  0.89036580  1
