# generated using pymatgen
data_V85Zn86O256
_symmetry_space_group_name_H-M   'P 1'
_cell_length_a   16.98272297
_cell_length_b   16.98440474
_cell_length_c   17.00670003
_cell_angle_alpha   89.83584323
_cell_angle_beta   90.04389688
_cell_angle_gamma   90.02463792
_symmetry_Int_Tables_number   1
_chemical_formula_structural   V85Zn86O256
_chemical_formula_sum   'V85 Zn86 O256'
_cell_volume   4905.41503254
_cell_formula_units_Z   1
loop_
 _symmetry_equiv_pos_site_id
 _symmetry_equiv_pos_as_xyz
  1  'x, y, z'
loop_
 _atom_site_type_symbol
 _atom_site_label
 _atom_site_symmetry_multiplicity
 _atom_site_fract_x
 _atom_site_fract_y
 _atom_site_fract_z
 _atom_site_occupancy
  V  V0  1  0.00835085  0.74698348  0.75644015  1
  V  V1  1  0.75050006  0.87301698  0.62520058  1
  V  V2  1  0.62453671  0.00941597  0.62716814  1
  V  V3  1  0.87250752  0.48479936  0.87927825  1
  V  V4  1  0.75106498  0.61100459  0.37944952  1
  V  V5  1  0.37237814  0.37088396  0.49711757  1
  V  V6  1  0.74558955  0.50207647  0.74513150  1
  V  V7  1  0.12171039  0.49641085  0.62902778  1
  V  V8  1  0.37104544  0.25037490  0.12527028  1
  V  V9  1  0.12544980  0.63310659  -0.00398488  1
  V  V10  1  0.24759953  0.25194715  -0.00311938  1
  V  V11  1  0.11703479  0.24723475  0.37981057  1
  V  V12  1  0.76282035  0.00568798  0.74897660  1
  V  V13  1  0.37602230  0.12726242  0.74804476  1
  V  V14  1  0.50445702  0.50770146  0.01087261  1
  V  V15  1  0.12268114  0.37623865  0.25340447  1
  V  V16  1  0.61846240  0.62281887  0.51009797  1
  V  V17  1  -0.00061563  0.75072072  0.25167348  1
  V  V18  1  0.37741950  0.51031796  0.86870866  1
  V  V19  1  0.75180274  0.49346828  0.23887449  1
  V  V20  1  0.02425077  0.37571393  0.86196988  1
  V  V21  1  0.12649487  0.87462361  0.24919980  1
  V  V22  1  0.76030426  0.87589370  0.13166021  1
  V  V23  1  0.24732796  0.12631159  0.38270418  1
  V  V24  1  0.50298785  0.00541924  -0.00084748  1
  V  V25  1  0.87813144  0.61589636  0.25647400  1
  V  V26  1  0.62443967  0.25486071  0.38028046  1
  V  V27  1  0.31155498  0.70610023  0.55217130  1
  V  V28  1  -0.00776387  0.37817815  0.37651454  1
  V  V29  1  0.37544474  0.37950788  -0.00169808  1
  V  V30  1  0.57281574  0.82114556  0.20642792  1
  V  V31  1  0.87700774  0.87680602  -0.00103791  1
  V  V32  1  0.50254664  0.38329383  0.87079968  1
  V  V33  1  0.00098945  0.24196967  0.75538001  1
  V  V34  1  0.00277875  0.00002431  -0.00016632  1
  V  V35  1  0.24803612  0.13421759  0.87134565  1
  V  V36  1  0.50019391  0.12881661  0.12753420  1
  V  V37  1  0.12361717  0.12986352  -0.00593644  1
  V  V38  1  0.00801865  0.86793237  0.87954187  1
  V  V39  1  0.01783504  0.00331010  0.50544801  1
  V  V40  1  0.37035690  0.87098640  0.00035800  1
  V  V41  1  0.24817441  0.63442809  0.87152927  1
  V  V42  1  0.50140413  0.00869005  0.50605385  1
  V  V43  1  0.87550458  0.74806365  0.62787252  1
  V  V44  1  0.75480039  0.36434666  0.62847823  1
  V  V45  1  0.74324777  -0.00254523  0.25594359  1
  V  V46  1  0.12629681  0.88059052  0.74549299  1
  V  V47  1  0.49899382  0.50573248  0.50739577  1
  V  V48  1  -0.01031782  0.49975077  0.49848087  1
  V  V49  1  0.24838766  0.37741420  0.12507055  1
  V  V50  1  0.50527660  0.87649636  0.37920427  1
  V  V51  1  0.24306038  0.37124161  0.63003612  1
  V  V52  1  0.00003662  0.87548447  0.37406520  1
  V  V53  1  0.12289617  0.50427445  0.12183091  1
  V  V54  1  0.87674165  0.00325168  0.37624291  1
  V  V55  1  0.62680244  0.87516615  0.74865196  1
  V  V56  1  0.62450487  0.37805918  0.23782109  1
  V  V57  1  0.62281711  0.62474682  0.01352009  1
  V  V58  1  0.37467862  0.49741584  0.36930984  1
  V  V59  1  0.63054388  0.75487420  0.37764865  1
  V  V60  1  0.25013116  0.00613267  0.25009375  1
  V  V61  1  0.12854275  0.75086691  0.37730414  1
  V  V62  1  0.25193811  0.50721163  0.24743383  1
  V  V63  1  0.62685407  0.74853791  0.87265183  1
  V  V64  1  0.37413045  0.87566810  0.50897487  1
  V  V65  1  0.25464391  0.63151391  0.37087872  1
  V  V66  1  0.75002207  0.12884464  0.37855789  1
  V  V67  1  0.37293673  0.00588487  0.87194217  1
  V  V68  1  0.50115927  0.87785817  0.87026834  1
  V  V69  1  0.75125281  0.74895876  -0.00051698  1
  V  V70  1  0.49475770  0.25436274  0.74368939  1
  V  V71  1  0.12468089  0.62812417  0.50142319  1
  V  V72  1  -0.00099397  0.62353493  0.62628344  1
  V  V73  1  0.87663634  0.87451069  0.49978411  1
  V  V74  1  0.25135498  0.50324380  0.75012627  1
  V  V75  1  0.87302898  0.62586454  0.75761191  1
  V  V76  1  0.37729802  0.00189997  0.37568111  1
  V  V77  1  0.00157493  0.13288749  0.62074653  1
  V  V78  1  0.12801850  0.00445687  0.12379450  1
  V  V79  1  0.75179988  0.74706096  0.50058939  1
  V  V80  1  0.00020990  0.49723394  -0.00329839  1
  V  V81  1  0.49074856  0.74032099  0.73814295  1
  V  V82  1  0.37116175  0.24452077  0.62304813  1
  V  V83  1  0.61863406  0.38650360  0.73606566  1
  V  V84  1  0.62726533  0.01065225  0.12559132  1
  Zn  Zn85  1  0.87539547  0.36707962  0.50473257  1
  Zn  Zn86  1  0.62728193  0.25085941  0.86560826  1
  Zn  Zn87  1  0.25669075  0.87084742  0.13248105  1
  Zn  Zn88  1  0.23978863  0.00881015  0.74163414  1
  Zn  Zn89  1  0.75438357  0.24294476  0.51126027  1
  Zn  Zn90  1  0.49970008  0.25239192  0.25125048  1
  Zn  Zn91  1  0.88139566  0.00793959  0.87163982  1
  Zn  Zn92  1  0.70263748  0.23005934  -0.00081704  1
  Zn  Zn93  1  0.74920457  0.61703348  0.88193978  1
  Zn  Zn94  1  0.49976605  0.37322942  0.37603713  1
  Zn  Zn95  1  0.75419817  0.13122729  0.87450825  1
  Zn  Zn96  1  0.44527279  0.67430203  0.19852440  1
  Zn  Zn97  1  0.37256816  0.12858619  0.25100025  1
  Zn  Zn98  1  0.24393286  0.24455589  0.50289010  1
  Zn  Zn99  1  0.24372317  0.87738658  0.61710976  1
  Zn  Zn100  1  0.82089011  0.31616230  0.06630185  1
  Zn  Zn101  1  0.87591913  0.74018893  0.12583764  1
  Zn  Zn102  1  -0.03835507  0.16741561  0.10444651  1
  Zn  Zn103  1  0.00278120  0.62426710  0.12772844  1
  Zn  Zn104  1  0.88552481  0.15037521  0.25312971  1
  Zn  Zn105  1  0.24813900  0.75092748  0.00031775  1
  Zn  Zn106  1  0.62248007  0.13068456  0.50604722  1
  Zn  Zn107  1  0.13820394  0.21203563  0.16729859  1
  Zn  Zn108  1  0.17435971  0.18763048  0.68748991  1
  Zn  Zn109  1  0.28805241  0.69699845  0.17996598  1
  Zn  Zn110  1  0.18623546  0.68704301  0.69059619  1
  Zn  Zn111  1  0.69733706  0.19654574  0.19526954  1
  Zn  Zn112  1  0.67922208  0.18190061  0.71145168  1
  Zn  Zn113  1  0.69655428  0.68071024  0.18650029  1
  Zn  Zn114  1  0.68541691  0.68660002  0.68927407  1
  Zn  Zn115  1  0.30506783  0.31135488  0.31099286  1
  Zn  Zn116  1  0.31075776  0.31828406  0.81217533  1
  Zn  Zn117  1  0.31835945  0.81622607  0.31777597  1
  Zn  Zn118  1  0.31386763  0.81461903  0.81239197  1
  Zn  Zn119  1  0.80983893  0.31560961  0.31776196  1
  Zn  Zn120  1  0.81571379  0.30645082  0.81061597  1
  Zn  Zn121  1  0.81452912  0.81138538  0.31127178  1
  Zn  Zn122  1  0.81590025  0.81563130  0.81509876  1
  Zn  Zn123  1  0.18489854  0.43811761  0.44037961  1
  Zn  Zn124  1  0.19079400  0.44336657  0.93776442  1
  Zn  Zn125  1  0.19334695  0.93355602  0.43505877  1
  Zn  Zn126  1  0.18758338  0.94132940  0.92852007  1
  Zn  Zn127  1  0.68295974  0.43551999  0.44576918  1
  Zn  Zn128  1  0.69061909  0.42851222  0.94380518  1
  Zn  Zn129  1  0.68774281  0.93852703  0.44248273  1
  Zn  Zn130  1  0.69152869  0.94704181  0.93906812  1
  Zn  Zn131  1  0.31234091  0.06380817  0.05991372  1
  Zn  Zn132  1  0.30747599  0.05787240  0.56468683  1
  Zn  Zn133  1  0.31753710  0.56645244  0.05889339  1
  Zn  Zn134  1  0.31298041  0.54622159  0.55981378  1
  Zn  Zn135  1  0.79289588  0.10847735  0.06790240  1
  Zn  Zn136  1  0.81776691  0.06427374  0.56464026  1
  Zn  Zn137  1  0.86251139  0.49960469  0.10473187  1
  Zn  Zn138  1  0.80999652  0.56062394  0.56723081  1
  Zn  Zn139  1  0.43886666  0.43671168  0.18840527  1
  Zn  Zn140  1  0.42863404  0.44068074  0.68377803  1
  Zn  Zn141  1  0.43237620  0.94213411  0.18498298  1
  Zn  Zn142  1  0.43803480  0.93816359  0.68665930  1
  Zn  Zn143  1  0.94539739  0.32756409  0.19091482  1
  Zn  Zn144  1  0.93304917  0.43562701  0.69235726  1
  Zn  Zn145  1  0.93521333  1.00805184  0.18509693  1
  Zn  Zn146  1  0.94301234  0.93547215  0.68392145  1
  Zn  Zn147  1  0.06183783  0.06701141  0.31243274  1
  Zn  Zn148  1  0.05925792  0.06440861  0.81259281  1
  Zn  Zn149  1  0.06547152  0.56138692  0.31495271  1
  Zn  Zn150  1  0.06470737  0.56129282  0.81254392  1
  Zn  Zn151  1  0.56445797  0.06639668  0.31264898  1
  Zn  Zn152  1  0.56264450  0.06596956  0.81021732  1
  Zn  Zn153  1  0.56866782  0.55510291  0.31738067  1
  Zn  Zn154  1  0.56426566  0.56827521  0.81418167  1
  Zn  Zn155  1  0.43672881  0.18759353  0.43608006  1
  Zn  Zn156  1  0.46954870  0.20564835  0.95052262  1
  Zn  Zn157  1  0.45967145  0.66902992  0.38567558  1
  Zn  Zn158  1  0.44022768  0.68874675  0.93222685  1
  Zn  Zn159  1  0.93538592  0.18831257  0.44463069  1
  Zn  Zn160  1  0.92558047  0.19391029  0.92906552  1
  Zn  Zn161  1  0.93648799  0.68529501  0.43642045  1
  Zn  Zn162  1  0.93670903  0.68440635  0.93950323  1
  Zn  Zn163  1  0.02626355  0.29957176  0.03900925  1
  Zn  Zn164  1  0.06007986  0.30999284  0.56316388  1
  Zn  Zn165  1  0.06992699  0.81072891  0.07056132  1
  Zn  Zn166  1  0.06052160  0.81250176  0.56312944  1
  Zn  Zn167  1  0.56572322  0.31670389  0.05663253  1
  Zn  Zn168  1  0.56107801  0.31493400  0.56277180  1
  Zn  Zn169  1  0.56274952  0.81963960  0.04536572  1
  Zn  Zn170  1  0.56174650  0.81397732  0.56191291  1
  O  O171  1  0.13310441  0.11138644  0.11252898  1
  O  O172  1  0.10332820  0.11590466  0.63294231  1
  O  O173  1  0.12420550  0.61092968  0.11372547  1
  O  O174  1  0.11788642  0.62073364  0.61943859  1
  O  O175  1  0.61577212  0.11508000  0.13246653  1
  O  O176  1  0.63006484  0.11219896  0.62796182  1
  O  O177  1  0.62454044  0.63264817  0.11259489  1
  O  O178  1  0.62877149  0.63024086  0.60893947  1
  O  O179  1  0.37149491  0.37779047  0.38224837  1
  O  O180  1  0.38235653  0.38917453  0.87753170  1
  O  O181  1  0.38764087  0.88359406  0.38391920  1
  O  O182  1  0.38165831  0.88756753  0.87759196  1
  O  O183  1  0.88999429  0.37573268  0.37897522  1
  O  O184  1  0.88245287  0.38469063  0.87236143  1
  O  O185  1  0.88143882  0.87815126  0.38255250  1
  O  O186  1  0.88773564  0.87555472  0.88383507  1
  O  O187  1  0.25535039  0.00669418  0.36957871  1
  O  O188  1  0.25904149  0.01132655  0.86611924  1
  O  O189  1  0.25305361  0.50677214  0.36859319  1
  O  O190  1  0.25831127  0.50650240  0.86619980  1
  O  O191  1  0.75300443  0.00475437  0.37230175  1
  O  O192  1  0.75200509  -0.00441205  0.85582895  1
  O  O193  1  0.74357809  0.50958138  0.37698430  1
  O  O194  1  0.75727345  0.49681443  0.87139576  1
  O  O195  1  0.24686492  0.49672140  0.13160300  1
  O  O196  1  0.24292915  0.49282926  0.63128047  1
  O  O197  1  0.24635295  0.99771698  0.13265374  1
  O  O198  1  0.25814335  0.98869503  0.63374695  1
  O  O199  1  0.74851789  0.50378168  0.14136512  1
  O  O200  1  0.75145222  0.49508787  0.64142738  1
  O  O201  1  0.73909627  0.99186836  0.13531675  1
  O  O202  1  0.74567570  0.99015669  0.63114555  1
  O  O203  1  0.01666543  0.38602949  0.26306616  1
  O  O204  1  0.00719370  0.38507660  0.76121330  1
  O  O205  1  0.00785047  0.86596400  0.25997564  1
  O  O206  1  0.00839443  0.86663632  0.75684674  1
  O  O207  1  0.51284528  0.37560280  0.25443366  1
  O  O208  1  0.50128443  0.37957808  0.75091175  1
  O  O209  1  0.50634546  0.88258198  0.25722657  1
  O  O210  1  0.51370980  0.87419064  0.75360296  1
  O  O211  1  0.49532559  0.12688109  0.23864680  1
  O  O212  1  0.48294411  0.13952403  0.75199799  1
  O  O213  1  0.50384780  0.63660286  0.28387743  1
  O  O214  1  0.50292426  0.64143796  0.75340276  1
  O  O215  1  0.98869395  0.10069196  0.23743193  1
  O  O216  1  0.99902602  0.13596777  0.74644258  1
  O  O217  1  0.99307311  0.63042104  0.25764076  1
  O  O218  1  0.99318741  0.63026630  0.74836897  1
  O  O219  1  0.37468551  0.25927722  0.01014937  1
  O  O220  1  0.37120847  0.25457775  0.50662371  1
  O  O221  1  0.37880551  0.76917038  -0.00917917  1
  O  O222  1  0.37637166  0.75941077  0.49378516  1
  O  O223  1  0.91760685  0.24885980  0.02467530  1
  O  O224  1  0.86698526  0.25348948  0.50092935  1
  O  O225  1  0.86907269  0.75687744  0.00428244  1
  O  O226  1  0.87119760  0.75266800  0.50739783  1
  O  O227  1  0.12755929  0.25555150  0.48374147  1
  O  O228  1  0.12714478  0.23499914  1.00138784  1
  O  O229  1  0.11453907  0.74414466  0.48643261  1
  O  O230  1  0.11873290  0.73531621  0.99820297  1
  O  O231  1  0.62845744  0.24888845  0.49582311  1
  O  O232  1  0.58450483  0.24158563  0.97594506  1
  O  O233  1  0.63196830  0.74604550  0.49393009  1
  O  O234  1  0.63054292  0.74812671  0.99107782  1
  O  O235  1  0.49063510  0.24300553  0.12614519  1
  O  O236  1  0.48517856  0.26021953  0.63466028  1
  O  O237  1  0.51662014  0.76681722  0.14249473  1
  O  O238  1  0.50637232  0.75424328  0.63981553  1
  O  O239  1  1.02957011  0.25297739  0.14244304  1
  O  O240  1  0.99787037  0.23785218  0.62631054  1
  O  O241  1  1.00047610  0.74617160  0.14047454  1
  O  O242  1  0.99345451  0.74230583  0.63333209  1
  O  O243  1  0.01179989  0.25751081  0.37855283  1
  O  O244  1  0.00469514  0.26628204  0.86533653  1
  O  O245  1  0.00301263  0.75453687  0.36925898  1
  O  O246  1  -0.00660363  0.75538200  0.86641747  1
  O  O247  1  0.50804704  0.25140505  0.37180642  1
  O  O248  1  0.48524252  0.26872875  0.85461596  1
  O  O249  1  0.51391972  0.77011553  0.38105594  1
  O  O250  1  0.51080101  0.75911835  0.86903624  1
  O  O251  1  0.25206239  0.12263831  0.48654892  1
  O  O252  1  0.24566936  0.13162675  0.99044787  1
  O  O253  1  0.24860860  0.63488197  0.49709514  1
  O  O254  1  0.24172705  0.62469080  0.98885908  1
  O  O255  1  0.74676523  0.12057271  0.49051660  1
  O  O256  1  0.72350310  0.11319292  0.98490951  1
  O  O257  1  0.74671470  0.62813732  0.49561497  1
  O  O258  1  0.74202837  0.64309966  0.99876816  1
  O  O259  1  0.25636197  0.37156529  0.00277001  1
  O  O260  1  0.25959618  0.37536987  0.50820605  1
  O  O261  1  0.26486147  0.87774309  -0.01139594  1
  O  O262  1  0.26519622  0.87476287  0.49856565  1
  O  O263  1  0.72578049  0.34657652  0.00815918  1
  O  O264  1  0.74786222  0.37799185  0.52069433  1
  O  O265  1  0.75776400  0.86920881  0.00576901  1
  O  O266  1  0.75647716  0.86764987  0.50672141  1
  O  O267  1  0.13278285  0.49887294  0.24252421  1
  O  O268  1  0.13084884  0.50577708  0.73426116  1
  O  O269  1  0.13193299  0.99727738  0.24173392  1
  O  O270  1  0.12146196  0.98348843  0.75499462  1
  O  O271  1  0.63496215  0.48652384  0.25638349  1
  O  O272  1  0.63321877  0.49768504  0.75635126  1
  O  O273  1  0.63586085  1.00216497  0.24553494  1
  O  O274  1  0.63483565  0.99057483  0.74258379  1
  O  O275  1  0.36747856  0.00142055  0.25766298  1
  O  O276  1  0.38086095  0.00990546  0.75921545  1
  O  O277  1  0.36750415  0.49222456  0.26164428  1
  O  O278  1  0.36497733  0.50198988  0.75701128  1
  O  O279  1  0.86033759  -0.01214119  0.26974921  1
  O  O280  1  0.86384930  -0.01834578  0.75145554  1
  O  O281  1  0.85638777  0.50485910  0.25581560  1
  O  O282  1  0.86697194  0.50782295  0.76049605  1
  O  O283  1  0.12120383  0.36880106  0.37173929  1
  O  O284  1  0.12244691  0.38254190  0.86791198  1
  O  O285  1  0.12087945  0.86772806  0.37072044  1
  O  O286  1  0.11389753  0.87324615  0.86751213  1
  O  O287  1  0.62470374  0.36401066  0.37430278  1
  O  O288  1  0.60927936  0.37960317  0.86207404  1
  O  O289  1  0.62343162  0.86486487  0.37991152  1
  O  O290  1  0.62243941  0.86958850  0.86841777  1
  O  O291  1  0.37965001  0.13381287  0.12597389  1
  O  O292  1  0.36760371  0.13801988  0.63068785  1
  O  O293  1  0.36943725  0.63240319  0.12864322  1
  O  O294  1  0.36235511  0.64015125  0.60545131  1
  O  O295  1  0.87724792  0.09843253  0.13549970  1
  O  O296  1  0.90325919  0.10248991  0.62728179  1
  O  O297  1  0.88258936  0.61691322  0.14374357  1
  O  O298  1  0.87944826  0.62676560  0.63885921  1
  O  O299  1  0.25119586  0.25802991  0.11712964  1
  O  O300  1  0.25054893  0.25592817  0.62378778  1
  O  O301  1  0.23017488  0.76286000  0.11220307  1
  O  O302  1  0.25090012  0.75539118  0.62039959  1
  O  O303  1  0.75608509  0.22250494  0.10577587  1
  O  O304  1  0.74090906  0.26317985  0.63464364  1
  O  O305  1  0.75293743  0.75864417  0.11873162  1
  O  O306  1  0.75636014  0.75389757  0.62144632  1
  O  O307  1  0.24245913  0.24160869  0.37898330  1
  O  O308  1  0.25700181  0.24265418  0.88116919  1
  O  O309  1  0.24055970  0.74236945  0.37232995  1
  O  O310  1  0.25511939  0.73725206  0.87664996  1
  O  O311  1  0.74186715  0.24266203  0.37963924  1
  O  O312  1  0.74450772  0.25028255  0.87294667  1
  O  O313  1  0.74625494  0.74521664  0.38193800  1
  O  O314  1  0.74300454  0.75383389  0.88285458  1
  O  O315  1  0.01029625  0.11293573  -0.00095609  1
  O  O316  1  0.00220994  0.11217796  0.50685659  1
  O  O317  1  0.00925037  0.61461730  -0.00335401  1
  O  O318  1  0.00362331  0.61780036  0.50539318  1
  O  O319  1  0.49171749  0.11135159  0.01320766  1
  O  O320  1  0.50172258  0.11217350  0.49650794  1
  O  O321  1  0.50703191  0.61591160  -0.00541217  1
  O  O322  1  0.50879524  0.61814960  0.48552855  1
  O  O323  1  0.48532825  0.38034343  0.50028131  1
  O  O324  1  0.49616499  0.39041935  0.98919256  1
  O  O325  1  0.49765228  0.88610350  0.49413390  1
  O  O326  1  0.48847070  0.88728289  0.99110476  1
  O  O327  1  0.99962920  0.38375511  0.49556266  1
  O  O328  1  1.01262194  0.39178647  0.97814385  1
  O  O329  1  0.99656154  0.88250656  0.49298601  1
  O  O330  1  0.99745975  0.87293851  0.99471500  1
  O  O331  1  0.48803136  0.49324898  0.38343160  1
  O  O332  1  0.49243376  0.49945671  0.87681144  1
  O  O333  1  0.50107873  0.99352264  0.38178401  1
  O  O334  1  0.49768199  1.00095310  0.88108147  1
  O  O335  1  1.01095070  0.49123244  0.38907475  1
  O  O336  1  0.99552229  0.49309636  0.87591302  1
  O  O337  1  0.99303397  0.99613493  0.38447608  1
  O  O338  1  1.00246323  0.98979549  0.88566760  1
  O  O339  1  0.01445111  -0.01301391  0.10666407  1
  O  O340  1  0.00486783  -0.00947570  0.60601456  1
  O  O341  1  0.01109810  0.50247307  0.11017286  1
  O  O342  1  0.00543346  0.50356063  0.62151761  1
  O  O343  1  0.50542754  0.00649058  0.11951412  1
  O  O344  1  0.51170446  -0.00448590  0.61754833  1
  O  O345  1  0.49544426  0.49859885  0.10897227  1
  O  O346  1  0.48143949  0.50390060  0.60605621  1
  O  O347  1  0.24177871  0.38919123  0.24855023  1
  O  O348  1  0.25237125  0.38887260  0.74109187  1
  O  O349  1  0.24327004  0.88903871  0.25553165  1
  O  O350  1  0.23120972  0.87089292  0.75570355  1
  O  O351  1  0.73858791  0.38668328  0.25583363  1
  O  O352  1  0.73957785  0.38236446  0.74225745  1
  O  O353  1  0.75140433  0.88099169  0.24180140  1
  O  O354  1  0.74118767  0.87513437  0.74408962  1
  O  O355  1  0.25029550  0.11190407  0.26175404  1
  O  O356  1  0.25651224  0.12975942  0.75540144  1
  O  O357  1  0.24554087  0.61328750  0.25863759  1
  O  O358  1  0.24448360  0.61395891  0.75684621  1
  O  O359  1  0.75201602  0.11609877  0.26644872  1
  O  O360  1  0.76620408  0.10424540  0.73396279  1
  O  O361  1  0.75393474  0.61393995  0.25971261  1
  O  O362  1  0.75607150  0.61955488  0.75485178  1
  O  O363  1  0.36695505  0.12005888  0.37196078  1
  O  O364  1  0.36716255  0.12084044  0.86690168  1
  O  O365  1  0.35949285  0.61214746  0.38240003  1
  O  O366  1  0.36663632  0.61591111  0.88025011  1
  O  O367  1  0.86899941  0.11736610  0.37434859  1
  O  O368  1  0.87015970  0.12007012  0.87297804  1
  O  O369  1  0.86398496  0.62947117  0.36616915  1
  O  O370  1  0.87257979  0.61964160  0.86569096  1
  O  O371  1  0.13391438  0.38873672  0.13662490  1
  O  O372  1  0.13552638  0.38281960  0.61621671  1
  O  O373  1  0.12862157  0.88815570  0.13362236  1
  O  O374  1  0.12336104  0.86752278  0.64177360  1
  O  O375  1  0.61874080  0.37270824  0.13981151  1
  O  O376  1  0.62997648  0.38177554  0.63234396  1
  O  O377  1  0.62660947  0.87724266  0.13402610  1
  O  O378  1  0.63209177  0.88062562  0.63221898  1
  O  O379  1  0.13671563  0.26647023  0.26749560  1
  O  O380  1  0.10171100  0.25988570  0.73888468  1
  O  O381  1  0.11384416  0.75302433  0.26655169  1
  O  O382  1  0.11213298  0.75405725  0.75010341  1
  O  O383  1  0.62693138  0.26370881  0.25822248  1
  O  O384  1  0.60711180  0.27026034  0.74310176  1
  O  O385  1  0.63448737  0.75490781  0.25774584  1
  O  O386  1  0.62230913  0.75748519  0.75705528  1
  O  O387  1  0.37301689  0.25253568  0.23620996  1
  O  O388  1  0.37375463  0.24708635  0.74071412  1
  O  O389  1  0.36606958  0.74758377  0.24719453  1
  O  O390  1  0.39266685  0.75900450  0.75334890  1
  O  O391  1  0.87203198  0.26012696  0.24505232  1
  O  O392  1  0.90279128  0.27176318  0.74560023  1
  O  O393  1  0.88321697  0.74044723  0.24885723  1
  O  O394  1  0.88142582  0.74292815  0.74738473  1
  O  O395  1  0.37552747  0.48911458  0.48613695  1
  O  O396  1  0.38478198  0.49743096  0.99059042  1
  O  O397  1  0.38443712  0.99462504  0.49489736  1
  O  O398  1  0.38030886  0.99659349  0.98706328  1
  O  O399  1  0.88752238  0.49892948  0.50659758  1
  O  O400  1  0.88914467  0.51012356  0.98887073  1
  O  O401  1  0.87743321  0.99258628  0.48854082  1
  O  O402  1  0.88741032  0.98314703  0.99780061  1
  O  O403  1  0.12402489  0.00573325  0.00369352  1
  O  O404  1  0.11498528  -0.00398812  0.49128886  1
  O  O405  1  0.12285000  0.50653923  0.00580451  1
  O  O406  1  0.12108150  0.50848485  0.51231341  1
  O  O407  1  0.61265079  -0.01426476  0.01441355  1
  O  O408  1  0.61874507  0.00123721  0.51098122  1
  O  O409  1  0.61219934  0.51067606  -0.00777830  1
  O  O410  1  0.61141789  0.50964374  0.49616272  1
  O  O411  1  0.36880381  0.37049731  0.11985908  1
  O  O412  1  0.36121259  0.36599585  0.61853708  1
  O  O413  1  0.37347471  0.88481478  0.10435335  1
  O  O414  1  0.38031377  0.87425005  0.61116784  1
  O  O415  1  0.88722670  0.39028448  0.11732175  1
  O  O416  1  0.85743586  0.38024865  0.62734512  1
  O  O417  1  0.86400314  0.87541668  0.11828630  1
  O  O418  1  0.87161909  0.86711150  0.61880347  1
  O  O419  1  0.12991460  0.14011930  0.36964781  1
  O  O420  1  0.13746688  0.11886367  0.88066324  1
  O  O421  1  0.13687813  0.62964604  0.38229577  1
  O  O422  1  0.13625662  0.61612726  0.88376931  1
  O  O423  1  0.63158902  0.13756242  0.37678552  1
  O  O424  1  0.64226416  0.14082162  0.82223764  1
  O  O425  1  0.63739855  0.63815126  0.38433969  1
  O  O426  1  0.62879578  0.63924143  0.88203256  1
