# generated using pymatgen
data_V85Zn86O256
_symmetry_space_group_name_H-M   'P 1'
_cell_length_a   16.97440198
_cell_length_b   16.96384688
_cell_length_c   16.96817988
_cell_angle_alpha   90.03417814
_cell_angle_beta   89.98698096
_cell_angle_gamma   89.96874343
_symmetry_Int_Tables_number   1
_chemical_formula_structural   V85Zn86O256
_chemical_formula_sum   'V85 Zn86 O256'
_cell_volume   4886.00528930
_cell_formula_units_Z   1
loop_
 _symmetry_equiv_pos_site_id
 _symmetry_equiv_pos_as_xyz
  1  'x, y, z'
loop_
 _atom_site_type_symbol
 _atom_site_label
 _atom_site_symmetry_multiplicity
 _atom_site_fract_x
 _atom_site_fract_y
 _atom_site_fract_z
 _atom_site_occupancy
  V  V0  1  0.87921744  0.22992536  0.62581689  1
  V  V1  1  0.00107329  0.23565980  0.74707108  1
  V  V2  1  0.37377927  0.74927783  0.12451993  1
  V  V3  1  0.12122025  0.87596975  0.25048524  1
  V  V4  1  0.62327310  0.62538955  0.50116345  1
  V  V5  1  0.24856895  0.25159360  -0.00096311  1
  V  V6  1  0.75031887  0.50478416  0.76431674  1
  V  V7  1  0.61730006  0.75819991  0.37511914  1
  V  V8  1  0.24605310  0.86911605  0.12539051  1
  V  V9  1  0.25571189  -0.01385611  0.75462495  1
  V  V10  1  0.12038266  0.13365121  0.50940294  1
  V  V11  1  0.24261156  0.13297308  0.37785280  1
  V  V12  1  0.00029670  0.13212776  0.12721841  1
  V  V13  1  0.37156088  0.12045711  0.75640229  1
  V  V14  1  0.12175097  0.13307458  0.00024729  1
  V  V15  1  0.49895682  0.12457934  0.12187716  1
  V  V16  1  -0.00673234  0.74592020  0.24253170  1
  V  V17  1  0.24810328  0.00352150  0.24884191  1
  V  V18  1  0.87630794  -0.00363279  0.86126475  1
  V  V19  1  0.75255931  0.87883384  0.63160032  1
  V  V20  1  0.00146381  0.00273536  0.51764409  1
  V  V21  1  0.62573746  0.24556233  0.87444838  1
  V  V22  1  0.75438884  0.24104737  0.00409599  1
  V  V23  1  0.75454728  0.50068924  0.25827322  1
  V  V24  1  0.63282762  0.37669161  0.24818513  1
  V  V25  1  0.75430480  0.37359765  0.62682888  1
  V  V26  1  0.87698992  0.00194084  0.37758094  1
  V  V27  1  0.49642883  0.87661451  0.86748313  1
  V  V28  1  0.75213987  0.75158887  0.50267033  1
  V  V29  1  0.87912066  0.37554862  0.50479639  1
  V  V30  1  0.24844850  0.37971909  0.12715693  1
  V  V31  1  0.62515838  -0.00472620  0.12368793  1
  V  V32  1  0.50244413  0.37466155  0.87552114  1
  V  V33  1  0.62095571  0.50565535  0.12850292  1
  V  V34  1  0.62841613  0.24892054  0.37407515  1
  V  V35  1  0.50304988  0.24965883  0.24739337  1
  V  V36  1  0.49357359  -0.00203979  -0.00519913  1
  V  V37  1  0.62249583  0.12460518  0.49902828  1
  V  V38  1  0.36161756  0.74064352  0.61927175  1
  V  V39  1  0.87317170  0.25950209  0.12601161  1
  V  V40  1  0.62815696  0.87308313  0.74994202  1
  V  V41  1  0.62197228  0.00007493  0.63097408  1
  V  V42  1  0.87789986  0.12781315  0.25359983  1
  V  V43  1  0.62465231  0.50229231  0.62555372  1
  V  V44  1  0.62683739  0.62518236  0.00097659  1
  V  V45  1  0.00291455  0.25631065  0.26093476  1
  V  V46  1  0.37438148  0.87211392  -0.00741840  1
  V  V47  1  0.50020923  -0.01172629  0.49405651  1
  V  V48  1  0.37613385  0.37080380  0.50196148  1
  V  V49  1  0.76612536  0.41168108  0.09375073  1
  V  V50  1  0.87600400  0.87488960  0.50485211  1
  V  V51  1  0.37286713  0.12608911  0.25062128  1
  V  V52  1  0.50247219  0.73072117  0.73800044  1
  V  V53  1  0.37862937  0.37624209  -0.00051685  1
  V  V54  1  0.75459518  0.62881417  0.37702790  1
  V  V55  1  0.37682806  0.25126965  0.12421370  1
  V  V56  1  0.13076245  -0.01056965  0.63533125  1
  V  V57  1  0.37041038  0.24351325  0.62384107  1
  V  V58  1  0.49740649  0.24671386  0.74826579  1
  V  V59  1  0.12150162  0.25887893  0.87162550  1
  V  V60  1  0.37494064  0.50123912  0.37280075  1
  V  V61  1  -0.00053802  0.51567443  0.51017629  1
  V  V62  1  -0.00694612  0.00389169  0.00077833  1
  V  V63  1  0.12116298  0.51740917  0.62504582  1
  V  V64  1  0.75793522  0.75159728  0.00837932  1
  V  V65  1  0.62370280  0.37046699  0.74831144  1
  V  V66  1  0.23089652  0.61881588  0.88546950  1
  V  V67  1  0.50069514  0.49847168  0.50472828  1
  V  V68  1  0.24667732  0.37700249  0.63011876  1
  V  V69  1  0.38131124  0.51329021  0.87386887  1
  V  V70  1  -0.00032234  0.87730096  0.37843555  1
  V  V71  1  0.01571768  0.74926355  0.75516309  1
  V  V72  1  0.75101961  -0.00003858  0.25123135  1
  V  V73  1  0.25957856  0.50623593  0.74717641  1
  V  V74  1  0.75763595  0.11965482  0.86142842  1
  V  V75  1  0.11434003  0.51385258  0.12204312  1
  V  V76  1  0.01822404  0.37636686  0.38714171  1
  V  V77  1  0.87495695  0.62669344  0.23120841  1
  V  V78  1  0.37822804  -0.00781686  0.37398720  1
  V  V79  1  0.12568988  0.37653675  0.25409547  1
  V  V80  1  0.62464287  0.12012265  -0.00297186  1
  V  V81  1  0.50358919  0.37345966  0.37472287  1
  V  V82  1  0.63061679  0.74696190  0.87574126  1
  V  V83  1  0.19163373  0.79377495  -0.05719069  1
  V  V84  1  0.12644064  0.74396336  0.38759535  1
  Zn  Zn85  1  0.35927887  0.86203853  0.50276387  1
  Zn  Zn86  1  0.49359248  0.75874642  0.25440489  1
  Zn  Zn87  1  0.61842484  0.88000580  0.25631299  1
  Zn  Zn88  1  0.50416528  0.50260109  0.00136586  1
  Zn  Zn89  1  0.23717628  0.25973258  0.49653553  1
  Zn  Zn90  1  0.88150514  0.50195574  0.37863316  1
  Zn  Zn91  1  0.89034785  0.73829724  0.62783040  1
  Zn  Zn92  1  0.25036284  0.50860413  0.25093949  1
  Zn  Zn93  1  0.25571206  0.63948549  0.38509673  1
  Zn  Zn94  1  0.87243759  0.63076486  0.75586999  1
  Zn  Zn95  1  -0.03448088  0.43235618  -0.09366392  1
  Zn  Zn96  1  0.01167277  0.86597156  0.87943408  1
  Zn  Zn97  1  0.49924533  0.63182342  0.12926847  1
  Zn  Zn98  1  0.37627729  0.62855710  0.25300301  1
  Zn  Zn99  1  0.12348843  0.00306932  0.12469103  1
  Zn  Zn100  1  0.75083048  0.24923896  0.50057250  1
  Zn  Zn101  1  0.87832403  0.87128404  0.00489298  1
  Zn  Zn102  1  0.09914390  0.39552817  0.76774602  1
  Zn  Zn103  1  0.49535355  0.12117618  0.62300934  1
  Zn  Zn104  1  0.75916015  0.87213488  0.12958207  1
  Zn  Zn105  1  0.25155303  0.12647822  0.87402219  1
  Zn  Zn106  1  0.75203254  0.12645449  0.37655665  1
  Zn  Zn107  1  0.18602404  0.19440447  0.18784254  1
  Zn  Zn108  1  0.18764527  0.18412976  0.68670990  1
  Zn  Zn109  1  0.19088574  0.68832343  0.19920605  1
  Zn  Zn110  1  0.19340538  0.68461969  0.69674693  1
  Zn  Zn111  1  0.68826041  0.18152842  0.18763219  1
  Zn  Zn112  1  0.68849348  0.18613138  0.68405828  1
  Zn  Zn113  1  0.68784105  0.68800911  0.18968386  1
  Zn  Zn114  1  0.70400648  0.68389755  0.68227505  1
  Zn  Zn115  1  0.31264900  0.31471978  0.31463796  1
  Zn  Zn116  1  0.31116645  0.31498855  0.81267195  1
  Zn  Zn117  1  0.30815559  0.81358679  0.31155235  1
  Zn  Zn118  1  0.32150723  0.80089956  0.80414233  1
  Zn  Zn119  1  0.81821412  0.31753672  0.31760460  1
  Zn  Zn120  1  0.81537642  0.30299775  0.80313619  1
  Zn  Zn121  1  0.81172110  0.81394620  0.31258569  1
  Zn  Zn122  1  0.81873380  0.80492603  0.81924452  1
  Zn  Zn123  1  0.20324577  0.47062383  0.45465753  1
  Zn  Zn124  1  0.18742123  0.44272530  0.94298384  1
  Zn  Zn125  1  0.18441094  0.93993990  0.43661543  1
  Zn  Zn126  1  0.18788947  0.95811228  0.93835516  1
  Zn  Zn127  1  0.69072680  0.43606236  0.43929031  1
  Zn  Zn128  1  0.79127417  0.41509433  0.92695321  1
  Zn  Zn129  1  0.69019801  0.93927314  0.44052007  1
  Zn  Zn130  1  0.69087537  0.93447993  0.93508819  1
  Zn  Zn131  1  0.31061509  0.05957972  0.06151710  1
  Zn  Zn132  1  0.29348929  0.03074422  0.54518202  1
  Zn  Zn133  1  0.31312889  0.56161051  0.06134749  1
  Zn  Zn134  1  0.31380061  0.57163528  0.55977655  1
  Zn  Zn135  1  0.81441755  0.06447799  0.06621384  1
  Zn  Zn136  1  0.80412945  0.05615607  0.55900307  1
  Zn  Zn137  1  0.82483488  0.57815792  -0.04209576  1
  Zn  Zn138  1  0.81382961  0.56149230  0.56968509  1
  Zn  Zn139  1  0.43929382  0.43620059  0.18979349  1
  Zn  Zn140  1  0.43645510  0.43689405  0.68791394  1
  Zn  Zn141  1  0.43787179  0.93269196  0.18751518  1
  Zn  Zn142  1  0.43479110  0.93082537  0.68181820  1
  Zn  Zn143  1  0.94476238  0.49132036  0.05369930  1
  Zn  Zn144  1  0.94395722  0.43898266  0.71347199  1
  Zn  Zn145  1  0.93748575  0.93934016  0.18517740  1
  Zn  Zn146  1  0.94427700  0.92072320  0.69488759  1
  Zn  Zn147  1  0.06333956  0.06440511  0.31832235  1
  Zn  Zn148  1  0.06373827  0.06335997  0.81422937  1
  Zn  Zn149  1  0.05974293  0.56033603  0.31082615  1
  Zn  Zn150  1  0.06004909  0.56750603  0.80090290  1
  Zn  Zn151  1  0.56097465  0.06227047  0.31106589  1
  Zn  Zn152  1  0.56003550  0.06057930  0.81117602  1
  Zn  Zn153  1  0.55885288  0.56941994  0.31244834  1
  Zn  Zn154  1  0.57318977  0.55941389  0.81684881  1
  Zn  Zn155  1  0.43636229  0.18283611  0.43715839  1
  Zn  Zn156  1  0.43661547  0.18819675  0.93640272  1
  Zn  Zn157  1  0.43915302  0.68456825  0.44553559  1
  Zn  Zn158  1  0.44577935  0.69298344  0.94072146  1
  Zn  Zn159  1  0.94078229  0.18919031  0.44220827  1
  Zn  Zn160  1  0.93651710  0.19603954  0.93255581  1
  Zn  Zn161  1  0.93771747  0.69270280  0.43595897  1
  Zn  Zn162  1  0.95101620  0.66343102  0.91451293  1
  Zn  Zn163  1  0.05683787  0.32679344  0.06129923  1
  Zn  Zn164  1  0.05176814  0.31968035  0.58829422  1
  Zn  Zn165  1  0.05458900  0.81543042  0.06542495  1
  Zn  Zn166  1  0.06532474  0.81118184  0.56906334  1
  Zn  Zn167  1  0.57329481  0.31690177  0.06101914  1
  Zn  Zn168  1  0.56217999  0.31026990  0.56362089  1
  Zn  Zn169  1  0.56061841  0.81361182  0.06240828  1
  Zn  Zn170  1  0.56032269  0.81319772  0.56249810  1
  O  O171  1  0.11905343  0.13080755  0.11532126  1
  O  O172  1  0.12792306  0.11480275  0.61282889  1
  O  O173  1  0.13658238  0.61092322  0.13528981  1
  O  O174  1  0.13425934  0.61469895  0.62314859  1
  O  O175  1  0.61905161  0.11465210  0.11795600  1
  O  O176  1  0.62361527  0.11675387  0.61745814  1
  O  O177  1  0.62217851  0.62036075  0.12340947  1
  O  O178  1  0.63349060  0.60927059  0.61537103  1
  O  O179  1  0.38894777  0.37309947  0.38178141  1
  O  O180  1  0.38691935  0.37828219  0.88032314  1
  O  O181  1  0.36771595  0.88987356  0.37697138  1
  O  O182  1  0.38400521  0.86565046  0.88000791  1
  O  O183  1  0.88410303  0.37748488  0.39316568  1
  O  O184  1  0.87298339  0.37025851  0.86934063  1
  O  O185  1  0.88219568  0.88022964  0.38296096  1
  O  O186  1  0.87039239  0.89178092  0.88478985  1
  O  O187  1  0.25661328  0.01442997  0.36442662  1
  O  O188  1  0.24828613  0.00857427  0.85924099  1
  O  O189  1  0.27411055  0.47308363  0.36363419  1
  O  O190  1  0.25949936  0.50624007  0.87156188  1
  O  O191  1  0.75735810  0.00213112  0.36884528  1
  O  O192  1  0.76243120  0.01080051  0.87972746  1
  O  O193  1  0.74896473  0.51079978  0.37280809  1
  O  O194  1  0.73507092  0.49196080  0.86367814  1
  O  O195  1  0.25340460  0.48791822  0.13040395  1
  O  O196  1  0.25130605  0.49616731  0.63303349  1
  O  O197  1  0.24557954  0.98932871  0.12968965  1
  O  O198  1  0.23732383  1.00636189  0.64336762  1
  O  O199  1  0.73624579  0.50432738  0.14509373  1
  O  O200  1  0.74012263  0.48600047  0.63019207  1
  O  O201  1  0.74128485  1.00374682  0.13356445  1
  O  O202  1  0.73675888  0.98702419  0.62050313  1
  O  O203  1  0.01024565  0.36986984  0.26832883  1
  O  O204  1  0.01291302  0.34351534  0.70741610  1
  O  O205  1  0.00366109  0.87150372  0.25897020  1
  O  O206  1  0.00688682  0.86172964  0.76535003  1
  O  O207  1  0.51160232  0.36697723  0.25369936  1
  O  O208  1  0.50347036  0.36684707  0.75597493  1
  O  O209  1  0.50568775  0.87307947  0.25077181  1
  O  O210  1  0.51038934  0.87036576  0.75395985  1
  O  O211  1  0.49481445  0.13121347  0.24135538  1
  O  O212  1  0.49184236  0.12886648  0.74598077  1
  O  O213  1  0.49526225  0.63724024  0.24744732  1
  O  O214  1  0.51088761  0.63368468  0.75356676  1
  O  O215  1  0.99917810  0.13592724  0.24947529  1
  O  O216  1  1.00622028  0.13474895  0.74685201  1
  O  O217  1  0.98909391  0.63910662  0.25986724  1
  O  O218  1  0.99164317  0.64104683  0.75129528  1
  O  O219  1  0.36996555  0.25556547  0.00541456  1
  O  O220  1  0.37546028  0.25408020  0.50836167  1
  O  O221  1  0.37750004  0.76335624  0.00697866  1
  O  O222  1  0.37195250  0.74754669  0.50991537  1
  O  O223  1  0.86610975  0.24240050  0.01267477  1
  O  O224  1  0.87220416  0.25545140  0.51012290  1
  O  O225  1  0.85719620  0.74902231  -0.00239995  1
  O  O226  1  0.87061795  0.75760611  0.50715776  1
  O  O227  1  0.12019346  0.23663790  0.51368308  1
  O  O228  1  0.12681163  0.25012770  0.99653455  1
  O  O229  1  0.11759091  0.75483054  0.48593201  1
  O  O230  1  0.12891507  0.74853169  1.00420475  1
  O  O231  1  0.62597554  0.24300075  0.49195393  1
  O  O232  1  0.62911202  0.23694720  0.99372613  1
  O  O233  1  0.62896258  0.74236171  0.49327524  1
  O  O234  1  0.62542715  0.74604502  0.99304859  1
  O  O235  1  0.49919328  0.24513256  0.12737339  1
  O  O236  1  0.49152186  0.24857183  0.63279970  1
  O  O237  1  0.48660411  0.75382409  0.12579269  1
  O  O238  1  0.51372157  0.74177186  0.63746459  1
  O  O239  1  0.99040670  0.25186221  0.13696596  1
  O  O240  1  0.98282217  0.22960147  0.61924096  1
  O  O241  1  1.00064110  0.75341471  0.14414589  1
  O  O242  1  1.00135592  0.76013859  0.64317948  1
  O  O243  1  -0.00317110  0.25985637  0.36873627  1
  O  O244  1  0.00800646  0.25018496  0.86144512  1
  O  O245  1  0.00496496  0.76378904  0.37040724  1
  O  O246  1  0.00285304  0.74960215  0.86807615  1
  O  O247  1  0.51164507  0.25214325  0.36899972  1
  O  O248  1  0.50382593  0.25380171  0.86741586  1
  O  O249  1  0.51571315  0.74618701  0.38047384  1
  O  O250  1  0.50943055  0.75964476  0.86525434  1
  O  O251  1  0.23669141  0.12525926  0.49394035  1
  O  O252  1  0.24102894  0.13235123  1.00082796  1
  O  O253  1  0.24084838  0.57959011  0.47805118  1
  O  O254  1  0.25356013  0.62032811  0.98300592  1
  O  O255  1  0.73534683  0.12579592  0.49608228  1
  O  O256  1  0.74397181  0.12830446  0.99337736  1
  O  O257  1  0.74073126  0.62848764  0.49422794  1
  O  O258  1  0.73563762  0.64052100  1.00321558  1
  O  O259  1  0.25809869  0.37099847  0.00809012  1
  O  O260  1  0.26042411  0.37643772  0.50949961  1
  O  O261  1  0.24986998  0.86881832  0.00064134  1
  O  O262  1  0.26587649  0.92348263  0.50735858  1
  O  O263  1  0.73429001  0.35062857  0.00519847  1
  O  O264  1  0.75872063  0.37321579  0.50842704  1
  O  O265  1  0.74678440  0.86280240  0.00455740  1
  O  O266  1  0.75848614  0.87280831  0.50694647  1
  O  O267  1  0.12918773  0.48910411  0.24745832  1
  O  O268  1  0.14095099  0.50190850  0.73555605  1
  O  O269  1  0.12678084  0.99046123  0.25069740  1
  O  O270  1  0.13402718  1.00320893  0.74275552  1
  O  O271  1  0.63034408  0.49693829  0.25006823  1
  O  O272  1  0.62554604  0.48749962  0.74066231  1
  O  O273  1  0.63386692  1.00328326  0.24260761  1
  O  O274  1  0.61857934  0.99236429  0.73753992  1
  O  O275  1  0.36890626  0.00702538  0.25414657  1
  O  O276  1  0.36383997  0.00634139  0.73963538  1
  O  O277  1  0.38043440  0.50249053  0.25997443  1
  O  O278  1  0.37222449  0.49636175  0.76138420  1
  O  O279  1  0.87023758  0.00731409  0.25757204  1
  O  O280  1  0.88021248  -0.00483198  0.76323040  1
  O  O281  1  0.86102863  0.51203733  0.26000088  1
  O  O282  1  0.85219445  0.50273396  0.74511916  1
  O  O283  1  0.12004871  0.38144702  0.37598166  1
  O  O284  1  0.13422934  0.36375250  0.87582618  1
  O  O285  1  0.11686442  0.87346876  0.36954505  1
  O  O286  1  0.13734817  0.86316368  0.89169507  1
  O  O287  1  0.62197861  0.36708241  0.37113161  1
  O  O288  1  0.61105344  0.36231056  0.86855813  1
  O  O289  1  0.63072386  0.86073688  0.38034655  1
  O  O290  1  0.61854152  0.87084022  0.86652028  1
  O  O291  1  0.37848556  0.13114875  0.12925694  1
  O  O292  1  0.37353767  0.13757881  0.63269628  1
  O  O293  1  0.37184296  0.63980076  0.12263367  1
  O  O294  1  0.37961984  0.63861446  0.62073486  1
  O  O295  1  0.88221342  0.13493486  0.13539492  1
  O  O296  1  0.85928537  0.13360248  0.62064227  1
  O  O297  1  0.87319405  0.61939953  0.13554212  1
  O  O298  1  0.83046942  0.64160749  0.64405050  1
  O  O299  1  0.25499212  0.26119659  0.11879153  1
  O  O300  1  0.25620652  0.25840800  0.62396815  1
  O  O301  1  0.25289716  0.76366179  0.13143507  1
  O  O302  1  0.26273913  0.74738656  0.63330214  1
  O  O303  1  0.75853807  0.23826643  0.11686910  1
  O  O304  1  0.75632247  0.25940044  0.62477693  1
  O  O305  1  0.74135981  0.75453952  0.11270038  1
  O  O306  1  0.73642169  0.77014760  0.61525229  1
  O  O307  1  0.25517330  0.23777909  0.37953183  1
  O  O308  1  0.24398677  0.24832425  0.88332439  1
  O  O309  1  0.23203299  0.75606774  0.37657671  1
  O  O310  1  0.24821749  0.73587243  0.87364188  1
  O  O311  1  0.73922880  0.25021577  0.37570603  1
  O  O312  1  0.74744034  0.23517637  0.88036990  1
  O  O313  1  0.74424696  0.74607047  0.38419384  1
  O  O314  1  0.73380983  0.76156875  0.88630024  1
  O  O315  1  0.00548657  0.12680470  0.00502974  1
  O  O316  1  0.01250339  0.11437730  0.49384408  1
  O  O317  1  -0.05507199  0.55928678  -0.03857995  1
  O  O318  1  -0.01049603  0.61443462  0.50160720  1
  O  O319  1  0.50352012  0.11831267  0.00183956  1
  O  O320  1  0.51258830  0.12198535  0.50138636  1
  O  O321  1  0.51217815  0.62479654  0.00768525  1
  O  O322  1  0.51595017  0.61258252  0.49555267  1
  O  O323  1  0.49807344  0.37939871  0.49434897  1
  O  O324  1  0.49813152  0.37429669  0.99208963  1
  O  O325  1  0.49743406  0.88669207  0.49784386  1
  O  O326  1  0.49182938  0.87871790  0.99012851  1
  O  O327  1  0.99451332  0.37945948  0.50280643  1
  O  O328  1  0.98525858  0.39132435  1.00903280  1
  O  O329  1  0.99578838  0.88378700  0.49612740  1
  O  O330  1  1.00003533  0.88848993  0.99598979  1
  O  O331  1  0.49676361  0.49265029  0.38376809  1
  O  O332  1  0.49778214  0.49023353  0.87627745  1
  O  O333  1  0.49140054  1.00531453  0.38063422  1
  O  O334  1  0.50355197  0.98556820  0.87932789  1
  O  O335  1  1.00112617  0.49293886  0.39006975  1
  O  O336  1  1.00975903  0.46629721  0.80997966  1
  O  O337  1  0.99659303  0.99010711  0.38234481  1
  O  O338  1  0.98882695  1.00278722  0.88154493  1
  O  O339  1  0.00292653  0.01419461  0.11903729  1
  O  O340  1  0.00722747  -0.00522848  0.62094669  1
  O  O341  1  0.01514930  0.50827262  0.14048604  1
  O  O342  1  0.01441703  0.50162255  0.62743735  1
  O  O343  1  0.50529219  0.00620647  0.11674364  1
  O  O344  1  0.50620356  0.00078230  0.61437083  1
  O  O345  1  0.51244113  0.49851215  0.12675972  1
  O  O346  1  0.50889534  0.49027612  0.61288290  1
  O  O347  1  0.24230360  0.36973884  0.24168112  1
  O  O348  1  0.25419941  0.38878406  0.74436680  1
  O  O349  1  0.23960005  0.88209733  0.24284468  1
  O  O350  1  0.25960922  0.88747947  0.75734414  1
  O  O351  1  0.74618740  0.38769133  0.25966730  1
  O  O352  1  0.74142316  0.37729977  0.74278002  1
  O  O353  1  0.74605409  0.88867745  0.25057488  1
  O  O354  1  0.73627222  0.87079536  0.74527083  1
  O  O355  1  0.25098981  0.12386776  0.25443469  1
  O  O356  1  0.25915292  0.12034933  0.75212370  1
  O  O357  1  0.25748477  0.62365112  0.26612987  1
  O  O358  1  0.25291508  0.61290732  0.76756740  1
  O  O359  1  0.75694082  0.11453425  0.25390647  1
  O  O360  1  0.74571886  0.12514939  0.76356571  1
  O  O361  1  0.75632395  0.62362755  0.25935841  1
  O  O362  1  0.72477222  0.60246826  0.75827964  1
  O  O363  1  0.36804412  0.12135945  0.36531648  1
  O  O364  1  0.37547696  0.12837213  0.86025232  1
  O  O365  1  0.37821750  0.61246645  0.37857550  1
  O  O366  1  0.38228787  0.61382833  0.88214799  1
  O  O367  1  0.87555477  0.12090788  0.37149120  1
  O  O368  1  0.86377669  0.11689641  0.87623205  1
  O  O369  1  0.86173571  0.62624679  0.37737663  1
  O  O370  1  0.84858763  0.64005767  0.86643451  1
  O  O371  1  0.13335936  0.38097324  0.13645967  1
  O  O372  1  0.14345220  0.38198583  0.62482018  1
  O  O373  1  0.12858296  0.87812137  0.13348487  1
  O  O374  1  0.12879533  0.89177362  0.62266885  1
  O  O375  1  0.64241454  0.38632917  0.12884986  1
  O  O376  1  0.63236425  0.37974767  0.62702333  1
  O  O377  1  0.62623514  0.88959278  0.12460626  1
  O  O378  1  0.62707560  0.88286784  0.63130408  1
  O  O379  1  0.11494466  0.26414876  0.24770854  1
  O  O380  1  0.12170701  0.24562158  0.76056650  1
  O  O381  1  0.11392025  0.76246776  0.25802604  1
  O  O382  1  0.11580110  0.74279288  0.75335601  1
  O  O383  1  0.62391789  0.25351430  0.25522311  1
  O  O384  1  0.61853528  0.25098781  0.75384728  1
  O  O385  1  0.62967600  0.75266962  0.26825641  1
  O  O386  1  0.62138384  0.75442375  0.75654408  1
  O  O387  1  0.38231034  0.24636678  0.24322551  1
  O  O388  1  0.37827210  0.24387075  0.74407103  1
  O  O389  1  0.37283178  0.75365682  0.23979144  1
  O  O390  1  0.39537743  0.74548531  0.73819903  1
  O  O391  1  0.88221171  0.24774341  0.24759913  1
  O  O392  1  0.88310570  0.24494245  0.73282845  1
  O  O393  1  0.88518331  0.74408628  0.25643747  1
  O  O394  1  0.88339650  0.75565539  0.74555437  1
  O  O395  1  0.38780976  0.49007325  0.49529803  1
  O  O396  1  0.38123039  0.49141462  0.99338230  1
  O  O397  1  0.39199770  1.01820223  0.48563451  1
  O  O398  1  0.37833128  0.98423494  1.00365357  1
  O  O399  1  0.88221227  0.49261809  0.50632735  1
  O  O400  1  0.82263879  0.47654555  1.02392847  1
  O  O401  1  0.88336043  0.99681529  0.49674374  1
  O  O402  1  0.88722764  1.00907940  0.99590219  1
  O  O403  1  0.11251835  0.01526216  0.00142552  1
  O  O404  1  0.11643951  0.00787053  0.51200493  1
  O  O405  1  0.12685083  0.49587224  0.02215261  1
  O  O406  1  0.11151288  0.49280092  0.51923950  1
  O  O407  1  0.61946304  0.00342121  0.00480598  1
  O  O408  1  0.61771992  0.00615263  0.50464075  1
  O  O409  1  0.62634923  0.51188354  0.01625005  1
  O  O410  1  0.62080914  0.50362062  0.50553818  1
  O  O411  1  0.37080417  0.36943582  0.12065053  1
  O  O412  1  0.36900431  0.36453819  0.62197254  1
  O  O413  1  0.36367774  0.86917164  0.11664014  1
  O  O414  1  0.38922907  0.84845781  0.62018495  1
  O  O415  1  0.85305906  0.36242544  0.13492974  1
  O  O416  1  0.86793161  0.36871560  0.61835838  1
  O  O417  1  0.87151014  0.88385447  0.11759273  1
  O  O418  1  0.86534486  0.87928381  0.62086392  1
  O  O419  1  0.13278992  0.12091436  0.39021295  1
  O  O420  1  0.12495267  0.13649769  0.88865705  1
  O  O421  1  0.11828413  0.64359720  0.37016841  1
  O  O422  1  0.13209282  0.61030577  0.88186430  1
  O  O423  1  0.62560322  0.13310657  0.38013915  1
  O  O424  1  0.63391802  0.12479912  0.87870713  1
  O  O425  1  0.63570903  0.63356263  0.38201584  1
  O  O426  1  0.61931654  0.63591537  0.88809381  1
