# generated using pymatgen
data_V85Zn86O256
_symmetry_space_group_name_H-M   'P 1'
_cell_length_a   16.93192276
_cell_length_b   16.93073373
_cell_length_c   16.94172495
_cell_angle_alpha   89.97953847
_cell_angle_beta   90.00836653
_cell_angle_gamma   90.02212935
_symmetry_Int_Tables_number   1
_chemical_formula_structural   V85Zn86O256
_chemical_formula_sum   'V85 Zn86 O256'
_cell_volume   4856.68146439
_cell_formula_units_Z   1
loop_
 _symmetry_equiv_pos_site_id
 _symmetry_equiv_pos_as_xyz
  1  'x, y, z'
loop_
 _atom_site_type_symbol
 _atom_site_label
 _atom_site_symmetry_multiplicity
 _atom_site_fract_x
 _atom_site_fract_y
 _atom_site_fract_z
 _atom_site_occupancy
  V  V0  1  0.13664264  0.49170156  0.12330472  1
  V  V1  1  0.26274251  0.24319880  0.49156554  1
  V  V2  1  0.62748458  0.23613066  0.37916428  1
  V  V3  1  0.75161038  0.50200896  0.25345510  1
  V  V4  1  0.24128282  0.88230030  0.62463735  1
  V  V5  1  0.49842694  0.49926830  -0.00026853  1
  V  V6  1  0.49811450  0.00326213  0.00793716  1
  V  V7  1  0.36789173  0.49314335  0.37357039  1
  V  V8  1  0.24594074  0.74946735  -0.00246092  1
  V  V9  1  0.37828790  0.12339603  0.23891748  1
  V  V10  1  0.61694765  0.75498509  0.87142806  1
  V  V11  1  0.37877685  -0.00043666  0.87401467  1
  V  V12  1  0.37501497  0.62495478  0.74931546  1
  V  V13  1  0.62427692  0.37481779  0.25365486  1
  V  V14  1  0.62316853  0.50144275  0.12610731  1
  V  V15  1  0.12286279  0.23814529  0.38268540  1
  V  V16  1  0.87421473  0.63379607  0.74337470  1
  V  V17  1  0.25034359  0.62207103  0.37268586  1
  V  V18  1  0.25073247  0.75149829  0.49799828  1
  V  V19  1  0.24489478  0.49691512  0.74581554  1
  V  V20  1  0.87741749  0.37097741  0.49380531  1
  V  V21  1  0.88150468  0.38687835  0.00159387  1
  V  V22  1  0.37741873  0.25608942  0.63343296  1
  V  V23  1  0.38584504  0.87341433  -0.00414726  1
  V  V24  1  0.74989489  0.62542000  0.87463718  1
  V  V25  1  0.12044552  0.35325710  0.74833515  1
  V  V26  1  0.49960342  0.62627370  0.62318734  1
  V  V27  1  0.49861953  0.36854381  0.87057025  1
  V  V28  1  0.62391803  0.62619046  -0.00061565  1
  V  V29  1  -0.00078636  0.26071287  0.25539953  1
  V  V30  1  0.75474629  0.49645265  0.74769522  1
  V  V31  1  0.49777907  0.37152271  0.37924557  1
  V  V32  1  0.37500364  0.87990011  0.50071829  1
  V  V33  1  0.01090797  0.00973244  0.50330775  1
  V  V34  1  0.12243180  0.61798897  -0.00202601  1
  V  V35  1  0.24806496  0.00818237  0.25350159  1
  V  V36  1  0.00995769  0.12287337  0.63649134  1
  V  V37  1  0.74819612  0.25165287  0.00147998  1
  V  V38  1  0.37486717  0.75098647  0.12603814  1
  V  V39  1  0.87515566  -0.01550111  0.87596335  1
  V  V40  1  0.61785239  0.12742640  0.00382012  1
  V  V41  1  0.62412706  0.24720720  0.86738105  1
  V  V42  1  0.86437499  0.12431860  0.25572594  1
  V  V43  1  0.87849404  0.63195868  0.24887888  1
  V  V44  1  0.62540046  0.49888466  0.62277221  1
  V  V45  1  0.23908279  0.25503215  0.00460396  1
  V  V46  1  0.50106019  0.24653541  0.24194162  1
  V  V47  1  0.50621831  0.13101828  0.63257965  1
  V  V48  1  0.50737444  0.01069993  0.50113556  1
  V  V49  1  0.24470586  0.00235764  0.74916366  1
  V  V50  1  0.87820181  0.23859748  0.63071392  1
  V  V51  1  0.37476185  0.49831246  0.87395935  1
  V  V52  1  0.00235433  0.49247014  0.49381819  1
  V  V53  1  0.24172225  0.13108020  0.87523318  1
  V  V54  1  0.75306883  0.86384188  0.62354835  1
  V  V55  1  -0.00292993  0.62897976  0.62223230  1
  V  V56  1  0.74953517  0.37806661  0.12776197  1
  V  V57  1  0.74842342  0.23015265  0.49634974  1
  V  V58  1  0.87304754  0.86480201  0.50440226  1
  V  V59  1  0.75256220  0.37172991  0.62199084  1
  V  V60  1  0.37128471  0.01166024  0.37765125  1
  V  V61  1  0.37158395  0.37334705  0.00786031  1
  V  V62  1  0.62650974  0.62699459  0.49888640  1
  V  V63  1  0.12383097  0.74998500  0.36998006  1
  V  V64  1  0.37457021  0.75252924  0.62348906  1
  V  V65  1  0.63392986  0.00368073  0.13009529  1
  V  V66  1  0.63506093  0.88195392  0.25137256  1
  V  V67  1  0.49831303  0.87781044  0.37739359  1
  V  V68  1  0.14289603  0.37679626  0.25612412  1
  V  V69  1  0.00118410  0.87870818  0.37793552  1
  V  V70  1  0.37083865  0.62137024  0.25055352  1
  V  V71  1  0.62801594  0.75229017  0.37969128  1
  V  V72  1  0.24766582  0.87788721  0.12526889  1
  V  V73  1  0.49864464  0.75311921  0.24839943  1
  V  V74  1  0.87474978  0.24875739  0.12680533  1
  V  V75  1  0.49490331  0.49668907  0.49897267  1
  V  V76  1  0.00038075  0.62472127  0.12327109  1
  V  V77  1  0.75288797  0.62825044  0.38076545  1
  V  V78  1  0.75885603  0.12469021  0.86944609  1
  V  V79  1  0.61866333  0.88079813  0.74784744  1
  V  V80  1  0.12548910  0.62078935  0.49845181  1
  V  V81  1  0.12457288  0.00348675  0.11868968  1
  V  V82  1  0.86302078  0.00524024  0.37745240  1
  V  V83  1  0.62491004  0.37497137  0.74969081  1
  V  V84  1  0.12427350  0.74875875  0.86778969  1
  Zn  Zn85  1  0.49888913  0.62533055  0.12592565  1
  Zn  Zn86  1  0.88217518  0.49430571  0.37172771  1
  Zn  Zn87  1  0.63216256  0.00758086  0.62123788  1
  Zn  Zn88  1  0.77646657  0.87469685  0.12056429  1
  Zn  Zn89  1  0.01186273  0.37162038  0.87539989  1
  Zn  Zn90  1  -0.00602664  0.75896329  0.24113359  1
  Zn  Zn91  1  -0.00529421  0.75669339  0.74380522  1
  Zn  Zn92  1  0.75209538  0.00408802  0.74426847  1
  Zn  Zn93  1  0.37788191  0.12945679  0.75421750  1
  Zn  Zn94  1  -0.00034200  0.12530717  0.12729674  1
  Zn  Zn95  1  0.11852766  0.87990088  0.74796073  1
  Zn  Zn96  1  0.25284734  0.37433496  0.61685076  1
  Zn  Zn97  1  -0.00055267  0.87018521  0.87933457  1
  Zn  Zn98  1  0.25004963  0.62316346  0.87398752  1
  Zn  Zn99  1  0.88363819  0.50011020  0.87647356  1
  Zn  Zn100  1  0.37300599  0.24998573  0.12440523  1
  Zn  Zn101  1  -0.01397512  -0.00461906  0.00660230  1
  Zn  Zn102  1  0.12665316  0.87890866  0.25250482  1
  Zn  Zn103  1  0.49487729  0.75897132  0.75088829  1
  Zn  Zn104  1  0.12517483  0.49406874  0.62307174  1
  Zn  Zn105  1  0.11825853  0.12869656  -0.00154114  1
  Zn  Zn106  1  0.77475343  0.75614861  0.00432116  1
  Zn  Zn107  1  0.18766512  0.18883103  0.18824819  1
  Zn  Zn108  1  0.19349485  0.18305669  0.68046046  1
  Zn  Zn109  1  0.18622261  0.68640581  0.18487053  1
  Zn  Zn110  1  0.18825038  0.68493706  0.68270675  1
  Zn  Zn111  1  0.68629243  0.18679596  0.18908253  1
  Zn  Zn112  1  0.69033388  0.18992146  0.68723996  1
  Zn  Zn113  1  0.68828467  0.68851030  0.19138865  1
  Zn  Zn114  1  0.68603046  0.68875290  0.68838706  1
  Zn  Zn115  1  0.31350130  0.30602347  0.31609849  1
  Zn  Zn116  1  0.30628970  0.31365796  0.81373361  1
  Zn  Zn117  1  0.31205634  0.81722828  0.31324466  1
  Zn  Zn118  1  0.31034662  0.81483215  0.81222350  1
  Zn  Zn119  1  0.81034860  0.30986502  0.31544010  1
  Zn  Zn120  1  0.85388099  0.28750935  0.83473872  1
  Zn  Zn121  1  0.81349165  0.81505176  0.31480813  1
  Zn  Zn122  1  0.80334988  0.81146657  0.81027505  1
  Zn  Zn123  1  0.18857131  0.42760668  0.43876485  1
  Zn  Zn124  1  0.18603930  0.43549244  0.93155226  1
  Zn  Zn125  1  0.18767730  0.94177954  0.43749369  1
  Zn  Zn126  1  0.18818597  0.93435927  0.93600598  1
  Zn  Zn127  1  0.68747396  0.43358145  0.43795432  1
  Zn  Zn128  1  0.69135113  0.43750364  0.93627487  1
  Zn  Zn129  1  0.68856047  0.93620184  0.44322506  1
  Zn  Zn130  1  0.68694780  0.93935817  0.93619549  1
  Zn  Zn131  1  0.30880314  0.06552331  0.05985379  1
  Zn  Zn132  1  0.31359348  0.07005361  0.56503964  1
  Zn  Zn133  1  0.31041116  0.56177713  0.06417150  1
  Zn  Zn134  1  0.31286870  0.56092509  0.56076462  1
  Zn  Zn135  1  0.80944720  0.06513858  0.05931857  1
  Zn  Zn136  1  0.81785275  0.05421192  0.56310440  1
  Zn  Zn137  1  0.81168654  0.57196877  0.06523882  1
  Zn  Zn138  1  0.81624133  0.56008573  0.56038549  1
  Zn  Zn139  1  0.43693123  0.43712162  0.19052304  1
  Zn  Zn140  1  0.43676723  0.43613468  0.68787723  1
  Zn  Zn141  1  0.44058771  0.93766161  0.18575061  1
  Zn  Zn142  1  0.43525545  0.94367014  0.68562116  1
  Zn  Zn143  1  0.94243525  0.44341456  0.18443306  1
  Zn  Zn144  1  0.94073112  0.43615381  0.68192835  1
  Zn  Zn145  1  0.93949035  0.94220134  0.19471101  1
  Zn  Zn146  1  0.93452384  0.94216359  0.69288133  1
  Zn  Zn147  1  0.05585451  0.06641970  0.30781079  1
  Zn  Zn148  1  0.05996596  0.06145308  0.81446748  1
  Zn  Zn149  1  0.06363040  0.55726396  0.30841673  1
  Zn  Zn150  1  0.05780534  0.55671772  0.81389053  1
  Zn  Zn151  1  0.55991237  0.06276540  0.31134799  1
  Zn  Zn152  1  0.56200715  0.06051931  0.81417098  1
  Zn  Zn153  1  0.55990147  0.56361275  0.31352111  1
  Zn  Zn154  1  0.56177262  0.56125746  0.81146860  1
  Zn  Zn155  1  0.43952441  0.18669920  0.43755099  1
  Zn  Zn156  1  0.43383018  0.18798747  0.93698155  1
  Zn  Zn157  1  0.43777555  0.68720870  0.43614866  1
  Zn  Zn158  1  0.43890632  0.68769205  0.93647282  1
  Zn  Zn159  1  0.94004349  0.18775071  0.43811640  1
  Zn  Zn160  1  0.94687323  0.18905968  0.94267489  1
  Zn  Zn161  1  0.93983736  0.68583253  0.43439553  1
  Zn  Zn162  1  0.94328665  0.67882675  0.93051107  1
  Zn  Zn163  1  0.06009012  0.31583084  0.06801641  1
  Zn  Zn164  1  0.06357506  0.30853637  0.56538451  1
  Zn  Zn165  1  -0.05031850  0.81207483  0.05714919  1
  Zn  Zn166  1  0.06162087  0.81111862  0.55848603  1
  Zn  Zn167  1  0.56231696  0.31461810  0.06042191  1
  Zn  Zn168  1  0.56379513  0.30891720  0.56041582  1
  Zn  Zn169  1  0.63151630  0.81331766  0.06484363  1
  Zn  Zn170  1  0.56352717  0.81603926  0.56446143  1
  O  O171  1  0.12452666  0.11760222  0.12408974  1
  O  O172  1  0.10917920  0.12936212  0.62487923  1
  O  O173  1  0.12396682  0.61503831  0.11865393  1
  O  O174  1  0.12095680  0.62125102  0.61224379  1
  O  O175  1  0.62820533  0.11897506  0.11659526  1
  O  O176  1  0.61124974  0.12882829  0.62767229  1
  O  O177  1  0.62148899  0.61872061  0.11714105  1
  O  O178  1  0.62038573  0.61976313  0.61852325  1
  O  O179  1  0.38415607  0.38202139  0.36902444  1
  O  O180  1  0.38279172  0.37806238  0.88075673  1
  O  O181  1  0.37968495  0.88619996  0.38169366  1
  O  O182  1  0.36912190  0.88480436  0.88464294  1
  O  O183  1  0.87077786  0.37518541  0.38897412  1
  O  O184  1  0.85191058  0.38479883  0.89903551  1
  O  O185  1  0.88227259  0.88497695  0.37962841  1
  O  O186  1  0.86801390  0.88184682  0.87608302  1
  O  O187  1  0.25939838  -0.00335078  0.36679776  1
  O  O188  1  0.26007988  0.00692723  0.87110161  1
  O  O189  1  0.26259069  0.50165056  0.38227883  1
  O  O190  1  0.25869941  0.50107370  0.86479834  1
  O  O191  1  0.76442018  -0.00363063  0.38031348  1
  O  O192  1  0.75357951  0.01200000  0.87500823  1
  O  O193  1  0.74741751  0.50656280  0.36462849  1
  O  O194  1  0.74656480  0.51112514  0.86402616  1
  O  O195  1  0.23572775  0.50456102  0.13133629  1
  O  O196  1  0.25218118  0.49451793  0.63051809  1
  O  O197  1  0.24914311  0.99549692  0.13281885  1
  O  O198  1  0.25901224  0.99314244  0.63451137  1
  O  O199  1  0.74342895  0.50062470  0.13783080  1
  O  O200  1  0.74454093  0.49431505  0.62875801  1
  O  O201  1  0.73688314  0.99525171  0.12105122  1
  O  O202  1  0.74808285  0.99145823  0.62637073  1
  O  O203  1  0.00254812  0.36404769  0.24658825  1
  O  O204  1  0.01859885  0.37543500  0.74115803  1
  O  O205  1  0.00633223  0.87568557  0.26727447  1
  O  O206  1  0.00193343  0.87285734  0.75509013  1
  O  O207  1  0.50407883  0.36875470  0.26061431  1
  O  O208  1  0.50760201  0.38290505  0.76334104  1
  O  O209  1  0.50216342  0.86951191  0.26028323  1
  O  O210  1  0.51312320  0.87644895  0.73892854  1
  O  O211  1  0.49204399  0.13575229  0.25308347  1
  O  O212  1  0.49773423  0.12195759  0.73675677  1
  O  O213  1  0.48860403  0.63414649  0.25298385  1
  O  O214  1  0.48787543  0.62089651  0.74141299  1
  O  O215  1  0.98819594  0.14042281  0.24794845  1
  O  O216  1  0.99913389  0.11745918  0.73551455  1
  O  O217  1  0.99244564  0.62549911  0.24659435  1
  O  O218  1  0.98968527  0.62301838  0.73946410  1
  O  O219  1  0.36924078  0.25857788  0.00315339  1
  O  O220  1  0.36791881  0.24760032  0.50428219  1
  O  O221  1  0.36938517  0.75528274  0.00377832  1
  O  O222  1  0.36996290  0.75752229  0.50198082  1
  O  O223  1  0.86574742  0.25963856  0.01295205  1
  O  O224  1  0.86679972  0.25346356  0.50409059  1
  O  O225  1  0.88303626  0.73484623  0.00454957  1
  O  O226  1  0.88052348  0.76589950  0.49184109  1
  O  O227  1  0.12690876  0.25062578  0.48535372  1
  O  O228  1  0.13501228  0.25395529  1.00294431  1
  O  O229  1  0.13074338  0.74301742  0.48781844  1
  O  O230  1  0.13923647  0.73799177  0.98744023  1
  O  O231  1  0.63700246  0.25359777  0.49144442  1
  O  O232  1  0.62854181  0.24595789  0.99271346  1
  O  O233  1  0.61622779  0.74532850  0.48655736  1
  O  O234  1  0.61013291  0.73261581  0.98850009  1
  O  O235  1  0.49920481  0.25800136  0.13872030  1
  O  O236  1  0.49074809  0.24074991  0.61855623  1
  O  O237  1  0.49434398  0.74925691  0.14140471  1
  O  O238  1  0.49309042  0.74333131  0.62526185  1
  O  O239  1  0.98657459  0.25115839  0.13202719  1
  O  O240  1  0.98704301  0.23587903  0.61781549  1
  O  O241  1  1.01197388  0.72996807  0.12955253  1
  O  O242  1  1.00713337  0.73466925  0.62522091  1
  O  O243  1  0.01229910  0.24949909  0.36988050  1
  O  O244  1  -0.03751801  0.26866805  0.86914018  1
  O  O245  1  0.00947305  0.75842247  0.37411535  1
  O  O246  1  0.01223235  0.74593593  0.86603211  1
  O  O247  1  0.50565645  0.25697175  0.37000513  1
  O  O248  1  0.50962437  0.25847140  0.87943506  1
  O  O249  1  0.50394615  0.75611930  0.36743952  1
  O  O250  1  0.51168722  0.74404493  0.86762686  1
  O  O251  1  0.24741569  0.14320176  0.50707017  1
  O  O252  1  0.24791367  0.13861369  0.99316874  1
  O  O253  1  0.24545978  0.63033853  0.49272606  1
  O  O254  1  0.24444073  0.63252358  0.99982174  1
  O  O255  1  0.75249446  0.13155891  0.50201682  1
  O  O256  1  0.73684172  0.13239650  0.99228234  1
  O  O257  1  0.74479783  0.61786580  0.48744572  1
  O  O258  1  0.74009870  0.62485895  0.99074718  1
  O  O259  1  0.25744948  0.36286108  -0.00815994  1
  O  O260  1  0.24535213  0.35258463  0.50286292  1
  O  O261  1  0.25790317  0.86653424  0.00751993  1
  O  O262  1  0.25629211  0.87374041  0.50571081  1
  O  O263  1  0.74876786  0.37033294  0.01261620  1
  O  O264  1  0.75778975  0.37274816  0.50758228  1
  O  O265  1  0.72670756  0.86463187  0.00948628  1
  O  O266  1  0.75796999  0.87634424  0.51259470  1
  O  O267  1  0.12691946  0.48375325  0.24569137  1
  O  O268  1  0.14038690  0.50846184  0.74516471  1
  O  O269  1  0.13406972  1.00218033  0.24408262  1
  O  O270  1  0.14068940  0.99834632  0.75703581  1
  O  O271  1  0.63015946  0.49649381  0.24752684  1
  O  O272  1  0.63361359  0.49754864  0.74214581  1
  O  O273  1  0.62007553  0.99488561  0.24328530  1
  O  O274  1  0.62839907  0.99319005  0.74840544  1
  O  O275  1  0.37249960  0.00668272  0.25650652  1
  O  O276  1  0.36776712  0.00129842  0.75994200  1
  O  O277  1  0.38060265  0.50967772  0.26045027  1
  O  O278  1  0.36732168  0.50479541  0.75275959  1
  O  O279  1  0.88083792  0.01032655  0.26786325  1
  O  O280  1  0.86662435  -0.00005493  0.76918311  1
  O  O281  1  0.86697689  0.50649537  0.25300952  1
  O  O282  1  0.86299181  0.50298462  0.74525048  1
  O  O283  1  0.12947930  0.36487090  0.36013629  1
  O  O284  1  0.12879748  0.37427938  0.85405475  1
  O  O285  1  0.11967499  0.86714894  0.37709252  1
  O  O286  1  0.13044519  0.86143770  0.86990435  1
  O  O287  1  0.61712744  0.36954300  0.36886768  1
  O  O288  1  0.61948220  0.36749727  0.87235967  1
  O  O289  1  0.62001437  0.87062561  0.37147497  1
  O  O290  1  0.62900432  0.86561779  0.86259919  1
  O  O291  1  0.37571201  0.12467407  0.13541943  1
  O  O292  1  0.38602844  0.13726046  0.62961633  1
  O  O293  1  0.37623169  0.63137454  0.13336020  1
  O  O294  1  0.37950610  0.63138132  0.62902485  1
  O  O295  1  0.87167245  0.13408679  0.13296897  1
  O  O296  1  0.88043676  0.13451910  0.61985126  1
  O  O297  1  0.88662062  0.61761330  0.13697515  1
  O  O298  1  0.88289428  0.62160034  0.63064380  1
  O  O299  1  0.25315009  0.24737248  0.10879601  1
  O  O300  1  0.26668825  0.24988347  0.61801233  1
  O  O301  1  0.25457057  0.75740510  0.11813979  1
  O  O302  1  0.25644965  0.75737004  0.61668603  1
  O  O303  1  0.75772853  0.25783935  0.12520844  1
  O  O304  1  0.75618521  0.25218673  0.61315205  1
  O  O305  1  0.72671852  0.76037123  0.11651324  1
  O  O306  1  0.74546918  0.76402789  0.62473792  1
  O  O307  1  0.24271227  0.24710576  0.38449795  1
  O  O308  1  0.25611597  0.24109112  0.88776920  1
  O  O309  1  0.24520818  0.74650089  0.38038998  1
  O  O310  1  0.24857330  0.74524054  0.88245760  1
  O  O311  1  0.73992918  0.25323194  0.38571274  1
  O  O312  1  0.74593588  0.24116237  0.88066176  1
  O  O313  1  0.73978688  0.74121369  0.37132611  1
  O  O314  1  0.73813947  0.73720693  0.87558519  1
  O  O315  1  0.00193788  0.11694252  0.00730897  1
  O  O316  1  -0.00191090  0.11261091  0.50452224  1
  O  O317  1  0.01676458  0.62136080  0.00586944  1
  O  O318  1  0.00610390  0.61846897  0.50323461  1
  O  O319  1  0.51041786  0.12147533  -0.00317686  1
  O  O320  1  0.49574669  0.11878249  0.51168008  1
  O  O321  1  0.50408546  0.61508038  0.00144963  1
  O  O322  1  0.50589222  0.61708366  0.50289870  1
  O  O323  1  0.50570767  0.38189740  0.48752409  1
  O  O324  1  0.49355983  0.38018564  0.99039689  1
  O  O325  1  0.49245594  0.88423399  0.49707872  1
  O  O326  1  0.48674396  0.88385618  1.00260603  1
  O  O327  1  0.99206571  0.38131692  0.50689059  1
  O  O328  1  0.98355446  0.37438587  1.00340236  1
  O  O329  1  0.99519510  0.88290769  0.49442955  1
  O  O330  1  1.00726386  0.88389449  0.99280898  1
  O  O331  1  0.49319080  0.49287715  0.38082102  1
  O  O332  1  0.49474471  0.49258042  0.88076869  1
  O  O333  1  0.49216056  0.99764056  0.38342933  1
  O  O334  1  0.48646670  1.00678588  0.88690510  1
  O  O335  1  1.00016391  0.50383355  0.38883915  1
  O  O336  1  0.99507947  0.48595344  0.87134354  1
  O  O337  1  0.99774017  0.99540079  0.38507388  1
  O  O338  1  0.98225482  0.99991959  0.87485155  1
  O  O339  1  0.01297169  0.00340334  0.12929666  1
  O  O340  1  -0.00878518  0.01144330  0.61330350  1
  O  O341  1  0.01842141  0.51316832  0.13242757  1
  O  O342  1  0.00306780  0.51029027  0.61257445  1
  O  O343  1  0.50288244  0.00297636  0.11244873  1
  O  O344  1  0.49980037  0.01469940  0.61751838  1
  O  O345  1  0.50607422  0.50005921  0.11876704  1
  O  O346  1  0.50319081  0.50361942  0.61585960  1
  O  O347  1  0.24113911  0.36752697  0.24800958  1
  O  O348  1  0.24197183  0.38134999  0.74432296  1
  O  O349  1  0.25360776  0.88846746  0.24292063  1
  O  O350  1  0.25061025  0.88339626  0.73957976  1
  O  O351  1  0.74553230  0.38356433  0.24789440  1
  O  O352  1  0.74238649  0.38461195  0.74079946  1
  O  O353  1  0.73686463  0.87259031  0.24921863  1
  O  O354  1  0.74018684  0.87574035  0.73799389  1
  O  O355  1  0.25990476  0.11516466  0.24716717  1
  O  O356  1  0.25454864  0.11975242  0.75696963  1
  O  O357  1  0.26330150  0.63185568  0.25648597  1
  O  O358  1  0.26315559  0.61785095  0.74621358  1
  O  O359  1  0.76455590  0.13417068  0.25337800  1
  O  O360  1  0.74301784  0.12513352  0.76624450  1
  O  O361  1  0.75506295  0.61968244  0.25887299  1
  O  O362  1  0.75413231  0.61813699  0.75316616  1
  O  O363  1  0.37938962  0.11507688  0.36568035  1
  O  O364  1  0.36589781  0.11770645  0.87435837  1
  O  O365  1  0.37023967  0.61711595  0.36949403  1
  O  O366  1  0.37541472  0.61804010  0.86516866  1
  O  O367  1  0.87790922  0.11297715  0.37296167  1
  O  O368  1  0.85903830  0.12635986  0.88057292  1
  O  O369  1  0.86688299  0.61970678  0.37067115  1
  O  O370  1  0.86539750  0.61820226  0.86390038  1
  O  O371  1  0.12330869  0.38563389  0.13467714  1
  O  O372  1  0.13053749  0.37406098  0.63454336  1
  O  O373  1  0.14283247  0.88376272  0.13155214  1
  O  O374  1  0.13838265  0.86947878  0.62455046  1
  O  O375  1  0.62930374  0.38154188  0.13281304  1
  O  O376  1  0.62943929  0.37916106  0.62879492  1
  O  O377  1  0.60835634  0.89112767  0.14208679  1
  O  O378  1  0.63511020  0.87885082  0.62895740  1
  O  O379  1  0.11959054  0.25973234  0.25367621  1
  O  O380  1  0.12967756  0.25492060  0.74658406  1
  O  O381  1  0.12814659  0.75231491  0.26205199  1
  O  O382  1  0.13117603  0.74626868  0.76037452  1
  O  O383  1  0.61869109  0.25509780  0.25703708  1
  O  O384  1  0.62905947  0.25714568  0.76154042  1
  O  O385  1  0.61555139  0.75670863  0.26180338  1
  O  O386  1  0.62101363  0.75673314  0.75607585  1
  O  O387  1  0.38224670  0.24155941  0.24811333  1
  O  O388  1  0.37323497  0.25180659  0.73728997  1
  O  O389  1  0.38065865  0.74589913  0.24843003  1
  O  O390  1  0.37511613  0.74214011  0.74445147  1
  O  O391  1  0.87987421  0.24861848  0.24659039  1
  O  O392  1  0.86069030  0.25124390  0.72700840  1
  O  O393  1  0.87625698  0.73587582  0.25932253  1
  O  O394  1  0.87214157  0.73661977  0.75274737  1
  O  O395  1  0.38817406  0.50433263  0.49099767  1
  O  O396  1  0.37709291  0.49385070  0.99412996  1
  O  O397  1  0.38025671  0.99992643  0.49364206  1
  O  O398  1  0.37872761  0.99499211  0.99597577  1
  O  O399  1  0.88353476  0.48896924  0.49787019  1
  O  O400  1  0.86802678  0.48945322  1.00616778  1
  O  O401  1  0.88477582  0.99147012  0.48917165  1
  O  O402  1  0.86779766  1.00430960  0.98260265  1
  O  O403  1  0.13655979  0.00197671  0.01424747  1
  O  O404  1  0.10957609  -0.00341521  0.50031656  1
  O  O405  1  0.13468067  0.50288289  0.01206057  1
  O  O406  1  0.12049737  0.50241254  0.49892052  1
  O  O407  1  0.61584912  0.00866646  0.00582548  1
  O  O408  1  0.61067592  -0.00285547  0.50055255  1
  O  O409  1  0.62042893  0.50862525  0.00274650  1
  O  O410  1  0.61506532  0.50495753  0.50256191  1
  O  O411  1  0.37870330  0.37720085  0.11089266  1
  O  O412  1  0.38042367  0.36010664  0.62337746  1
  O  O413  1  0.36744005  0.86987430  0.11944462  1
  O  O414  1  0.36883132  0.87093102  0.61819463  1
  O  O415  1  0.86910780  0.37272321  0.11968651  1
  O  O416  1  0.87139965  0.36453104  0.61491164  1
  O  O417  1  0.88608415  0.86476105  0.13738197  1
  O  O418  1  0.86308877  0.87814479  0.61926614  1
  O  O419  1  0.12496092  0.14032295  0.36604026  1
  O  O420  1  0.13758119  0.11891237  0.87885597  1
  O  O421  1  0.13135640  0.62962798  0.37736230  1
  O  O422  1  0.12836189  0.62658115  0.88207669  1
  O  O423  1  0.62009762  0.13695171  0.37409602  1
  O  O424  1  0.62920087  0.13256083  0.88171510  1
  O  O425  1  0.63089576  0.63282349  0.37817315  1
  O  O426  1  0.63002786  0.62807889  0.87922989  1
