# generated using pymatgen
data_V85Zn86O256
_symmetry_space_group_name_H-M   'P 1'
_cell_length_a   16.94574956
_cell_length_b   16.93493831
_cell_length_c   16.94013291
_cell_angle_alpha   90.11135522
_cell_angle_beta   90.01137573
_cell_angle_gamma   90.02922881
_symmetry_Int_Tables_number   1
_chemical_formula_structural   V85Zn86O256
_chemical_formula_sum   'V85 Zn86 O256'
_cell_volume   4861.38851667
_cell_formula_units_Z   1
loop_
 _symmetry_equiv_pos_site_id
 _symmetry_equiv_pos_as_xyz
  1  'x, y, z'
loop_
 _atom_site_type_symbol
 _atom_site_label
 _atom_site_symmetry_multiplicity
 _atom_site_fract_x
 _atom_site_fract_y
 _atom_site_fract_z
 _atom_site_occupancy
  V  V0  1  0.75175844  -0.00308231  0.24296922  1
  V  V1  1  0.62396852  0.37495082  0.25094808  1
  V  V2  1  0.37096846  0.00022624  0.37462140  1
  V  V3  1  0.62167559  0.62222955  0.51575231  1
  V  V4  1  0.63105374  0.38751325  0.74458382  1
  V  V5  1  0.24842451  0.13894338  0.37775159  1
  V  V6  1  0.49839623  0.87517332  0.37311481  1
  V  V7  1  -0.00040793  0.49946120  -0.00487869  1
  V  V8  1  0.63287861  0.12895138  0.00059384  1
  V  V9  1  0.87420011  0.36660670  -0.00198653  1
  V  V10  1  0.62893751  0.87378841  0.24175415  1
  V  V11  1  0.49548649  0.25029157  0.24877362  1
  V  V12  1  0.87401601  -0.00093608  0.38052077  1
  V  V13  1  0.36388470  0.50210991  0.87302977  1
  V  V14  1  0.62507978  0.00068889  0.62375780  1
  V  V15  1  0.62547878  0.49983229  0.12586710  1
  V  V16  1  -0.00125055  -0.00334021  0.50338532  1
  V  V17  1  0.75170466  0.74719742  -0.00539644  1
  V  V18  1  0.50179365  -0.00379280  -0.00801430  1
  V  V19  1  0.13511186  0.74396272  0.88071376  1
  V  V20  1  0.37220154  0.12604719  0.24447784  1
  V  V21  1  0.61563121  0.87879625  0.75254597  1
  V  V22  1  0.12806631  0.13376179  0.49777574  1
  V  V23  1  0.49683471  0.37613034  0.87356198  1
  V  V24  1  0.38196663  0.74557173  0.62319867  1
  V  V25  1  0.87493994  0.62100637  0.25405384  1
  V  V26  1  0.75056565  0.00094554  0.74986526  1
  V  V27  1  0.49947071  0.12590339  0.12297713  1
  V  V28  1  0.13641061  0.62148929  -0.00064285  1
  V  V29  1  0.74962529  0.36594753  0.12049220  1
  V  V30  1  -0.00251641  0.87677595  0.37685442  1
  V  V31  1  0.63455964  0.25160954  0.87605319  1
  V  V32  1  0.62163666  0.75528680  0.87572786  1
  V  V33  1  0.62615282  0.74574884  0.37464957  1
  V  V34  1  0.25092611  0.87324135  0.11772211  1
  V  V35  1  0.12643687  0.87567857  0.24722498  1
  V  V36  1  0.86826037  0.87599911  0.00471677  1
  V  V37  1  0.75106349  0.49769774  0.25121390  1
  V  V38  1  0.75868223  0.39043345  0.62466147  1
  V  V39  1  0.12457443  0.75052654  0.37490559  1
  V  V40  1  0.00144751  0.61870095  0.12269587  1
  V  V41  1  0.36792513  0.37425821  0.49658843  1
  V  V42  1  0.62453638  0.25331118  0.38091847  1
  V  V43  1  0.87737354  0.75787665  0.62563214  1
  V  V44  1  0.49907181  0.12926960  0.62339535  1
  V  V45  1  0.62957989  0.62293317  -0.00791787  1
  V  V46  1  0.24958939  0.74928366  0.50037227  1
  V  V47  1  0.49915313  0.74918005  0.24866333  1
  V  V48  1  0.36531610  0.24915233  0.61828589  1
  V  V49  1  0.36836048  0.50055474  0.37333261  1
  V  V50  1  0.87725871  0.12724560  0.25001306  1
  V  V51  1  0.11895676  0.62104212  0.49871154  1
  V  V52  1  0.85964814  0.50630118  0.87290471  1
  V  V53  1  0.12466226  0.87042071  0.75275911  1
  V  V54  1  0.62426079  0.12719691  0.49926674  1
  V  V55  1  0.75137162  0.12599112  0.37500154  1
  V  V56  1  0.37882753  0.87020225  -0.00960167  1
  V  V57  1  -0.00202682  0.75062720  0.24856440  1
  V  V58  1  0.75409378  0.75738824  0.49999976  1
  V  V59  1  0.49894248  0.00048780  0.49912322  1
  V  V60  1  0.76064870  0.25279846  0.51065621  1
  V  V61  1  -0.00071470  0.13358578  0.62810925  1
  V  V62  1  0.26092120  0.24306288  0.00453618  1
  V  V63  1  0.35997381  0.62060998  0.74930443  1
  V  V64  1  0.24539021  0.38811966  0.12452048  1
  V  V65  1  0.87456249  -0.00125453  0.87436335  1
  V  V66  1  0.12609056  0.50395248  0.63785052  1
  V  V67  1  0.36450039  0.62113685  0.24807309  1
  V  V68  1  0.12631793  0.38891640  0.25564166  1
  V  V69  1  0.12881005  -0.00351115  0.62548056  1
  V  V70  1  0.88009987  0.48232686  0.38396569  1
  V  V71  1  0.01247571  0.25147793  0.26097322  1
  V  V72  1  0.50023290  0.62342031  0.12457532  1
  V  V73  1  0.00486372  0.12981981  0.12330474  1
  V  V74  1  0.50000799  0.49895830  -0.00173390  1
  V  V75  1  0.50183411  0.73917071  0.74955913  1
  V  V76  1  0.87981383  0.13524641  0.74870290  1
  V  V77  1  0.00299924  -0.00283528  0.00154754  1
  V  V78  1  0.36893178  0.12342731  0.75763534  1
  V  V79  1  0.37065858  0.74836064  0.11920618  1
  V  V80  1  0.13034374  0.12515589  -0.01001441  1
  V  V81  1  0.49999239  0.25125518  0.74843844  1
  V  V82  1  0.86781120  0.75192062  0.12650960  1
  V  V83  1  0.86201316  0.62403172  0.75141946  1
  V  V84  1  0.25227081  0.38125833  0.63566155  1
  Zn  Zn85  1  0.37668440  0.37064265  0.01013906  1
  Zn  Zn86  1  0.74976512  0.62151676  0.37769843  1
  Zn  Zn87  1  0.87447455  0.24936877  0.12356456  1
  Zn  Zn88  1  0.12849695  -0.00034818  0.12405269  1
  Zn  Zn89  1  0.12000352  0.36957521  0.75395146  1
  Zn  Zn90  1  0.24851215  0.00115534  0.24936180  1
  Zn  Zn91  1  -0.00036247  0.86855470  0.87689654  1
  Zn  Zn92  1  0.24428804  0.62128551  0.36933303  1
  Zn  Zn93  1  -0.00074552  0.74421960  0.75367722  1
  Zn  Zn94  1  0.37335364  -0.00253518  0.87530834  1
  Zn  Zn95  1  -0.00498895  0.62314320  0.62635088  1
  Zn  Zn96  1  0.25302429  0.87358351  0.62725923  1
  Zn  Zn97  1  0.49777002  0.38035730  0.37439136  1
  Zn  Zn98  1  0.75354281  0.88002943  0.62019206  1
  Zn  Zn99  1  -0.00325107  0.36618118  0.86322640  1
  Zn  Zn100  1  0.00421627  0.48094669  0.49951062  1
  Zn  Zn101  1  0.62857437  -0.00376085  0.12064501  1
  Zn  Zn102  1  0.75450299  0.13038939  0.87872111  1
  Zn  Zn103  1  0.37438542  0.87372358  0.50143731  1
  Zn  Zn104  1  0.24555478  0.00096442  0.76113504  1
  Zn  Zn105  1  0.49544414  0.51065161  0.50797601  1
  Zn  Zn106  1  0.12615139  0.25410609  0.87260399  1
  Zn  Zn107  1  0.18972766  0.19072585  0.18064946  1
  Zn  Zn108  1  0.18700553  0.18753637  0.68714199  1
  Zn  Zn109  1  0.18581979  0.68792012  0.18173673  1
  Zn  Zn110  1  0.18657538  0.68906879  0.68573576  1
  Zn  Zn111  1  0.68408725  0.18615179  0.18970156  1
  Zn  Zn112  1  0.68785461  0.18930845  0.68953902  1
  Zn  Zn113  1  0.68979234  0.68573240  0.18508279  1
  Zn  Zn114  1  0.69089237  0.69104623  0.68720897  1
  Zn  Zn115  1  0.30841474  0.31629628  0.30534927  1
  Zn  Zn116  1  0.30682035  0.30800658  0.81554566  1
  Zn  Zn117  1  0.31074003  0.81049025  0.31033493  1
  Zn  Zn118  1  0.30941419  0.80940015  0.81089264  1
  Zn  Zn119  1  0.81138317  0.30803852  0.30728929  1
  Zn  Zn120  1  0.81414468  0.31999976  0.80926809  1
  Zn  Zn121  1  0.81165268  0.81435204  0.31422334  1
  Zn  Zn122  1  0.80881052  0.81370037  0.81154588  1
  Zn  Zn123  1  0.18931270  0.43426689  0.43936931  1
  Zn  Zn124  1  0.18538694  0.43372813  0.94062490  1
  Zn  Zn125  1  0.18810658  0.93769715  0.43810678  1
  Zn  Zn126  1  0.19153716  0.93511664  0.93500145  1
  Zn  Zn127  1  0.69121050  0.43795450  0.44129424  1
  Zn  Zn128  1  0.68716906  0.43374377  0.93813833  1
  Zn  Zn129  1  0.68563267  0.93604029  0.43257152  1
  Zn  Zn130  1  0.68890784  0.93738778  0.93668548  1
  Zn  Zn131  1  0.31333277  0.05771918  0.06113176  1
  Zn  Zn132  1  0.31021454  0.06299183  0.56378527  1
  Zn  Zn133  1  0.31390003  0.55764981  0.06049971  1
  Zn  Zn134  1  0.30869269  0.56359927  0.56153205  1
  Zn  Zn135  1  0.81436099  0.06396698  0.06437163  1
  Zn  Zn136  1  0.81515083  0.06764649  0.56254239  1
  Zn  Zn137  1  0.81275367  0.55942073  0.06261334  1
  Zn  Zn138  1  0.80997526  0.56998650  0.56055273  1
  Zn  Zn139  1  0.43240905  0.43608844  0.18697294  1
  Zn  Zn140  1  0.43760898  0.44509536  0.68544560  1
  Zn  Zn141  1  0.43853393  0.93920828  0.18365129  1
  Zn  Zn142  1  0.43785702  0.93564114  0.68603081  1
  Zn  Zn143  1  0.94126711  0.43402161  0.18725789  1
  Zn  Zn144  1  0.93861448  0.44144556  0.68614591  1
  Zn  Zn145  1  0.93705447  0.93829525  0.18643451  1
  Zn  Zn146  1  0.94141054  0.93701313  0.68998025  1
  Zn  Zn147  1  0.06289037  0.06490939  0.31475854  1
  Zn  Zn148  1  0.06191658  0.05997493  0.81223071  1
  Zn  Zn149  1  0.05833985  0.56090758  0.31529340  1
  Zn  Zn150  1  0.05353770  0.56393114  0.81418018  1
  Zn  Zn151  1  0.56277719  0.06248117  0.31145625  1
  Zn  Zn152  1  0.56040624  0.06648948  0.81389970  1
  Zn  Zn153  1  0.55553860  0.56113177  0.31565125  1
  Zn  Zn154  1  0.56307532  0.56291950  0.81253665  1
  Zn  Zn155  1  0.43516833  0.19137700  0.43625410  1
  Zn  Zn156  1  0.44197557  0.18981541  0.93813717  1
  Zn  Zn157  1  0.43874712  0.68465570  0.43569660  1
  Zn  Zn158  1  0.43856669  0.68561616  0.93339770  1
  Zn  Zn159  1  0.94291647  0.30299005  0.44055434  1
  Zn  Zn160  1  0.94042415  0.18677876  0.93519394  1
  Zn  Zn161  1  0.93663516  0.68816912  0.43866191  1
  Zn  Zn162  1  0.94022586  0.68592371  0.93341265  1
  Zn  Zn163  1  0.06709554  0.31260103  0.05878992  1
  Zn  Zn164  1  0.06851621  0.31402652  0.57350423  1
  Zn  Zn165  1  0.05958148  0.80752119  0.06045731  1
  Zn  Zn166  1  0.06035026  0.81201745  0.56409114  1
  Zn  Zn167  1  0.56147094  0.31011861  0.06231834  1
  Zn  Zn168  1  0.54242909  0.35159468  0.58032659  1
  Zn  Zn169  1  0.56005078  0.81117701  0.06192972  1
  Zn  Zn170  1  0.56306782  0.81305943  0.56274005  1
  O  O171  1  0.11848990  0.11928325  0.11789600  1
  O  O172  1  0.12123895  0.11512892  0.62027068  1
  O  O173  1  0.11319760  0.63437723  0.11074710  1
  O  O174  1  0.12518384  0.61754258  0.61741528  1
  O  O175  1  0.61826850  0.12263919  0.11793510  1
  O  O176  1  0.61825071  0.12104057  0.62026284  1
  O  O177  1  0.62034777  0.61959849  0.11652823  1
  O  O178  1  0.62704198  0.62840529  0.61449920  1
  O  O179  1  0.37016253  0.38297541  0.37765281  1
  O  O180  1  0.38658683  0.38139092  0.87215925  1
  O  O181  1  0.37976239  0.88263061  0.37396207  1
  O  O182  1  0.37497688  0.86706478  0.88770802  1
  O  O183  1  0.87355597  0.37880168  0.37596270  1
  O  O184  1  0.87413991  0.38727140  0.88203931  1
  O  O185  1  0.88218770  0.88926120  0.36792836  1
  O  O186  1  0.87498473  0.88443119  0.88186057  1
  O  O187  1  0.26128627  0.00335351  0.37247490  1
  O  O188  1  0.25986300  -0.00331139  0.87372220  1
  O  O189  1  0.26302782  0.50496124  0.37894366  1
  O  O190  1  0.26580164  0.49601624  0.88410173  1
  O  O191  1  0.75570373  0.00398567  0.36820557  1
  O  O192  1  0.75782598  0.00344989  0.86815157  1
  O  O193  1  0.76300731  0.49887027  0.36908482  1
  O  O194  1  0.76115415  0.50096964  0.88125225  1
  O  O195  1  0.24534252  0.48800150  0.11989664  1
  O  O196  1  0.23702445  0.49520957  0.62119117  1
  O  O197  1  0.24928862  0.98801381  0.12962293  1
  O  O198  1  0.23838405  0.99579542  0.62632186  1
  O  O199  1  0.74382500  0.49165138  0.13224321  1
  O  O200  1  0.74794424  0.48888187  0.61451381  1
  O  O201  1  0.74902429  1.00311571  0.13889305  1
  O  O202  1  0.74416875  1.00123558  0.63105257  1
  O  O203  1  0.01291216  0.36085896  0.24217060  1
  O  O204  1  0.00523685  0.38381672  0.75088796  1
  O  O205  1  0.00632164  0.86933051  0.25292502  1
  O  O206  1  0.01315900  0.87212706  0.75430716  1
  O  O207  1  0.50463154  0.36579241  0.25068808  1
  O  O208  1  0.50985350  0.36947892  0.75686400  1
  O  O209  1  0.50625216  0.87024837  0.25391099  1
  O  O210  1  0.51149118  0.86642158  0.74675177  1
  O  O211  1  0.49489554  0.12957759  0.24317933  1
  O  O212  1  0.49433730  0.13313051  0.74209190  1
  O  O213  1  0.49306526  0.63103311  0.24201320  1
  O  O214  1  0.50138059  0.63663252  0.74852024  1
  O  O215  1  0.99924468  0.13132941  0.24223522  1
  O  O216  1  0.99381725  0.11456456  0.73714608  1
  O  O217  1  0.99408377  0.63076757  0.24298716  1
  O  O218  1  0.98324787  0.62631291  0.74722833  1
  O  O219  1  0.36658152  0.24929758  0.00073923  1
  O  O220  1  0.37267212  0.25341718  0.50947405  1
  O  O221  1  0.38487486  0.75487471  0.00938646  1
  O  O222  1  0.36884072  0.74636553  0.50670945  1
  O  O223  1  0.87523451  0.26313292  0.00151029  1
  O  O224  1  0.85743941  0.24332249  0.49260354  1
  O  O225  1  0.86839892  0.75450404  0.00392916  1
  O  O226  1  0.86546946  0.74480201  0.50981022  1
  O  O227  1  0.12465384  0.23147602  0.50681503  1
  O  O228  1  0.13613526  0.23762831  1.00199134  1
  O  O229  1  0.13091159  0.74496931  0.49570973  1
  O  O230  1  0.12085154  0.73873595  0.98960856  1
  O  O231  1  0.63068200  0.24542111  0.48804695  1
  O  O232  1  0.61864699  0.24076911  0.98972035  1
  O  O233  1  0.62909033  0.74337338  0.49214172  1
  O  O234  1  0.63074514  0.74571827  0.99480266  1
  O  O235  1  0.50541539  0.23631639  0.13406535  1
  O  O236  1  0.49018688  0.25154817  0.63358288  1
  O  O237  1  0.49166725  0.74386478  0.13018726  1
  O  O238  1  0.48934373  0.75383523  0.63204444  1
  O  O239  1  1.00036201  0.23810219  0.12743750  1
  O  O240  1  1.00570657  0.23132250  0.62717219  1
  O  O241  1  0.98687380  0.74026876  0.12803770  1
  O  O242  1  0.99049586  0.74642982  0.62751489  1
  O  O243  1  -0.00125180  0.24267864  0.35848732  1
  O  O244  1  0.01058502  0.25537740  0.88862340  1
  O  O245  1  0.00341924  0.75662908  0.36849584  1
  O  O246  1  0.01030387  0.75155379  0.87333350  1
  O  O247  1  0.50920338  0.24743228  0.36509604  1
  O  O248  1  0.50681055  0.25977707  0.86842233  1
  O  O249  1  0.50631177  0.75498104  0.36799974  1
  O  O250  1  0.51361024  0.74788450  0.86695527  1
  O  O251  1  0.23711523  0.11866770  0.49303942  1
  O  O252  1  0.24528678  0.13331697  1.00762405  1
  O  O253  1  0.23896612  0.63573943  0.49724297  1
  O  O254  1  0.23476818  0.62288421  1.00663225  1
  O  O255  1  0.74330705  0.13389870  0.49609082  1
  O  O256  1  0.73721794  0.12089494  1.00011876  1
  O  O257  1  0.73845580  0.63830232  0.49629616  1
  O  O258  1  0.74111082  0.63407653  1.00683643  1
  O  O259  1  0.25148319  0.36777735  0.01218635  1
  O  O260  1  0.26072107  0.37665081  0.51090144  1
  O  O261  1  0.26002278  0.87463558  0.01197551  1
  O  O262  1  0.25129692  0.86083866  0.49984048  1
  O  O263  1  0.75883316  0.38045878  0.01028142  1
  O  O264  1  0.74276430  0.36250826  0.51371460  1
  O  O265  1  0.76113870  0.86830086  -0.00033795  1
  O  O266  1  0.74266021  0.86246075  0.49955338  1
  O  O267  1  0.11464460  0.48804360  0.24728019  1
  O  O268  1  0.12506476  0.50991979  0.73871469  1
  O  O269  1  0.12336397  0.98660972  0.24839257  1
  O  O270  1  0.12555244  0.99081232  0.74351842  1
  O  O271  1  0.62816024  0.49412195  0.24737790  1
  O  O272  1  0.62405774  0.48591901  0.75297647  1
  O  O273  1  0.63296405  0.99117836  0.25096619  1
  O  O274  1  0.62922818  0.99639786  0.74740519  1
  O  O275  1  0.37610044  0.00816461  0.25794539  1
  O  O276  1  0.38069173  0.01359411  0.74913671  1
  O  O277  1  0.38112858  0.51173477  0.25769846  1
  O  O278  1  0.37983817  0.51361989  0.75520171  1
  O  O279  1  0.86890453  0.00503563  0.25429022  1
  O  O280  1  0.86854706  0.00197327  0.75798494  1
  O  O281  1  0.87335390  0.50328010  0.25957261  1
  O  O282  1  0.87314206  0.50972719  0.76409845  1
  O  O283  1  0.13386673  0.37747188  0.35576750  1
  O  O284  1  0.11783920  0.37844620  0.87317963  1
  O  O285  1  0.11971025  0.87061095  0.36607289  1
  O  O286  1  0.12371298  0.86181468  0.87191588  1
  O  O287  1  0.62384548  0.36854154  0.37068370  1
  O  O288  1  0.62008265  0.36988708  0.86645518  1
  O  O289  1  0.61870346  0.86419294  0.36518271  1
  O  O290  1  0.62848643  0.86728799  0.86651116  1
  O  O291  1  0.38223242  0.11870164  0.13743783  1
  O  O292  1  0.38064018  0.13235559  0.62883334  1
  O  O293  1  0.37892132  0.62972366  0.12853370  1
  O  O294  1  0.37319212  0.63008918  0.63776347  1
  O  O295  1  0.88467081  0.12671425  0.13083070  1
  O  O296  1  0.89111932  0.11874786  0.63278702  1
  O  O297  1  0.87866750  0.62937237  0.13602865  1
  O  O298  1  0.87196119  0.63347616  0.63469633  1
  O  O299  1  0.25052459  0.25709364  0.11072893  1
  O  O300  1  0.26141453  0.25855749  0.62669517  1
  O  O301  1  0.26368298  0.75616797  0.12819619  1
  O  O302  1  0.26019823  0.74944462  0.61679100  1
  O  O303  1  0.74973318  0.26237177  0.13192835  1
  O  O304  1  0.75051521  0.24802834  0.61286062  1
  O  O305  1  0.76134587  0.74687820  0.11545392  1
  O  O306  1  0.75672660  0.75583266  0.61681392  1
  O  O307  1  0.25685347  0.23746719  0.37315833  1
  O  O308  1  0.24828327  0.25748128  0.89888106  1
  O  O309  1  0.24228046  0.74745610  0.38096663  1
  O  O310  1  0.23444557  0.74856147  0.87518423  1
  O  O311  1  0.74185012  0.24604995  0.38000635  1
  O  O312  1  0.73799998  0.25141446  0.87123390  1
  O  O313  1  0.74271674  0.74903753  0.38075154  1
  O  O314  1  0.74039455  0.75348178  0.88721179  1
  O  O315  1  0.00697830  0.11571625  0.00697966  1
  O  O316  1  0.01404121  0.11073543  0.51404178  1
  O  O317  1  0.00146381  0.61825344  0.00729731  1
  O  O318  1  0.01230548  0.62685569  0.50101217  1
  O  O319  1  0.50734402  0.11950172  0.00685021  1
  O  O320  1  0.50491439  0.12187087  0.50396722  1
  O  O321  1  0.50859342  0.61961903  0.00549656  1
  O  O322  1  0.51650056  0.62904236  0.49912505  1
  O  O323  1  0.47771693  0.36281515  0.48778283  1
  O  O324  1  0.49839106  0.37895830  0.99203899  1
  O  O325  1  0.49921905  0.88122093  0.49078536  1
  O  O326  1  0.49229523  0.88475871  1.00687574  1
  O  O327  1  1.00344430  0.36844065  0.50306878  1
  O  O328  1  0.98991193  0.38667958  1.00800066  1
  O  O329  1  1.00620941  0.88760607  0.49268338  1
  O  O330  1  0.98827250  0.88109282  1.00128209  1
  O  O331  1  0.48613632  0.49957772  0.38270078  1
  O  O332  1  0.49796397  0.49124019  0.87948625  1
  O  O333  1  0.49018668  0.99738264  0.37863400  1
  O  O334  1  0.49621127  1.00437714  0.88814113  1
  O  O335  1  0.98297383  0.50018119  0.37764162  1
  O  O336  1  0.98773836  0.50177928  0.88799121  1
  O  O337  1  0.99273874  0.99875936  0.38297446  1
  O  O338  1  0.99234600  0.99645908  0.88698185  1
  O  O339  1  -0.00075380  0.00795722  0.11479377  1
  O  O340  1  0.01049057  -0.00002944  0.61948638  1
  O  O341  1  -0.00984596  0.51324479  0.11644969  1
  O  O342  1  0.01334878  0.50435063  0.61788915  1
  O  O343  1  0.50412444  0.01138697  0.11760206  1
  O  O344  1  0.50560529  0.00612351  0.61730461  1
  O  O345  1  0.50606194  0.50275363  0.11905428  1
  O  O346  1  0.51367222  0.46272778  0.60854326  1
  O  O347  1  0.23651382  0.37112527  0.23719381  1
  O  O348  1  0.25902885  0.37883762  0.73766424  1
  O  O349  1  0.24169995  0.87430336  0.24023588  1
  O  O350  1  0.23777024  0.87410099  0.74761346  1
  O  O351  1  0.74340434  0.37974620  0.24379977  1
  O  O352  1  0.73996634  0.37424308  0.73986468  1
  O  O353  1  0.74064444  0.88412288  0.25582911  1
  O  O354  1  0.74036835  0.88813225  0.74879012  1
  O  O355  1  0.25703086  0.12393940  0.25484214  1
  O  O356  1  0.26700228  0.12032445  0.74224647  1
  O  O357  1  0.26050154  0.62950462  0.24751638  1
  O  O358  1  0.26220927  0.62821492  0.75118268  1
  O  O359  1  0.75414173  0.11855844  0.25554815  1
  O  O360  1  0.75685190  0.11370529  0.75060701  1
  O  O361  1  0.75820675  0.61613775  0.25021625  1
  O  O362  1  0.76141600  0.62897777  0.75125646  1
  O  O363  1  0.36936914  0.11811160  0.36713012  1
  O  O364  1  0.38309628  0.12756959  0.85913965  1
  O  O365  1  0.37276406  0.62089765  0.36425478  1
  O  O366  1  0.38185196  0.61713741  0.86001687  1
  O  O367  1  0.86679020  0.11087059  0.36532780  1
  O  O368  1  0.87486195  0.11310739  0.87143769  1
  O  O369  1  0.87351904  0.62511263  0.36199929  1
  O  O370  1  0.87287524  0.61522106  0.86904369  1
  O  O371  1  0.13650269  0.36970890  0.13353259  1
  O  O372  1  0.13582685  0.38786865  0.63045443  1
  O  O373  1  0.13237159  0.87118085  0.12916998  1
  O  O374  1  0.12663503  0.87898179  0.63369425  1
  O  O375  1  0.63039557  0.37984571  0.12881931  1
  O  O376  1  0.63844547  0.36234191  0.64184044  1
  O  O377  1  0.62168368  0.87488726  0.13780682  1
  O  O378  1  0.62688727  0.88376323  0.63301700  1
  O  O379  1  0.11445042  0.24829061  0.24855883  1
  O  O380  1  0.14245887  0.25605671  0.75852541  1
  O  O381  1  0.11922801  0.75897200  0.25231970  1
  O  O382  1  0.12366291  0.75227914  0.76015817  1
  O  O383  1  0.61689235  0.25407929  0.25964538  1
  O  O384  1  0.61742373  0.25318984  0.75865736  1
  O  O385  1  0.62277793  0.75564629  0.25388475  1
  O  O386  1  0.62101322  0.75721913  0.75589035  1
  O  O387  1  0.38798616  0.24148227  0.25597985  1
  O  O388  1  0.37958469  0.24030520  0.74446134  1
  O  O389  1  0.38077455  0.74283069  0.24218856  1
  O  O390  1  0.38218372  0.74028020  0.74574058  1
  O  O391  1  0.88615307  0.24367009  0.24561011  1
  O  O392  1  0.87017093  0.23352132  0.75901347  1
  O  O393  1  0.87605079  0.74349601  0.24336353  1
  O  O394  1  0.87283142  0.74317099  0.74516005  1
  O  O395  1  0.37520660  0.49460214  0.49366939  1
  O  O396  1  0.38542814  0.49892997  0.99145230  1
  O  O397  1  0.37991727  0.99913524  0.49196217  1
  O  O398  1  0.38480423  0.98895790  1.00117778  1
  O  O399  1  0.87358188  0.50606096  0.48408345  1
  O  O400  1  0.87899955  0.49631050  0.99086355  1
  O  O401  1  0.88403715  1.00512374  0.49186239  1
  O  O402  1  0.87858595  0.99331722  0.99546569  1
  O  O403  1  0.11669656  0.00085780  0.00229662  1
  O  O404  1  0.12010536  0.00214251  0.50791827  1
  O  O405  1  0.11493025  0.51450565  -0.00393325  1
  O  O406  1  0.12423505  0.50858638  0.50263828  1
  O  O407  1  0.61934268  0.00576442  0.00051826  1
  O  O408  1  0.61984015  0.00668657  0.50162351  1
  O  O409  1  0.62092239  0.50683241  0.00330261  1
  O  O410  1  0.62810990  0.52188488  0.48904281  1
  O  O411  1  0.35646609  0.37741213  0.12751657  1
  O  O412  1  0.36907569  0.36862768  0.61779528  1
  O  O413  1  0.36994313  0.86639506  0.11990771  1
  O  O414  1  0.37298238  0.86334634  0.62294860  1
  O  O415  1  0.86595572  0.37520558  0.11803323  1
  O  O416  1  0.85760539  0.37925145  0.63102897  1
  O  O417  1  0.87879354  0.86441412  0.11763524  1
  O  O418  1  0.87300494  0.86286667  0.63240036  1
  O  O419  1  0.13341496  0.11804921  0.38893449  1
  O  O420  1  0.12341610  0.11964546  0.88831128  1
  O  O421  1  0.12386536  0.63164003  0.37967817  1
  O  O422  1  0.12047274  0.63306101  0.88727621  1
  O  O423  1  0.63118393  0.13149176  0.37810534  1
  O  O424  1  0.62630218  0.13432912  0.88235147  1
  O  O425  1  0.62612833  0.63889491  0.36926010  1
  O  O426  1  0.62253085  0.63194087  0.88692070  1
