# generated using pymatgen
data_V85Zn86O256
_symmetry_space_group_name_H-M   'P 1'
_cell_length_a   16.94517173
_cell_length_b   16.93024461
_cell_length_c   16.94380410
_cell_angle_alpha   89.92475785
_cell_angle_beta   90.00998977
_cell_angle_gamma   89.95950974
_symmetry_Int_Tables_number   1
_chemical_formula_structural   V85Zn86O256
_chemical_formula_sum   'V85 Zn86 O256'
_cell_volume   4860.93304803
_cell_formula_units_Z   1
loop_
 _symmetry_equiv_pos_site_id
 _symmetry_equiv_pos_as_xyz
  1  'x, y, z'
loop_
 _atom_site_type_symbol
 _atom_site_label
 _atom_site_symmetry_multiplicity
 _atom_site_fract_x
 _atom_site_fract_y
 _atom_site_fract_z
 _atom_site_occupancy
  V  V0  1  0.12717977  0.74038155  0.87341334  1
  V  V1  1  0.00194080  0.25244409  0.74906532  1
  V  V2  1  0.87155105  0.24654231  0.62658279  1
  V  V3  1  0.00206070  -0.00039069  0.49776626  1
  V  V4  1  0.62875558  0.23316358  0.38182771  1
  V  V5  1  0.75431307  0.01735984  0.24946880  1
  V  V6  1  0.11892033  0.51003878  0.12712905  1
  V  V7  1  0.87076333  0.62889431  0.74314322  1
  V  V8  1  0.12601433  0.25566586  0.86802988  1
  V  V9  1  0.37083782  0.25117838  0.62746840  1
  V  V10  1  0.24837916  0.25065114  -0.00191367  1
  V  V11  1  0.73982146  0.24023245  0.00381606  1
  V  V12  1  -0.00426885  0.51025653  0.00159638  1
  V  V13  1  0.76848711  0.00170399  0.75335705  1
  V  V14  1  0.37537328  0.87190456  0.50098038  1
  V  V15  1  0.24825930  0.37865722  0.12583635  1
  V  V16  1  0.50219081  0.12478044  0.62136583  1
  V  V17  1  -0.00074982  0.37772516  0.86956085  1
  V  V18  1  0.62830899  -0.00207787  0.11579200  1
  V  V19  1  -0.00056842  0.12447752  0.63077073  1
  V  V20  1  0.00111911  0.75024896  0.74019205  1
  V  V21  1  0.64178669  0.87405421  0.24793845  1
  V  V22  1  0.37204798  0.11076258  0.75345364  1
  V  V23  1  0.13394890  -0.00247318  0.63307637  1
  V  V24  1  0.50546491  0.00023697  0.49810204  1
  V  V25  1  0.37463266  0.37589825  0.50222161  1
  V  V26  1  0.12893371  0.61730036  0.50755759  1
  V  V27  1  0.63127222  0.64512479  -0.00633221  1
  V  V28  1  0.86707452  0.87632029  0.00432246  1
  V  V29  1  0.13176152  0.24758093  0.37383186  1
  V  V30  1  0.00259381  0.74800988  0.23730696  1
  V  V31  1  0.49895570  0.24918619  0.25115658  1
  V  V32  1  0.49887929  0.74584735  0.75001373  1
  V  V33  1  0.62802552  0.62120103  0.50805752  1
  V  V34  1  0.37306784  0.25113577  0.12448730  1
  V  V35  1  0.36701353  0.12507859  0.25384719  1
  V  V36  1  0.49921086  0.87234501  0.87211244  1
  V  V37  1  0.36689015  0.00299903  0.37768500  1
  V  V38  1  0.62960335  0.75296050  0.37847875  1
  V  V39  1  0.00046984  0.49647512  0.50925597  1
  V  V40  1  -0.00219948  0.87497143  0.87492058  1
  V  V41  1  0.50419620  0.49872801  0.50880115  1
  V  V42  1  0.50006356  0.62697155  0.12518271  1
  V  V43  1  0.49416521  0.38077122  0.87636387  1
  V  V44  1  -0.00039021  0.87172825  0.37153108  1
  V  V45  1  0.87591756  0.01389867  0.37009111  1
  V  V46  1  0.12721075  0.74111966  0.37347857  1
  V  V47  1  0.12305137  0.12619863  -0.00198913  1
  V  V48  1  0.88105650  0.62231359  0.24633789  1
  V  V49  1  0.50121001  0.00524811  -0.01091678  1
  V  V50  1  0.74318808  0.37717213  0.62647418  1
  V  V51  1  0.36989699  0.50453792  0.37644575  1
  V  V52  1  -0.00397080  0.24650317  0.25205801  1
  V  V53  1  0.23899551  0.50016456  0.76394033  1
  V  V54  1  0.25124715  0.11080487  0.87178905  1
  V  V55  1  0.75278131  0.50065970  0.25485866  1
  V  V56  1  0.86094499  0.50098997  0.87358614  1
  V  V57  1  -0.00413344  0.12275159  0.12836012  1
  V  V58  1  0.74920797  0.37615622  0.12787957  1
  V  V59  1  0.75919022  0.87149881  0.61534884  1
  V  V60  1  0.13441262  0.12346449  0.49634585  1
  V  V61  1  0.25123472  0.87884823  0.12568300  1
  V  V62  1  0.87472465  0.24788725  0.13011757  1
  V  V63  1  0.25310101  0.74294689  -0.00428123  1
  V  V64  1  0.12204691  0.37597727  0.24980176  1
  V  V65  1  0.37165678  0.61557940  0.76160810  1
  V  V66  1  0.25149725  0.74263004  0.49796597  1
  V  V67  1  0.86874715  0.37612702  0.49665784  1
  V  V68  1  -0.00257725  0.00014564  -0.00549764  1
  V  V69  1  0.23725407  0.38490743  0.62871543  1
  V  V70  1  0.50238270  0.12338809  0.12070164  1
  V  V71  1  0.50077312  0.37536165  0.37515297  1
  V  V72  1  -0.00561965  0.38001477  0.37499250  1
  V  V73  1  0.86118571  0.74876975  0.11946218  1
  V  V74  1  0.36833989  0.62815042  0.25376523  1
  V  V75  1  0.75636486  0.62324099  0.37553414  1
  V  V76  1  0.62689223  0.37916127  0.74900969  1
  V  V77  1  0.50171069  0.24733609  0.75286964  1
  V  V78  1  0.37456912  0.88122732  -0.00525575  1
  V  V79  1  0.87289019  0.37582290  0.00030112  1
  V  V80  1  0.62852500  0.00306935  0.62518025  1
  V  V81  1  0.62523526  0.50227768  0.11924367  1
  V  V82  1  0.62287182  0.37643331  0.25319915  1
  V  V83  1  0.62724997  0.87039964  0.74815577  1
  V  V84  1  0.50218577  0.75331529  0.25235463  1
  Zn  Zn85  1  0.75150346  0.10714439  0.88017878  1
  Zn  Zn86  1  0.49297107  0.50943525  -0.00789617  1
  Zn  Zn87  1  0.24736799  0.00112984  0.25343467  1
  Zn  Zn88  1  0.25426805  0.87308344  0.63122682  1
  Zn  Zn89  1  0.50200058  0.62113230  0.62912923  1
  Zn  Zn90  1  -0.00306398  0.62458025  0.62363021  1
  Zn  Zn91  1  0.61997838  0.24089187  0.88374804  1
  Zn  Zn92  1  0.24492058  0.50671940  0.25481435  1
  Zn  Zn93  1  0.12379779  -0.00068667  0.12776904  1
  Zn  Zn94  1  0.74841877  0.23011079  0.50081129  1
  Zn  Zn95  1  0.50261946  0.87631086  0.37461887  1
  Zn  Zn96  1  0.36939844  0.38273124  -0.00752196  1
  Zn  Zn97  1  0.37601978  0.75305758  0.12494604  1
  Zn  Zn98  1  0.74563452  0.66344708  0.87373811  1
  Zn  Zn99  1  0.13637570  0.87669528  0.75900380  1
  Zn  Zn100  1  0.12479411  0.62631035  0.00174275  1
  Zn  Zn101  1  0.37449465  0.74401007  0.62617471  1
  Zn  Zn102  1  0.25136153  0.24983159  0.49854081  1
  Zn  Zn103  1  0.12814601  0.87673340  0.24966370  1
  Zn  Zn104  1  0.76203220  0.74189262  0.50624544  1
  Zn  Zn105  1  0.74266768  0.50749150  0.74677867  1
  Zn  Zn106  1  0.88055527  0.86878548  0.50011147  1
  Zn  Zn107  1  0.18367519  0.18752838  0.18590472  1
  Zn  Zn108  1  0.18873798  0.18568936  0.68854793  1
  Zn  Zn109  1  0.19001294  0.69237557  0.18341188  1
  Zn  Zn110  1  0.19026239  0.68498861  0.68687792  1
  Zn  Zn111  1  0.68217716  0.18756479  0.18714026  1
  Zn  Zn112  1  0.68766192  0.18502084  0.69002245  1
  Zn  Zn113  1  0.68779767  0.68616110  0.18733858  1
  Zn  Zn114  1  0.68865803  0.69129499  0.68789435  1
  Zn  Zn115  1  0.31200924  0.31662353  0.31102866  1
  Zn  Zn116  1  0.31117987  0.31270849  0.80815146  1
  Zn  Zn117  1  0.31282218  0.81383113  0.31589952  1
  Zn  Zn118  1  0.31426223  0.81234912  0.81119533  1
  Zn  Zn119  1  0.80911230  0.30751957  0.31438027  1
  Zn  Zn120  1  0.82502467  0.27469222  0.82803547  1
  Zn  Zn121  1  0.81789178  0.81138017  0.31660102  1
  Zn  Zn122  1  0.82065967  0.81667809  0.80365745  1
  Zn  Zn123  1  0.18713527  0.43536597  0.43930974  1
  Zn  Zn124  1  0.18238506  0.43873915  0.94024799  1
  Zn  Zn125  1  0.18696726  0.93068735  0.43943016  1
  Zn  Zn126  1  0.18210028  0.93321136  0.94107296  1
  Zn  Zn127  1  0.68758965  0.43478430  0.43784879  1
  Zn  Zn128  1  0.68097046  0.42789516  0.93814482  1
  Zn  Zn129  1  0.68983903  1.05216874  0.43556869  1
  Zn  Zn130  1  0.70885981  0.87963539  0.91173675  1
  Zn  Zn131  1  0.31485095  0.06269950  0.06009257  1
  Zn  Zn132  1  0.31523071  0.06340780  0.56248092  1
  Zn  Zn133  1  0.31439653  0.56113440  0.06475534  1
  Zn  Zn134  1  0.31513172  0.56423436  0.56842469  1
  Zn  Zn135  1  0.81415123  0.05821572  0.06561021  1
  Zn  Zn136  1  0.81905644  0.05732122  0.56607527  1
  Zn  Zn137  1  0.80954093  0.56696149  0.06209674  1
  Zn  Zn138  1  0.81435848  0.55532840  0.56240885  1
  Zn  Zn139  1  0.43482450  0.44161813  0.18498220  1
  Zn  Zn140  1  0.43429064  0.43736141  0.69136821  1
  Zn  Zn141  1  0.43765378  0.93774891  0.18667400  1
  Zn  Zn142  1  0.43814737  0.93426393  0.68464998  1
  Zn  Zn143  1  0.93699216  0.43769113  0.18717861  1
  Zn  Zn144  1  0.92959607  0.43523193  0.68882714  1
  Zn  Zn145  1  0.93564493  0.93627560  0.18662119  1
  Zn  Zn146  1  0.94430935  0.93532881  0.68646377  1
  Zn  Zn147  1  0.06491584  0.06279589  0.31090226  1
  Zn  Zn148  1  0.06102047  0.06441023  0.81351262  1
  Zn  Zn149  1  0.05951976  0.56176665  0.31810355  1
  Zn  Zn150  1  0.05757167  0.56327196  0.81262046  1
  Zn  Zn151  1  0.55620514  0.05750147  0.30491782  1
  Zn  Zn152  1  0.57207521  0.06372393  0.81281208  1
  Zn  Zn153  1  0.56276618  0.56426093  0.31610802  1
  Zn  Zn154  1  0.56544970  0.56297025  0.81455067  1
  Zn  Zn155  1  0.43724285  0.18708666  0.43821228  1
  Zn  Zn156  1  0.43242785  0.18905597  0.93647157  1
  Zn  Zn157  1  0.44113345  0.68534914  0.43794657  1
  Zn  Zn158  1  0.43968931  0.69130951  0.93606858  1
  Zn  Zn159  1  0.94296610  0.19001725  0.44308452  1
  Zn  Zn160  1  0.93099851  0.18403262  0.93763985  1
  Zn  Zn161  1  0.93926365  0.68538827  0.43613992  1
  Zn  Zn162  1  0.93241513  0.68993988  0.93084499  1
  Zn  Zn163  1  0.06051083  0.31659773  0.05886222  1
  Zn  Zn164  1  0.06206386  0.31067251  0.55990075  1
  Zn  Zn165  1  0.06572756  0.81354829  0.06061347  1
  Zn  Zn166  1  0.06653150  0.81259164  0.55935435  1
  Zn  Zn167  1  0.55899403  0.31593790  0.06462167  1
  Zn  Zn168  1  0.56219873  0.31050900  0.56227788  1
  Zn  Zn169  1  0.56187330  0.81819616  0.06527067  1
  Zn  Zn170  1  0.56560167  0.81181505  0.56353992  1
  O  O171  1  0.11197442  0.12790064  0.11557015  1
  O  O172  1  0.12146233  0.11548823  0.61852194  1
  O  O173  1  0.12666326  0.61356856  0.12593548  1
  O  O174  1  0.12000871  0.62756333  0.61069094  1
  O  O175  1  0.60940221  0.11584811  0.13350733  1
  O  O176  1  0.61369630  0.11581206  0.63010946  1
  O  O177  1  0.62096142  0.62113771  0.11604945  1
  O  O178  1  0.62686494  0.62666905  0.61156304  1
  O  O179  1  0.38224342  0.37923105  0.38154711  1
  O  O180  1  0.38998575  0.36774086  0.87321263  1
  O  O181  1  0.37991940  0.88175600  0.38572127  1
  O  O182  1  0.38815303  0.87452177  0.88107405  1
  O  O183  1  0.88197695  0.36431157  0.38365890  1
  O  O184  1  0.88046135  0.37720226  0.88225432  1
  O  O185  1  0.88997383  0.88405193  0.37155019  1
  O  O186  1  0.89020990  0.86879604  0.89106529  1
  O  O187  1  0.26316756  -0.00528889  0.37733401  1
  O  O188  1  0.24172918  0.01212102  0.88145336  1
  O  O189  1  0.26543716  0.49101610  0.37285070  1
  O  O190  1  0.24926391  0.49017490  0.86311804  1
  O  O191  1  0.76051127  -0.00055799  0.35977742  1
  O  O192  1  0.74961654  -0.01204401  0.85569637  1
  O  O193  1  0.74417607  0.50595343  0.36185801  1
  O  O194  1  0.75866520  0.48889850  0.87471910  1
  O  O195  1  0.23943035  0.49312197  0.12953551  1
  O  O196  1  0.25129785  0.48785318  0.63065317  1
  O  O197  1  0.25108396  0.98914607  0.12307932  1
  O  O198  1  0.23589510  1.00014233  0.61860194  1
  O  O199  1  0.74216358  0.49833646  0.13421845  1
  O  O200  1  0.75366246  0.48194580  0.62880728  1
  O  O201  1  0.74174050  1.00557328  0.13791705  1
  O  O202  1  0.74368351  0.99110732  0.63199034  1
  O  O203  1  0.00197623  0.36849606  0.25698180  1
  O  O204  1  -0.00396748  0.37306600  0.76247576  1
  O  O205  1  0.00308228  0.86563691  0.25423169  1
  O  O206  1  0.00428341  0.86787917  0.75846287  1
  O  O207  1  0.50336158  0.37022680  0.25432394  1
  O  O208  1  0.50331065  0.36758854  0.75712978  1
  O  O209  1  0.50519291  0.86374253  0.25077286  1
  O  O210  1  0.50342968  0.86799295  0.75361024  1
  O  O211  1  0.48837661  0.12904514  0.24149000  1
  O  O212  1  0.49347601  0.13039944  0.74212533  1
  O  O213  1  0.49783835  0.63601895  0.24483606  1
  O  O214  1  0.49543343  0.62856960  0.75033463  1
  O  O215  1  1.00454135  0.13414532  0.23952800  1
  O  O216  1  1.00639739  0.13254983  0.73752324  1
  O  O217  1  0.98728166  0.63071087  0.25665653  1
  O  O218  1  0.99122349  0.63219095  0.74720860  1
  O  O219  1  0.36522419  0.25583643  0.00731327  1
  O  O220  1  0.37300929  0.25486579  0.50923611  1
  O  O221  1  0.37031327  0.76125387  -0.00037099  1
  O  O222  1  0.36965113  0.75450277  0.49766607  1
  O  O223  1  0.86575208  0.25815601  0.01453238  1
  O  O224  1  0.87447440  0.25805267  0.50918894  1
  O  O225  1  0.88082899  0.75710996  0.01296895  1
  O  O226  1  0.87329534  0.75552989  0.49084951  1
  O  O227  1  0.12603463  0.24151440  0.49175851  1
  O  O228  1  0.12799241  0.24548454  0.99089669  1
  O  O229  1  0.13159349  0.74161717  0.49259482  1
  O  O230  1  0.13355294  0.74723041  0.99382798  1
  O  O231  1  0.62209547  0.24847430  0.48411078  1
  O  O232  1  0.63688208  0.24867067  1.01304339  1
  O  O233  1  0.62991714  0.74110245  0.49204050  1
  O  O234  1  0.62410455  0.74384750  1.00308502  1
  O  O235  1  0.49457504  0.24361140  0.13082088  1
  O  O236  1  0.49168833  0.24247154  0.62929504  1
  O  O237  1  0.50093425  0.74171673  0.13316144  1
  O  O238  1  0.49982661  0.74820487  0.63738031  1
  O  O239  1  0.99199076  0.24682879  0.12904418  1
  O  O240  1  0.99640467  0.24321798  0.62793968  1
  O  O241  1  0.99935669  0.75020534  0.13518105  1
  O  O242  1  1.00671094  0.75145817  0.63684629  1
  O  O243  1  0.00836881  0.25866038  0.37122030  1
  O  O244  1  0.00622760  0.25767820  0.87044351  1
  O  O245  1  0.00681359  0.75547830  0.36445572  1
  O  O246  1  0.00720751  0.75590631  0.86742081  1
  O  O247  1  0.50851290  0.25330119  0.37050869  1
  O  O248  1  0.50048895  0.25450880  0.86715223  1
  O  O249  1  0.51076363  0.74846260  0.36781236  1
  O  O250  1  0.49965387  0.75884272  0.86156106  1
  O  O251  1  0.23847876  0.12838675  0.50375443  1
  O  O252  1  0.24540855  0.13231211  0.99382528  1
  O  O253  1  0.24308495  0.62869900  0.50105391  1
  O  O254  1  0.25170618  0.64000485  1.00791501  1
  O  O255  1  0.75024476  0.11724616  0.50232765  1
  O  O256  1  0.75420177  0.13786126  1.00442544  1
  O  O257  1  0.74625677  0.61981708  0.49213504  1
  O  O258  1  0.73425061  0.62629862  0.99821343  1
  O  O259  1  0.24664926  0.37067997  0.01237466  1
  O  O260  1  0.25631244  0.37421525  0.51249728  1
  O  O261  1  0.25851333  0.87040648  0.00439998  1
  O  O262  1  0.25923550  0.86561399  0.50351636  1
  O  O263  1  0.75322844  0.37276649  0.01376900  1
  O  O264  1  0.75471963  0.36974750  0.50587543  1
  O  O265  1  0.76843816  0.88759096  0.00833297  1
  O  O266  1  0.75252968  0.87941905  0.51481808  1
  O  O267  1  0.12295903  0.49546393  0.24548104  1
  O  O268  1  0.13944131  0.50761646  0.75379347  1
  O  O269  1  0.13054893  0.99734548  0.24644312  1
  O  O270  1  0.11992015  0.99990483  0.73526372  1
  O  O271  1  0.63117147  0.49891828  0.24169958  1
  O  O272  1  0.62586924  0.48510877  0.75333211  1
  O  O273  1  0.63616767  0.99264071  0.24702489  1
  O  O274  1  0.62227184  0.98815560  0.73611064  1
  O  O275  1  0.37520133  0.00718264  0.25986066  1
  O  O276  1  0.37948029  0.01215485  0.74397491  1
  O  O277  1  0.37493830  0.51044679  0.25809132  1
  O  O278  1  0.36792458  0.51012792  0.74991124  1
  O  O279  1  0.86223251  -0.00159213  0.25257131  1
  O  O280  1  0.86767982  -0.00376597  0.74761868  1
  O  O281  1  0.86536037  0.50991857  0.24171474  1
  O  O282  1  0.87025180  0.50757686  0.75922109  1
  O  O283  1  0.11702442  0.36897965  0.36886314  1
  O  O284  1  0.11273866  0.36623872  0.88225636  1
  O  O285  1  0.11563602  0.86364119  0.37376693  1
  O  O286  1  0.11328377  0.86489725  0.87758639  1
  O  O287  1  0.61768469  0.36860349  0.36948350  1
  O  O288  1  0.61153537  0.36630330  0.86661119  1
  O  O289  1  0.62305715  0.85926741  0.36454968  1
  O  O290  1  0.60824661  0.88400507  0.86077145  1
  O  O291  1  0.38263954  0.13078577  0.13063832  1
  O  O292  1  0.37847927  0.13314558  0.63201837  1
  O  O293  1  0.38547303  0.62970229  0.13473290  1
  O  O294  1  0.38193976  0.62550774  0.63738520  1
  O  O295  1  0.88748106  0.13342413  0.11998279  1
  O  O296  1  0.88864311  0.13274990  0.61998447  1
  O  O297  1  0.87218039  0.63833525  0.13079779  1
  O  O298  1  0.87398296  0.61860653  0.63858181  1
  O  O299  1  0.25107408  0.25762451  0.11920975  1
  O  O300  1  0.25903068  0.25926738  0.62814588  1
  O  O301  1  0.25341679  0.76270203  0.11593257  1
  O  O302  1  0.25140329  0.74957962  0.61041145  1
  O  O303  1  0.75432561  0.25384020  0.12213463  1
  O  O304  1  0.75672529  0.25348413  0.62226185  1
  O  O305  1  0.76288912  0.75174012  0.12772788  1
  O  O306  1  0.74597430  0.76698492  0.62273678  1
  O  O307  1  0.23581642  0.25827399  0.37602840  1
  O  O308  1  0.24156712  0.25008320  0.87961853  1
  O  O309  1  0.24069426  0.75448942  0.38610422  1
  O  O310  1  0.24037848  0.75628389  0.88502861  1
  O  O311  1  0.73196649  0.24869567  0.37654776  1
  O  O312  1  0.73772040  0.27068539  0.90277986  1
  O  O313  1  0.74452101  0.74067293  0.37421515  1
  O  O314  1  0.74623617  0.77639546  0.87555084  1
  O  O315  1  0.00122919  0.11888591  0.00252072  1
  O  O316  1  0.01173578  0.11865969  0.50974382  1
  O  O317  1  -0.00404299  0.61268403  -0.00541574  1
  O  O318  1  0.00470089  0.61271469  0.50026079  1
  O  O319  1  0.49111288  0.11715042  0.00827833  1
  O  O320  1  0.49142264  0.11627625  0.51372660  1
  O  O321  1  0.51093612  0.62806533  0.00786529  1
  O  O322  1  0.51027213  0.61605075  0.50120250  1
  O  O323  1  0.49515739  0.38030299  0.49494052  1
  O  O324  1  0.50011966  0.37242765  0.98456869  1
  O  O325  1  0.49478852  0.88189808  0.49873949  1
  O  O326  1  0.49459779  0.88108999  0.99201096  1
  O  O327  1  0.99337104  0.37786833  0.49368049  1
  O  O328  1  0.99131514  0.38353331  0.99125088  1
  O  O329  1  1.00367230  0.88307447  0.49055184  1
  O  O330  1  0.99738672  0.88297450  0.99521595  1
  O  O331  1  0.49180739  0.49363267  0.38106673  1
  O  O332  1  0.50306104  0.48447906  0.87496540  1
  O  O333  1  0.49193295  0.99859454  0.38307688  1
  O  O334  1  0.50343464  0.99828317  0.88574552  1
  O  O335  1  0.99981639  0.48460841  0.38223954  1
  O  O336  1  0.98851616  0.49421923  0.88091723  1
  O  O337  1  0.99880171  0.99242157  0.37896468  1
  O  O338  1  1.00440172  0.99272379  0.88412167  1
  O  O339  1  -0.00019489  0.00875782  0.11904720  1
  O  O340  1  0.00814969  0.00611552  0.61658248  1
  O  O341  1  0.00726526  0.49353010  0.11471276  1
  O  O342  1  -0.00436301  0.49563236  0.61241612  1
  O  O343  1  0.50443299  0.00716608  0.11881809  1
  O  O344  1  0.50660387  0.00553929  0.61820535  1
  O  O345  1  0.50928142  0.51491239  0.13095831  1
  O  O346  1  0.49798459  0.49645627  0.61185750  1
  O  O347  1  0.24170230  0.37689470  0.23935361  1
  O  O348  1  0.25458852  0.38760049  0.73876672  1
  O  O349  1  0.25234861  0.87612151  0.23980875  1
  O  O350  1  0.24824701  0.87130429  0.74414252  1
  O  O351  1  0.74428087  0.38235773  0.24791998  1
  O  O352  1  0.73762045  0.36678565  0.74217618  1
  O  O353  1  0.74331613  0.87669329  0.25208871  1
  O  O354  1  0.74364417  0.88365869  0.73792777  1
  O  O355  1  0.26314815  0.12430805  0.24207535  1
  O  O356  1  0.25938290  0.12851964  0.75935507  1
  O  O357  1  0.26469027  0.62756757  0.24588627  1
  O  O358  1  0.26077392  0.61217071  0.74761195  1
  O  O359  1  0.74809908  0.11594723  0.25046521  1
  O  O360  1  0.74851063  0.10293119  0.74338449  1
  O  O361  1  0.75712972  0.61897333  0.25490095  1
  O  O362  1  0.75336325  0.62665631  0.75641149  1
  O  O363  1  0.37898292  0.11716638  0.36645553  1
  O  O364  1  0.36355233  0.12929232  0.86529248  1
  O  O365  1  0.38255777  0.61565430  0.36635586  1
  O  O366  1  0.38051100  0.62579648  0.86084194  1
  O  O367  1  0.88903144  0.11288160  0.37625564  1
  O  O368  1  0.85070739  0.16434441  0.86560073  1
  O  O369  1  0.86258003  0.62711068  0.36383980  1
  O  O370  1  0.86518430  0.61780322  0.86746426  1
  O  O371  1  0.12878902  0.38231064  0.13077629  1
  O  O372  1  0.13939465  0.37006955  0.62200133  1
  O  O373  1  0.13669121  0.87696103  0.12579826  1
  O  O374  1  0.12481012  0.89130926  0.62236480  1
  O  O375  1  0.62715400  0.38386076  0.13364873  1
  O  O376  1  0.63206798  0.36684172  0.63277445  1
  O  O377  1  0.61939214  0.88601868  0.13703739  1
  O  O378  1  0.63276652  0.88372119  0.62815238  1
  O  O379  1  0.11779083  0.25531074  0.25585293  1
  O  O380  1  0.12044675  0.24804716  0.76099420  1
  O  O381  1  0.11920699  0.74809553  0.25633136  1
  O  O382  1  0.11954666  0.74798085  0.75720588  1
  O  O383  1  0.61802338  0.25397547  0.26016456  1
  O  O384  1  0.61061276  0.25508238  0.74654831  1
  O  O385  1  0.62123984  0.75471288  0.25360359  1
  O  O386  1  0.61753302  0.76340490  0.74445451  1
  O  O387  1  0.37965351  0.24398943  0.24712530  1
  O  O388  1  0.38494826  0.24559170  0.74189221  1
  O  O389  1  0.38479147  0.74501241  0.25266577  1
  O  O390  1  0.38182177  0.73701279  0.74876542  1
  O  O391  1  0.87782557  0.25402191  0.23814355  1
  O  O392  1  0.88573815  0.25949123  0.73197640  1
  O  O393  1  0.88184248  0.74505050  0.23863748  1
  O  O394  1  0.88769052  0.74137077  0.75182820  1
  O  O395  1  0.38273776  0.49705838  0.49365317  1
  O  O396  1  0.38336589  0.49319323  1.01254932  1
  O  O397  1  0.38319470  0.99394566  0.49612925  1
  O  O398  1  0.38532593  0.98879276  1.00325567  1
  O  O399  1  0.88139157  0.48398910  0.49938197  1
  O  O400  1  0.87714282  0.49623673  0.99549471  1
  O  O401  1  0.89054029  0.99604809  0.49158233  1
  O  O402  1  0.88636729  0.98898113  1.00667717  1
  O  O403  1  0.11385111  0.00757202  0.00408038  1
  O  O404  1  0.11829171  0.00542365  0.50289845  1
  O  O405  1  0.11450270  0.50376645  0.00825454  1
  O  O406  1  0.11500856  0.50657807  0.49242869  1
  O  O407  1  0.61527418  -0.00468886  0.01455473  1
  O  O408  1  0.61237524  -0.00111393  0.50761347  1
  O  O409  1  0.62000694  0.49977175  0.01244045  1
  O  O410  1  0.61570100  0.50854260  0.49050730  1
  O  O411  1  0.36398566  0.36764152  0.13023267  1
  O  O412  1  0.37063317  0.36681765  0.62107920  1
  O  O413  1  0.37068503  0.87341705  0.11595110  1
  O  O414  1  0.37606972  0.87086602  0.61122092  1
  O  O415  1  0.86865356  0.36869200  0.12121485  1
  O  O416  1  0.86643548  0.36652283  0.61642311  1
  O  O417  1  0.88361525  0.86149927  0.11418235  1
  O  O418  1  0.86316857  0.88156437  0.62274322  1
  O  O419  1  0.11919347  0.13477430  0.38405015  1
  O  O420  1  0.13062408  0.13407446  0.87956514  1
  O  O421  1  0.11994082  0.63573090  0.38403418  1
  O  O422  1  0.11946621  0.63676812  0.87975121  1
  O  O423  1  0.61935390  0.12966868  0.37250643  1
  O  O424  1  0.63868350  0.13076976  0.86981974  1
  O  O425  1  0.63614391  0.63303000  0.37958671  1
  O  O426  1  0.62642657  0.62527440  0.89049777  1
