# generated using pymatgen
data_V85Zn86O256
_symmetry_space_group_name_H-M   'P 1'
_cell_length_a   16.94835811
_cell_length_b   16.95651214
_cell_length_c   16.97244319
_cell_angle_alpha   89.95617315
_cell_angle_beta   89.97770561
_cell_angle_gamma   89.97305494
_symmetry_Int_Tables_number   1
_chemical_formula_structural   V85Zn86O256
_chemical_formula_sum   'V85 Zn86 O256'
_cell_volume   4877.62392813
_cell_formula_units_Z   1
loop_
 _symmetry_equiv_pos_site_id
 _symmetry_equiv_pos_as_xyz
  1  'x, y, z'
loop_
 _atom_site_type_symbol
 _atom_site_label
 _atom_site_symmetry_multiplicity
 _atom_site_fract_x
 _atom_site_fract_y
 _atom_site_fract_z
 _atom_site_occupancy
  V  V0  1  0.50271836  0.49806282  0.50319215  1
  V  V1  1  -0.00156627  0.75150735  0.27798417  1
  V  V2  1  0.00612413  0.49346963  0.50446440  1
  V  V3  1  0.12414394  0.12679055  0.50127681  1
  V  V4  1  0.36332631  0.74698918  0.12014840  1
  V  V5  1  0.62850454  0.12805443  0.50001071  1
  V  V6  1  0.62461661  0.00053950  0.12768632  1
  V  V7  1  0.74225720  0.50049056  0.24589805  1
  V  V8  1  0.11804040  0.63896262  0.48683435  1
  V  V9  1  0.75407253  0.24679211  0.00002648  1
  V  V10  1  0.87594477  0.11556872  0.75312079  1
  V  V11  1  0.37416277  0.51638534  0.38157413  1
  V  V12  1  0.24896838  0.39235812  0.62563177  1
  V  V13  1  0.24627320  0.12015163  0.87367146  1
  V  V14  1  0.50162959  -0.00163535  0.49911541  1
  V  V15  1  0.50258861  0.24881621  0.75062817  1
  V  V16  1  0.23166482  0.87754059  0.11877964  1
  V  V17  1  -0.00171081  0.24636268  0.74983350  1
  V  V18  1  0.26130378  0.12489995  0.37282827  1
  V  V19  1  -0.01017192  -0.00239824  0.48273553  1
  V  V20  1  0.75430296  0.50911294  0.76004484  1
  V  V21  1  0.37195421  0.37118242  0.00089940  1
  V  V22  1  0.62388217  0.12246310  0.00195809  1
  V  V23  1  0.00087739  0.00250966  0.01407975  1
  V  V24  1  0.38219999  0.87413399  0.49861600  1
  V  V25  1  0.00085816  0.63133365  0.12926803  1
  V  V26  1  0.37687674  0.37848012  0.49968017  1
  V  V27  1  0.37556556  0.62741855  0.74967779  1
  V  V28  1  0.26746602  0.35449381  0.15326801  1
  V  V29  1  0.62790576  0.24601212  0.87568302  1
  V  V30  1  0.75561955  0.12670975  0.37472617  1
  V  V31  1  0.62746180  0.87136436  0.25470122  1
  V  V32  1  0.50246278  0.12590511  0.62571019  1
  V  V33  1  0.88173237  0.11785635  0.24786627  1
  V  V34  1  0.63117174  0.74174947  0.88025544  1
  V  V35  1  0.38604546  0.75322315  0.62137717  1
  V  V36  1  0.87698224  0.51855805  0.87533872  1
  V  V37  1  0.25427940  0.63680664  0.88359039  1
  V  V38  1  -0.00118536  0.37520922  0.87676176  1
  V  V39  1  0.50788860  0.49744788  0.00669094  1
  V  V40  1  0.12158534  0.38068427  0.25327054  1
  V  V41  1  0.62594517  0.50624941  0.63041180  1
  V  V42  1  0.37509866  0.12423054  0.75040249  1
  V  V43  1  0.75578938  0.11668791  0.87576817  1
  V  V44  1  0.37472547  0.49986335  0.87515305  1
  V  V45  1  0.00365177  0.50247267  0.00458553  1
  V  V46  1  0.87271739  0.49097750  0.38309355  1
  V  V47  1  0.12484397  0.25046389  0.37676690  1
  V  V48  1  0.63193912  0.37173485  0.75041722  1
  V  V49  1  0.62103876  0.25982554  0.36759289  1
  V  V50  1  0.51334944  0.75256896  0.75067206  1
  V  V51  1  0.50797220  0.87424739  0.87381285  1
  V  V52  1  0.36911448  0.86794061  -0.00162612  1
  V  V53  1  0.24987126  0.51450014  0.25952040  1
  V  V54  1  0.62864902  -0.01216058  0.62750169  1
  V  V55  1  0.75549981  -0.00241452  0.25248635  1
  V  V56  1  0.21433576  0.77588765  0.44365840  1
  V  V57  1  0.50175778  0.37285639  0.87741649  1
  V  V58  1  0.24885312  0.25299023  0.50644922  1
  V  V59  1  0.75574080  0.73794750  0.00067661  1
  V  V60  1  0.24942186  0.86120399  0.62395309  1
  V  V61  1  0.12461620  0.37693894  0.74635142  1
  V  V62  1  0.25075442  0.25120234  -0.00529139  1
  V  V63  1  0.87121096  0.62292917  0.26285856  1
  V  V64  1  0.12738898  -0.00548332  0.62048242  1
  V  V65  1  0.75621489  0.26589119  0.49787486  1
  V  V66  1  0.50262282  0.75190412  0.24808035  1
  V  V67  1  0.12215377  0.86972154  0.75064571  1
  V  V68  1  0.13082263  0.49893949  0.12871942  1
  V  V69  1  0.87317839  0.87921586  0.00127111  1
  V  V70  1  0.37452886  0.25158443  0.62698587  1
  V  V71  1  0.00453027  0.24508400  0.24309917  1
  V  V72  1  0.12273247  0.24491898  0.87413639  1
  V  V73  1  0.12477669  0.12037733  0.02189519  1
  V  V74  1  0.74937056  -0.01275100  0.74804243  1
  V  V75  1  0.74465558  0.37590552  0.12355914  1
  V  V76  1  0.67523385  0.67658436  0.43126641  1
  V  V77  1  0.37545586  -0.00237523  0.87308181  1
  V  V78  1  -0.00159618  0.12005211  0.62458292  1
  V  V79  1  0.87963867  0.24677195  0.12431292  1
  V  V80  1  0.85750132  0.87860379  0.48347185  1
  V  V81  1  0.49936389  -0.00106756  0.00104608  1
  V  V82  1  0.48253082  0.12981776  0.13942159  1
  V  V83  1  -0.00958141  0.88036561  0.86748484  1
  V  V84  1  0.50481605  0.62469111  0.12516033  1
  Zn  Zn85  1  0.38328480  0.00931204  0.36527270  1
  Zn  Zn86  1  0.08228622  0.54194493  0.65635293  1
  Zn  Zn87  1  0.24567328  -0.00058317  0.23933305  1
  Zn  Zn88  1  0.12319107  0.75433010  0.88003835  1
  Zn  Zn89  1  0.61469744  0.37423787  0.23829852  1
  Zn  Zn90  1  0.50598273  0.87577131  0.37416835  1
  Zn  Zn91  1  0.75812447  0.38087889  0.62308533  1
  Zn  Zn92  1  0.92980666  0.67651550  0.68673443  1
  Zn  Zn93  1  0.87763304  0.37506261  0.00075578  1
  Zn  Zn94  1  -0.00541077  0.36878213  0.37986972  1
  Zn  Zn95  1  0.87638810  0.24948831  0.61815785  1
  Zn  Zn96  1  0.75251923  0.87312668  0.12574245  1
  Zn  Zn97  1  0.82667172  0.77028350  0.60528602  1
  Zn  Zn98  1  0.12142889  0.86408366  0.27419400  1
  Zn  Zn99  1  0.49468365  0.37234256  0.36352820  1
  Zn  Zn100  1  0.87381201  0.75112847  0.13269475  1
  Zn  Zn101  1  0.24662034  0.50503147  0.75237443  1
  Zn  Zn102  1  0.50245602  0.62286514  0.62666242  1
  Zn  Zn103  1  0.25198913  -0.00131942  0.74470405  1
  Zn  Zn104  1  0.13830259  0.63056444  0.00881039  1
  Zn  Zn105  1  0.63360880  0.61577042  0.00378003  1
  Zn  Zn106  1  0.36992408  0.63923044  0.26196913  1
  Zn  Zn107  1  0.21017595  0.19516676  0.19505988  1
  Zn  Zn108  1  0.18753330  0.18773122  0.68713333  1
  Zn  Zn109  1  0.18238395  0.69398610  0.19211034  1
  Zn  Zn110  1  0.09505388  0.70032620  0.67739624  1
  Zn  Zn111  1  0.68919994  0.18524017  0.18684926  1
  Zn  Zn112  1  0.69175525  0.18314616  0.68459316  1
  Zn  Zn113  1  0.68887276  0.68626015  0.18661646  1
  Zn  Zn114  1  0.71887427  0.69944642  0.70541952  1
  Zn  Zn115  1  0.30880193  0.31782650  0.32074776  1
  Zn  Zn116  1  0.31149130  0.31300534  0.81194924  1
  Zn  Zn117  1  0.32670752  0.84229277  0.29474722  1
  Zn  Zn118  1  0.31611471  0.81312477  0.80571900  1
  Zn  Zn119  1  0.81127039  0.31363593  0.30862726  1
  Zn  Zn120  1  0.81726587  0.30907422  0.81032110  1
  Zn  Zn121  1  0.81064460  0.80740528  0.32496753  1
  Zn  Zn122  1  0.81990451  0.80353385  0.81210399  1
  Zn  Zn123  1  0.18729001  0.44277335  0.43805671  1
  Zn  Zn124  1  0.18658779  0.44077322  0.93571456  1
  Zn  Zn125  1  0.16705529  0.95685052  0.41045587  1
  Zn  Zn126  1  0.18427689  0.93839164  0.93875301  1
  Zn  Zn127  1  0.69541829  0.47569172  0.44524486  1
  Zn  Zn128  1  0.69221354  0.43424401  0.93773688  1
  Zn  Zn129  1  0.68566577  0.94333338  0.43276997  1
  Zn  Zn130  1  0.68916323  0.93463504  0.93614158  1
  Zn  Zn131  1  0.31012340  0.05632850  0.05972708  1
  Zn  Zn132  1  0.31207862  0.06067367  0.55951858  1
  Zn  Zn133  1  0.31768692  0.55604411  0.06858288  1
  Zn  Zn134  1  0.26280923  0.62058273  0.58991516  1
  Zn  Zn135  1  0.81640843  0.06054100  0.06590248  1
  Zn  Zn136  1  0.81175023  0.06021625  0.56360232  1
  Zn  Zn137  1  0.82065055  0.56052113  0.06728737  1
  Zn  Zn138  1  0.80009981  0.57337281  0.56542309  1
  Zn  Zn139  1  0.43581241  0.44189994  0.19256087  1
  Zn  Zn140  1  0.43849579  0.43599424  0.69026694  1
  Zn  Zn141  1  0.43433612  0.93823373  0.18516302  1
  Zn  Zn142  1  0.44362073  0.93655380  0.68745572  1
  Zn  Zn143  1  0.93481879  0.43686837  0.18903710  1
  Zn  Zn144  1  0.92860102  0.43488835  0.69019653  1
  Zn  Zn145  1  0.94172371  0.92941303  0.19160254  1
  Zn  Zn146  1  0.93310253  0.92943141  0.67839279  1
  Zn  Zn147  1  0.06988021  0.06518595  0.30397492  1
  Zn  Zn148  1  0.06217520  0.05217698  0.81408463  1
  Zn  Zn149  1  0.05554595  0.56529290  0.31862336  1
  Zn  Zn150  1  0.06240537  0.56740088  0.82109215  1
  Zn  Zn151  1  0.56669285  0.06662499  0.31287104  1
  Zn  Zn152  1  0.56640861  0.05972549  0.81144661  1
  Zn  Zn153  1  0.55375197  0.55505341  0.30651655  1
  Zn  Zn154  1  0.56363902  0.56309569  0.81458328  1
  Zn  Zn155  1  0.44110559  0.19131148  0.44140721  1
  Zn  Zn156  1  0.43750118  0.18502617  0.94051261  1
  Zn  Zn157  1  0.48199797  0.69703186  0.44820342  1
  Zn  Zn158  1  0.44229694  0.68645156  0.93944048  1
  Zn  Zn159  1  0.93705874  0.18532133  0.43389632  1
  Zn  Zn160  1  0.93972892  0.18025918  0.93892744  1
  Zn  Zn161  1  0.91735653  0.67315605  0.47248232  1
  Zn  Zn162  1  0.94739666  0.69554781  0.94084971  1
  Zn  Zn163  1  0.07071840  0.31301263  0.06453765  1
  Zn  Zn164  1  0.05969454  0.31488597  0.56588660  1
  Zn  Zn165  1  0.05702804  0.80649828  0.05234218  1
  Zn  Zn166  1  0.03550975  0.81625934  0.55624703  1
  Zn  Zn167  1  0.55992298  0.30532699  0.06505923  1
  Zn  Zn168  1  0.56900678  0.31623204  0.56165444  1
  Zn  Zn169  1  0.56385062  0.81159019  0.06392202  1
  Zn  Zn170  1  0.61193934  0.78302648  0.58006619  1
  O  O171  1  0.13852154  0.13041668  0.11938409  1
  O  O172  1  0.12079475  0.11616116  0.62026474  1
  O  O173  1  0.11790724  0.61668090  0.12838947  1
  O  O174  1  0.14577769  0.62294134  0.60471739  1
  O  O175  1  0.62167607  0.11387090  0.12153842  1
  O  O176  1  0.61819121  0.12254225  0.61780649  1
  O  O177  1  0.60980556  0.62811905  0.12105949  1
  O  O178  1  0.62115748  0.60598169  0.63817354  1
  O  O179  1  0.37546811  0.37871731  0.38671781  1
  O  O180  1  0.38178043  0.38059145  0.87932221  1
  O  O181  1  0.38363837  0.87501916  0.39409083  1
  O  O182  1  0.38309235  0.87755250  0.88027649  1
  O  O183  1  0.87856684  0.38633506  0.36826549  1
  O  O184  1  0.89158723  0.37504780  0.87577935  1
  O  O185  1  0.86406584  0.89085840  0.38159246  1
  O  O186  1  0.88431591  0.87463311  0.87949577  1
  O  O187  1  0.26109787  0.02338759  0.39926232  1
  O  O188  1  0.25646924  0.00521978  0.87238696  1
  O  O189  1  0.26056990  0.50225987  0.37230544  1
  O  O190  1  0.26465086  0.50288553  0.87356259  1
  O  O191  1  0.74369767  0.01328794  0.35907928  1
  O  O192  1  0.74177869  0.01195654  0.86736664  1
  O  O193  1  0.76512677  0.49091459  0.36075505  1
  O  O194  1  0.76725304  0.49245237  0.87374998  1
  O  O195  1  0.24750971  0.49146511  0.13873036  1
  O  O196  1  0.25519876  0.49422397  0.62918232  1
  O  O197  1  0.24694507  0.98277413  0.12256693  1
  O  O198  1  0.24210261  0.98670184  0.61800474  1
  O  O199  1  0.75904407  0.48658441  0.13140972  1
  O  O200  1  0.74485273  0.49933590  0.63839603  1
  O  O201  1  0.74292884  1.00074925  0.13611552  1
  O  O202  1  0.73950075  1.00804093  0.63563884  1
  O  O203  1  0.01129795  0.36921166  0.25172947  1
  O  O204  1  0.00799524  0.36995242  0.75708988  1
  O  O205  1  -0.00033943  0.85712931  0.25817493  1
  O  O206  1  0.00629086  0.88923982  0.76050339  1
  O  O207  1  0.50228404  0.37589678  0.24975313  1
  O  O208  1  0.51057120  0.36741809  0.75698681  1
  O  O209  1  0.51072987  0.86981794  0.24483175  1
  O  O210  1  0.49665855  0.86491422  0.76177548  1
  O  O211  1  0.49598492  0.11776720  0.23876013  1
  O  O212  1  0.49531039  0.13085716  0.74722712  1
  O  O213  1  0.49371950  0.63157827  0.24012319  1
  O  O214  1  0.49041606  0.63202157  0.75241788  1
  O  O215  1  0.99518810  0.13246001  0.25074227  1
  O  O216  1  0.99511143  0.12232672  0.74432213  1
  O  O217  1  0.99183931  0.63226525  0.24756663  1
  O  O218  1  1.02182369  0.61804078  0.72879173  1
  O  O219  1  0.36648096  0.26169620  -0.00753869  1
  O  O220  1  0.37094946  0.26030635  0.50780788  1
  O  O221  1  0.38203664  0.76064893  0.00520551  1
  O  O222  1  0.40077281  0.75786053  0.51631564  1
  O  O223  1  0.87448184  0.24849823  0.00821079  1
  O  O224  1  0.85988098  0.24680652  0.49558780  1
  O  O225  1  0.86948817  0.75895811  0.00109023  1
  O  O226  1  0.86834047  0.77530388  0.48411054  1
  O  O227  1  0.12750673  0.24828156  0.49435951  1
  O  O228  1  0.12646118  0.23933060  0.99025372  1
  O  O229  1  0.10628225  0.74306779  0.49486015  1
  O  O230  1  0.12207737  0.74029190  0.99198686  1
  O  O231  1  0.63590457  0.24646109  0.49081470  1
  O  O232  1  0.63224331  0.24053994  0.99487277  1
  O  O233  1  0.59677794  0.73039794  0.47961202  1
  O  O234  1  0.63707122  0.74946958  0.99697431  1
  O  O235  1  0.49996663  0.22779632  0.12100998  1
  O  O236  1  0.49626514  0.24639137  0.63091303  1
  O  O237  1  0.49215127  0.74389770  0.12834683  1
  O  O238  1  0.50554510  0.74610451  0.63681611  1
  O  O239  1  0.99743485  0.25593768  0.13583666  1
  O  O240  1  1.00396543  0.23520896  0.63170454  1
  O  O241  1  0.99562111  0.73661000  0.12400807  1
  O  O242  1  1.00496643  0.75908285  0.64382309  1
  O  O243  1  0.00876682  0.24940180  0.36506384  1
  O  O244  1  0.00429234  0.25484676  0.87064010  1
  O  O245  1  -0.00989082  0.73993579  0.37339272  1
  O  O246  1  0.00262748  0.77260942  0.87574491  1
  O  O247  1  0.51718931  0.25101100  0.38062954  1
  O  O248  1  0.50656688  0.25303112  0.87084741  1
  O  O249  1  0.49236985  0.75572853  0.35133563  1
  O  O250  1  0.50653855  0.75682289  0.87174076  1
  O  O251  1  0.24355899  0.13651007  0.50042209  1
  O  O252  1  0.24344793  0.12968811  0.99309584  1
  O  O253  1  0.23193260  0.67319709  0.48869384  1
  O  O254  1  0.25814215  0.61603601  0.98642514  1
  O  O255  1  0.74666844  0.12820792  0.48950723  1
  O  O256  1  0.74700392  0.12595794  0.99366892  1
  O  O257  1  0.72223317  0.59739326  0.48333511  1
  O  O258  1  0.75341239  0.63376776  1.00609982  1
  O  O259  1  0.25784969  0.36735511  -0.00809093  1
  O  O260  1  0.25462879  0.37341248  0.50923932  1
  O  O261  1  0.25872234  0.87716790  0.00526541  1
  O  O262  1  0.26382444  0.85260288  0.50645907  1
  O  O263  1  0.75654049  0.36491665  0.00525682  1
  O  O264  1  0.74699415  0.36660119  0.49853505  1
  O  O265  1  0.76390335  0.87437091  -0.00030672  1
  O  O266  1  0.75824305  0.89280866  0.50032507  1
  O  O267  1  0.12684494  0.49657776  0.25101970  1
  O  O268  1  0.12743256  0.48951668  0.75205024  1
  O  O269  1  0.14074538  0.97920997  0.29131137  1
  O  O270  1  0.12770557  0.99246036  0.73382673  1
  O  O271  1  0.63908324  0.49614322  0.25178466  1
  O  O272  1  0.62879331  0.48761768  0.75114955  1
  O  O273  1  0.63329552  0.99621986  0.24276172  1
  O  O274  1  0.63537991  1.00514146  0.73928389  1
  O  O275  1  0.35568460  -0.03741175  0.26378919  1
  O  O276  1  0.37643873  0.00634182  0.75532840  1
  O  O277  1  0.36516165  0.50585835  0.26413390  1
  O  O278  1  0.37880411  0.50775713  0.75961000  1
  O  O279  1  0.87106715  0.01027326  0.24066436  1
  O  O280  1  0.86779687  0.00997909  0.74051291  1
  O  O281  1  0.87187952  0.50508575  0.25879375  1
  O  O282  1  0.86748267  0.50090680  0.76250387  1
  O  O283  1  0.12653252  0.36399787  0.37086891  1
  O  O284  1  0.11710603  0.36949417  0.86716986  1
  O  O285  1  0.15059501  0.84590534  0.39488972  1
  O  O286  1  0.11730014  0.88056732  0.86475201  1
  O  O287  1  0.62581048  0.36178677  0.37403514  1
  O  O288  1  0.62037091  0.36596548  0.87105465  1
  O  O289  1  0.62357208  0.88158964  0.35890792  1
  O  O290  1  0.61243921  0.86561466  0.88316372  1
  O  O291  1  0.38326461  0.11678355  0.12293940  1
  O  O292  1  0.38074528  0.13112633  0.62976322  1
  O  O293  1  0.38195721  0.63519747  0.12377848  1
  O  O294  1  0.37042444  0.63633053  0.63422031  1
  O  O295  1  0.87226623  0.13838553  0.13381628  1
  O  O296  1  0.88423526  0.12810921  0.63118418  1
  O  O297  1  0.88745196  0.62254734  0.13909678  1
  O  O298  1  0.87344533  0.65312230  0.58514917  1
  O  O299  1  0.23262569  0.25939161  0.09824806  1
  O  O300  1  0.25551117  0.25954029  0.62262104  1
  O  O301  1  0.25872747  0.75330020  0.12146154  1
  O  O302  1  0.26909024  0.75994519  0.63402299  1
  O  O303  1  0.75937456  0.25289683  0.11899335  1
  O  O304  1  0.74771554  0.24739364  0.60513319  1
  O  O305  1  0.75409195  0.75343637  0.11520451  1
  O  O306  1  0.71464567  0.74480004  0.60497002  1
  O  O307  1  0.24465655  0.24225071  0.38601239  1
  O  O308  1  0.24417221  0.24278584  0.87935664  1
  O  O309  1  0.27309823  0.75916853  0.36642150  1
  O  O310  1  0.26024520  0.73765691  0.87537570  1
  O  O311  1  0.74443606  0.24738123  0.38281970  1
  O  O312  1  0.74821348  0.23899049  0.88087623  1
  O  O313  1  0.73812332  0.73762356  0.38061046  1
  O  O314  1  0.74098119  0.75590646  0.88748166  1
  O  O315  1  0.00891597  0.11166202  0.00094420  1
  O  O316  1  0.00415978  0.12231767  0.50789397  1
  O  O317  1  0.00038613  0.61398320  0.01080009  1
  O  O318  1  0.01185253  0.61015759  0.49776730  1
  O  O319  1  0.50564939  0.11467219  0.00262763  1
  O  O320  1  0.50610120  0.11862093  0.50591796  1
  O  O321  1  0.49932078  0.61255986  0.00689696  1
  O  O322  1  0.49385733  0.60191081  0.51000891  1
  O  O323  1  0.48977240  0.37808417  0.50205394  1
  O  O324  1  0.49278168  0.37718220  0.99865382  1
  O  O325  1  0.49867912  0.89102623  0.50096388  1
  O  O326  1  0.49265321  0.88063185  0.99450915  1
  O  O327  1  1.00523520  0.38679863  0.49602156  1
  O  O328  1  1.00530286  0.38421656  0.99448417  1
  O  O329  1  0.99522181  0.89478061  0.48641649  1
  O  O330  1  0.99032237  0.88385954  0.99308187  1
  O  O331  1  0.49320963  0.49295338  0.38546449  1
  O  O332  1  0.49145634  0.49331980  0.88239169  1
  O  O333  1  0.49997906  1.00268100  0.38441423  1
  O  O334  1  0.49737543  0.99222391  0.87931300  1
  O  O335  1  0.98982996  0.49413889  0.38430154  1
  O  O336  1  0.99785475  0.49363578  0.88435452  1
  O  O337  1  1.00053720  1.01852554  0.38689412  1
  O  O338  1  1.00223458  0.98616684  0.88723672  1
  O  O339  1  0.00288277  -0.00739624  0.11308389  1
  O  O340  1  0.00735741  0.00846133  0.61678232  1
  O  O341  1  0.00732359  0.50290727  0.12065535  1
  O  O342  1  -0.00924394  0.49268304  0.60851800  1
  O  O343  1  0.50591107  0.00610737  0.11981530  1
  O  O344  1  0.50712824  0.00875867  0.62034083  1
  O  O345  1  0.49000504  0.51015519  0.11561467  1
  O  O346  1  0.50746444  0.49594946  0.62276959  1
  O  O347  1  0.23626680  0.39489745  0.25825698  1
  O  O348  1  0.24251777  0.37741675  0.74394665  1
  O  O349  1  0.23415439  0.86314236  0.22555480  1
  O  O350  1  0.24501841  0.87971747  0.74054776  1
  O  O351  1  0.74818511  0.38051233  0.23835546  1
  O  O352  1  0.74010707  0.37822221  0.75794404  1
  O  O353  1  0.74616450  0.88192082  0.24865391  1
  O  O354  1  0.75570088  0.88953688  0.76002048  1
  O  O355  1  0.24784626  0.11608862  0.27002169  1
  O  O356  1  0.25713172  0.12212740  0.75441788  1
  O  O357  1  0.25156604  0.61824787  0.24619159  1
  O  O358  1  0.26866869  0.62282037  0.76521672  1
  O  O359  1  0.76022893  0.11957851  0.25392597  1
  O  O360  1  0.75878563  0.12121813  0.75826301  1
  O  O361  1  0.76117002  0.61359406  0.23925580  1
  O  O362  1  0.73477250  0.60592923  0.76644588  1
  O  O363  1  0.36518717  0.13261057  0.37816978  1
  O  O364  1  0.36732145  0.11918644  0.87115734  1
  O  O365  1  0.38779382  0.61643074  0.38025906  1
  O  O366  1  0.37297118  0.61798925  0.87312210  1
  O  O367  1  0.86328845  0.13182281  0.36250991  1
  O  O368  1  0.86700682  0.12378332  0.86762597  1
  O  O369  1  0.87872248  0.61068332  0.36759876  1
  O  O370  1  0.88815951  0.61731356  0.87820359  1
  O  O371  1  0.13896800  0.37782827  0.13858135  1
  O  O372  1  0.13334043  0.37096853  0.63760396  1
  O  O373  1  0.13290942  0.87094253  0.11146016  1
  O  O374  1  0.13256601  0.87843362  0.62680036  1
  O  O375  1  0.64014758  0.36519501  0.12107811  1
  O  O376  1  0.63276543  0.37686105  0.63899743  1
  O  O377  1  0.62731024  0.88843722  0.12974599  1
  O  O378  1  0.61596933  0.89021911  0.62306991  1
  O  O379  1  0.12270586  0.25668865  0.25743773  1
  O  O380  1  0.11883495  0.25551838  0.75548882  1
  O  O381  1  0.10373756  0.74655443  0.25561791  1
  O  O382  1  0.13748205  0.76768427  0.76024548  1
  O  O383  1  0.63450246  0.25059193  0.26473590  1
  O  O384  1  0.62427609  0.25305991  0.75552283  1
  O  O385  1  0.61796297  0.76243640  0.23613993  1
  O  O386  1  0.61842469  0.74525425  0.76283939  1
  O  O387  1  0.30387697  0.27267770  0.21852078  1
  O  O388  1  0.38113335  0.24543068  0.74589322  1
  O  O389  1  0.38288142  0.75543422  0.23393731  1
  O  O390  1  0.38971987  0.74598783  0.74206085  1
  O  O391  1  0.88552968  0.24295003  0.24428754  1
  O  O392  1  0.88396872  0.23364051  0.75177885  1
  O  O393  1  0.88116159  0.74081740  0.25446086  1
  O  O394  1  0.83623090  0.73526372  0.72546760  1
  O  O395  1  0.38103547  0.48661996  0.49614732  1
  O  O396  1  0.38213426  0.48723816  0.99321106  1
  O  O397  1  0.38622321  0.99264883  0.50289474  1
  O  O398  1  0.38034554  0.98956631  0.99163102  1
  O  O399  1  0.88011790  0.50367954  0.48593025  1
  O  O400  1  0.88709317  0.49575913  0.99405911  1
  O  O401  1  0.88599039  1.00202181  0.49888732  1
  O  O402  1  0.88846022  0.99567400  1.00404698  1
  O  O403  1  0.11411346  0.00976210  -0.00080749  1
  O  O404  1  0.11491914  0.00577244  0.50567347  1
  O  O405  1  0.12015168  0.50364042  0.00762397  1
  O  O406  1  0.11216334  0.50486628  0.49933826  1
  O  O407  1  0.62086483  0.00279943  0.00776056  1
  O  O408  1  0.61943317  0.00941579  0.50606206  1
  O  O409  1  0.61209311  0.49613013  -0.00617717  1
  O  O410  1  0.61279419  0.47958296  0.51868875  1
  O  O411  1  0.36312352  0.38208975  0.11532855  1
  O  O412  1  0.36657922  0.37131946  0.62171746  1
  O  O413  1  0.36761636  0.86660539  0.11289865  1
  O  O414  1  0.37204922  0.87232913  0.61831710  1
  O  O415  1  0.86914787  0.36164219  0.12493356  1
  O  O416  1  0.86805301  0.35983163  0.63681837  1
  O  O417  1  0.87440507  0.87170267  0.11587248  1
  O  O418  1  0.88033456  0.87490972  0.59869109  1
  O  O419  1  0.13465752  0.13720807  0.38138693  1
  O  O420  1  0.13293820  0.12667613  0.87425459  1
  O  O421  1  0.12810630  0.62020516  0.38879821  1
  O  O422  1  0.14729057  0.62440217  0.87489181  1
  O  O423  1  0.63643239  0.13513256  0.37899593  1
  O  O424  1  0.63200219  0.12916502  0.88121708  1
  O  O425  1  0.62210046  0.62564436  0.36295323  1
  O  O426  1  0.61637361  0.63789531  0.88564568  1
