# generated using pymatgen
data_V85Zn86O256
_symmetry_space_group_name_H-M   'P 1'
_cell_length_a   16.93182754
_cell_length_b   16.93058741
_cell_length_c   16.91378260
_cell_angle_alpha   89.95286841
_cell_angle_beta   90.02746536
_cell_angle_gamma   90.06921235
_symmetry_Int_Tables_number   1
_chemical_formula_structural   V85Zn86O256
_chemical_formula_sum   'V85 Zn86 O256'
_cell_volume   4848.59705163
_cell_formula_units_Z   1
loop_
 _symmetry_equiv_pos_site_id
 _symmetry_equiv_pos_as_xyz
  1  'x, y, z'
loop_
 _atom_site_type_symbol
 _atom_site_label
 _atom_site_symmetry_multiplicity
 _atom_site_fract_x
 _atom_site_fract_y
 _atom_site_fract_z
 _atom_site_occupancy
  V  V0  1  0.61126903  0.50513063  0.61911978  1
  V  V1  1  0.00366729  0.75042543  0.74897940  1
  V  V2  1  0.35901183  0.12113551  0.75575916  1
  V  V3  1  0.37512579  0.49884889  0.87300015  1
  V  V4  1  0.24905905  0.74528944  0.00070383  1
  V  V5  1  -0.00837869  0.62441152  0.12906306  1
  V  V6  1  0.24809701  0.88670747  0.62761685  1
  V  V7  1  0.74999205  0.24777030  0.49927171  1
  V  V8  1  0.61668248  -0.00506079  0.62481757  1
  V  V9  1  0.24512503  0.50001315  0.25208311  1
  V  V10  1  0.24974358  0.37619888  0.12671068  1
  V  V11  1  0.73934218  0.88140382  0.12760413  1
  V  V12  1  0.12435209  0.26008919  0.86683702  1
  V  V13  1  0.24911212  0.24903444  -0.00389523  1
  V  V14  1  0.26018110  0.00626890  0.24857779  1
  V  V15  1  0.87543719  0.87448694  0.50014622  1
  V  V16  1  0.75918679  0.25587914  0.00266903  1
  V  V17  1  0.62050882  0.11941881  0.49902331  1
  V  V18  1  0.87719415  0.00038117  0.37293368  1
  V  V19  1  0.74760271  0.64362576  0.87771439  1
  V  V20  1  -0.00000793  0.87461450  0.87536932  1
  V  V21  1  0.75401834  0.12679987  0.86977229  1
  V  V22  1  0.62654239  0.12123038  0.00920719  1
  V  V23  1  0.13010117  0.11728928  0.50917826  1
  V  V24  1  -0.00894162  0.49129789  -0.00032431  1
  V  V25  1  0.13058386  0.88778274  0.74763722  1
  V  V26  1  0.86557902  0.49217051  0.87604009  1
  V  V27  1  0.00372459  0.13425262  0.13039244  1
  V  V28  1  0.12439453  0.74885936  0.87378541  1
  V  V29  1  0.62483209  0.37226842  0.25833477  1
  V  V30  1  0.62308699  0.37797311  0.75008130  1
  V  V31  1  0.23626496  0.37155033  0.61381256  1
  V  V32  1  0.12108649  0.62332469  0.00040651  1
  V  V33  1  0.74489312  -0.00087839  0.74956894  1
  V  V34  1  0.00551371  0.87104837  0.37760755  1
  V  V35  1  0.62641187  0.75457537  0.36730378  1
  V  V36  1  -0.00172685  0.36656780  0.37522175  1
  V  V37  1  0.75286958  0.62608713  0.37375161  1
  V  V38  1  0.51358202  0.87502590  0.86832830  1
  V  V39  1  0.62580755  0.49708754  0.12255498  1
  V  V40  1  0.62375736  0.24808346  0.87658792  1
  V  V41  1  0.38521217  0.61264659  0.25615555  1
  V  V42  1  0.37376773  0.74841580  0.12650291  1
  V  V43  1  0.50339602  0.62526777  0.12012225  1
  V  V44  1  0.50377066  -0.00432141  0.00226327  1
  V  V45  1  0.37796257  0.37444830  0.00560807  1
  V  V46  1  -0.00875542  0.11854011  0.63173408  1
  V  V47  1  0.48720834  0.12055368  0.12553513  1
  V  V48  1  0.50431518  0.88425369  0.37575857  1
  V  V49  1  0.12784778  0.87187844  0.25582400  1
  V  V50  1  0.12627694  0.62521350  0.49973919  1
  V  V51  1  0.37947973  0.74939575  0.62488152  1
  V  V52  1  0.87485441  0.74797645  0.62382366  1
  V  V53  1  0.12409528  0.00118066  0.12596635  1
  V  V54  1  0.37994097  0.88471020  0.49957827  1
  V  V55  1  0.11838649  0.49947136  0.12504272  1
  V  V56  1  0.12807185  0.24770882  0.38466251  1
  V  V57  1  0.12164767  0.36274361  0.25123991  1
  V  V58  1  0.49091997  0.24876956  0.25465719  1
  V  V59  1  0.24890647  0.87230886  0.12605826  1
  V  V60  1  0.24718042  0.62746370  0.37526440  1
  V  V61  1  0.88058076  0.13300432  0.25225064  1
  V  V62  1  0.75215422  0.50564123  0.24946554  1
  V  V63  1  0.87330123  0.75318110  0.12600854  1
  V  V64  1  0.24854465  0.75188303  0.49766635  1
  V  V65  1  0.87039364  0.87363385  0.00081900  1
  V  V66  1  0.37734034  0.62284557  0.74323923  1
  V  V67  1  0.24922742  0.62248173  0.87177598  1
  V  V68  1  0.23716798  0.49091503  0.74292060  1
  V  V69  1  0.49914513  0.37507390  0.87637600  1
  V  V70  1  0.74099970  0.00003740  0.24738856  1
  V  V71  1  0.74515366  0.87354877  0.62797225  1
  V  V72  1  0.50265090  0.76066639  0.24689923  1
  V  V73  1  0.60895706  0.62262083  0.49615449  1
  V  V74  1  0.87685991  0.50375775  0.37289802  1
  V  V75  1  0.51088698  0.74789831  0.75167972  1
  V  V76  1  0.25763100  0.12929967  0.37551674  1
  V  V77  1  0.87630381  0.00261386  0.86970630  1
  V  V78  1  0.00228300  0.49808792  0.50438137  1
  V  V79  1  0.00564876  0.62228710  0.62575138  1
  V  V80  1  0.12587823  0.12410154  -0.00918071  1
  V  V81  1  0.75041067  0.37892199  0.62347913  1
  V  V82  1  0.39591055  0.37425271  0.49977750  1
  V  V83  1  -0.00003746  0.74648802  0.25469264  1
  V  V84  1  0.49822660  0.12584798  0.62762745  1
  Zn  Zn85  1  0.88302460  0.25736229  0.12657882  1
  Zn  Zn86  1  0.50205648  0.50183342  -0.00133348  1
  Zn  Zn87  1  0.36277205  -0.00646233  0.86576862  1
  Zn  Zn88  1  0.74586645  0.74836146  0.49966231  1
  Zn  Zn89  1  0.37115004  0.24286003  0.12736039  1
  Zn  Zn90  1  0.62736903  0.63861845  -0.00926615  1
  Zn  Zn91  1  0.38158943  0.00721843  0.37351779  1
  Zn  Zn92  1  0.74808182  0.50624675  0.74741798  1
  Zn  Zn93  1  0.87410233  0.37297633  0.50130947  1
  Zn  Zn94  1  -0.00191303  0.37608132  0.86751572  1
  Zn  Zn95  1  0.00517294  -0.00360356  0.50527573  1
  Zn  Zn96  1  0.62139188  0.25102427  0.37679169  1
  Zn  Zn97  1  0.38811042  0.50095880  0.39098443  1
  Zn  Zn98  1  0.75761444  0.37866040  0.12358713  1
  Zn  Zn99  1  -0.00219292  0.00124148  0.00127076  1
  Zn  Zn100  1  0.49525647  0.24673890  0.75135862  1
  Zn  Zn101  1  0.86909828  0.24320440  0.63324193  1
  Zn  Zn102  1  0.37508325  0.87066973  -0.00805975  1
  Zn  Zn103  1  -0.00938071  0.25466031  0.74688930  1
  Zn  Zn104  1  0.74914599  0.12662846  0.37428041  1
  Zn  Zn105  1  0.87448300  0.62378711  0.75093155  1
  Zn  Zn106  1  0.36882585  0.25057465  0.62333418  1
  Zn  Zn107  1  0.19033989  0.18762321  0.18780666  1
  Zn  Zn108  1  0.18731030  0.18920675  0.68512314  1
  Zn  Zn109  1  0.18321958  0.68566451  0.19067770  1
  Zn  Zn110  1  0.19033668  0.68934582  0.68531884  1
  Zn  Zn111  1  0.68750994  0.18536361  0.18851368  1
  Zn  Zn112  1  0.68634887  0.18740399  0.68808094  1
  Zn  Zn113  1  0.67243472  0.70708451  0.15824840  1
  Zn  Zn114  1  0.68918436  0.68139462  0.68558920  1
  Zn  Zn115  1  0.31458175  0.31593528  0.32213098  1
  Zn  Zn116  1  0.31108406  0.30908220  0.81008399  1
  Zn  Zn117  1  0.31680439  0.81188721  0.31387546  1
  Zn  Zn118  1  0.31525251  0.81275212  0.81219437  1
  Zn  Zn119  1  0.81009623  0.31516834  0.31332841  1
  Zn  Zn120  1  0.81293770  0.31341383  0.80798566  1
  Zn  Zn121  1  0.81398843  0.81330974  0.30833825  1
  Zn  Zn122  1  0.81394033  0.81525631  0.80741184  1
  Zn  Zn123  1  0.18754753  0.44023239  0.43860279  1
  Zn  Zn124  1  0.18834448  0.43830627  0.93801900  1
  Zn  Zn125  1  0.19269477  0.94050415  0.43620971  1
  Zn  Zn126  1  0.18800800  0.93484620  0.93655182  1
  Zn  Zn127  1  0.68428648  0.43825618  0.43899162  1
  Zn  Zn128  1  0.68656026  0.43906086  0.93893871  1
  Zn  Zn129  1  0.68952585  0.93802455  0.43823180  1
  Zn  Zn130  1  0.68896554  0.93606144  0.93938791  1
  Zn  Zn131  1  0.30118186  0.04814192  0.03025488  1
  Zn  Zn132  1  0.31360144  0.06628244  0.56275204  1
  Zn  Zn133  1  0.31279707  0.55989392  0.06509337  1
  Zn  Zn134  1  0.31578105  0.55627651  0.56400856  1
  Zn  Zn135  1  0.81590734  0.06504037  0.06171450  1
  Zn  Zn136  1  0.81044188  0.05937313  0.55967000  1
  Zn  Zn137  1  0.81041433  0.56663525  0.05964712  1
  Zn  Zn138  1  0.81004857  0.56205621  0.55828411  1
  Zn  Zn139  1  0.44505969  0.44472777  0.20589994  1
  Zn  Zn140  1  0.43344754  0.43412476  0.68473149  1
  Zn  Zn141  1  0.44034199  0.93858185  0.18109227  1
  Zn  Zn142  1  0.43517865  0.93668659  0.69125285  1
  Zn  Zn143  1  0.93420116  0.43368005  0.19176828  1
  Zn  Zn144  1  0.93762614  0.43435922  0.69156130  1
  Zn  Zn145  1  0.93840565  0.94034642  0.19024990  1
  Zn  Zn146  1  0.93768106  0.93922406  0.68877684  1
  Zn  Zn147  1  0.06565952  0.06105563  0.31455230  1
  Zn  Zn148  1  0.06367287  0.06425137  0.81160939  1
  Zn  Zn149  1  0.06348153  0.56202412  0.31598704  1
  Zn  Zn150  1  0.05824181  0.55968384  0.81340191  1
  Zn  Zn151  1  0.56219274  0.06860760  0.30944809  1
  Zn  Zn152  1  0.56244553  0.06028802  0.81285432  1
  Zn  Zn153  1  0.56508101  0.56751448  0.30535963  1
  Zn  Zn154  1  0.56437354  0.56479779  0.81164938  1
  Zn  Zn155  1  0.43839603  0.19232908  0.44392232  1
  Zn  Zn156  1  0.43656927  0.18470923  0.93672887  1
  Zn  Zn157  1  0.43486174  0.69505288  0.43402225  1
  Zn  Zn158  1  0.43760174  0.68972327  0.93318634  1
  Zn  Zn159  1  0.93878198  0.18579365  0.44575741  1
  Zn  Zn160  1  0.94068597  0.18535852  0.93579198  1
  Zn  Zn161  1  0.93686960  0.68767683  0.43766309  1
  Zn  Zn162  1  0.93148679  0.68473018  0.93957497  1
  Zn  Zn163  1  0.06302902  0.31260214  0.05941263  1
  Zn  Zn164  1  0.06035949  0.30723196  0.56515181  1
  Zn  Zn165  1  0.05946004  0.81321005  0.06254385  1
  Zn  Zn166  1  0.06642722  0.81115089  0.56318227  1
  Zn  Zn167  1  0.56354850  0.30979594  0.06790652  1
  Zn  Zn168  1  0.56523205  0.30742622  0.56568395  1
  Zn  Zn169  1  0.56557329  0.81489607  0.05607709  1
  Zn  Zn170  1  0.56176055  0.80933129  0.55941387  1
  O  O171  1  0.12062921  0.11851102  0.12195635  1
  O  O172  1  0.12044632  0.12816579  0.61227811  1
  O  O173  1  0.11267843  0.62025779  0.12098820  1
  O  O174  1  0.11275739  0.62839650  0.61885340  1
  O  O175  1  0.61807840  0.13000350  0.11152208  1
  O  O176  1  0.61924882  0.11598350  0.62075599  1
  O  O177  1  0.61576870  0.60793295  0.13505102  1
  O  O178  1  0.62744688  0.61296264  0.61335091  1
  O  O179  1  0.37429843  0.38126594  0.39307280  1
  O  O180  1  0.37896539  0.37789699  0.88382461  1
  O  O181  1  0.38458813  0.87609125  0.38291797  1
  O  O182  1  0.38632746  0.87614789  0.87465265  1
  O  O183  1  0.88350696  0.38184423  0.37701110  1
  O  O184  1  0.87231524  0.38901512  0.87650723  1
  O  O185  1  0.88282067  0.88015168  0.37978072  1
  O  O186  1  0.87830717  0.88006058  0.88201475  1
  O  O187  1  0.25405811  0.00872632  0.36466296  1
  O  O188  1  0.26592992  0.01091314  0.92277131  1
  O  O189  1  0.25253214  0.50776752  0.36521524  1
  O  O190  1  0.25579036  0.50262907  0.86540497  1
  O  O191  1  0.75924829  0.00054562  0.36498147  1
  O  O192  1  0.75420668  0.00527791  0.86806856  1
  O  O193  1  0.75711738  0.50526024  0.37192780  1
  O  O194  1  0.75843522  0.50254570  0.87363582  1
  O  O195  1  0.23327355  0.49476057  0.12454730  1
  O  O196  1  0.25064608  0.49107503  0.63692440  1
  O  O197  1  0.24031042  0.99522421  0.12838769  1
  O  O198  1  0.25232819  0.98549701  0.61891115  1
  O  O199  1  0.74434370  0.50310210  0.13263055  1
  O  O200  1  0.74074792  0.49418223  0.62493975  1
  O  O201  1  0.75927526  0.99591010  0.13825797  1
  O  O202  1  0.74394243  0.99341360  0.63175569  1
  O  O203  1  0.01172679  0.38494234  0.26432478  1
  O  O204  1  0.00171064  0.36979809  0.75314518  1
  O  O205  1  0.00899539  0.87073434  0.25788707  1
  O  O206  1  0.00851715  0.86945570  0.75479740  1
  O  O207  1  0.51063540  0.35763225  0.24105122  1
  O  O208  1  0.50974877  0.37266234  0.75452065  1
  O  O209  1  0.49438070  0.86647225  0.25515567  1
  O  O210  1  0.49820353  0.86378005  0.75946717  1
  O  O211  1  0.50328465  0.13718349  0.23871184  1
  O  O212  1  0.50059971  0.12444986  0.73894173  1
  O  O213  1  0.50125883  0.64439130  0.23422693  1
  O  O214  1  0.49068512  0.63820368  0.75650586  1
  O  O215  1  0.99416450  0.11918392  0.24322948  1
  O  O216  1  1.00765258  0.12698793  0.73386727  1
  O  O217  1  1.00826350  0.63429727  0.24315975  1
  O  O218  1  0.99839744  0.63001064  0.74105039  1
  O  O219  1  0.36651438  0.25684964  -0.00066879  1
  O  O220  1  0.37742591  0.26698245  0.50440924  1
  O  O221  1  0.36835908  0.74766199  0.00888829  1
  O  O222  1  0.36968822  0.75770991  0.50763198  1
  O  O223  1  0.86140937  0.24282038  0.00009459  1
  O  O224  1  0.86226601  0.25151238  0.50550706  1
  O  O225  1  0.88090610  0.76037747  0.01289273  1
  O  O226  1  0.87314805  0.75445702  0.51032779  1
  O  O227  1  0.12212258  0.23800941  0.48985226  1
  O  O228  1  0.13103471  0.24486415  0.99348505  1
  O  O229  1  0.13486445  0.73735831  0.50384781  1
  O  O230  1  0.12761022  0.74286486  0.99543356  1
  O  O231  1  0.63243478  0.23860951  0.50003227  1
  O  O232  1  0.63196616  0.24347643  0.99128373  1
  O  O233  1  0.62534956  0.74082523  0.48715526  1
  O  O234  1  0.63970922  0.73491580  1.04876240  1
  O  O235  1  0.49534021  0.23951901  0.13143697  1
  O  O236  1  0.50012882  0.23884595  0.63132658  1
  O  O237  1  0.49006309  0.74951523  0.12863574  1
  O  O238  1  0.48737428  0.75702650  0.63564307  1
  O  O239  1  1.00324176  0.23845277  0.12411437  1
  O  O240  1  0.99479490  0.23423415  0.62250158  1
  O  O241  1  0.99424825  0.74387140  0.13273909  1
  O  O242  1  0.99395427  0.74237339  0.62771078  1
  O  O243  1  0.00547207  0.26113527  0.38161399  1
  O  O244  1  0.01359123  0.25206669  0.87870875  1
  O  O245  1  -0.00238177  0.76109783  0.36970196  1
  O  O246  1  0.00301601  0.75405481  0.86985272  1
  O  O247  1  0.50183011  0.24150502  0.35840936  1
  O  O248  1  0.50900977  0.25580594  0.87536869  1
  O  O249  1  0.50682523  0.75902568  0.36457097  1
  O  O250  1  0.49903432  0.75886168  0.86198213  1
  O  O251  1  0.23788047  0.12217751  0.49364392  1
  O  O252  1  0.23796966  0.14363128  1.01472033  1
  O  O253  1  0.24493789  0.62825257  0.49711525  1
  O  O254  1  0.24280310  0.62620350  0.99467265  1
  O  O255  1  0.74236587  0.13189307  0.50022234  1
  O  O256  1  0.74335529  0.12947943  0.99108677  1
  O  O257  1  0.74039556  0.62608261  0.48616775  1
  O  O258  1  0.74995320  0.62503498  0.98210848  1
  O  O259  1  0.25581261  0.36850270  0.00626460  1
  O  O260  1  0.25183057  0.38199494  0.51218149  1
  O  O261  1  0.24885058  0.86046990  0.01043854  1
  O  O262  1  0.25553741  0.86735177  0.50417042  1
  O  O263  1  0.74458960  0.35831338  0.00038277  1
  O  O264  1  0.74654719  0.36720207  0.50724672  1
  O  O265  1  0.76270852  0.88185911  0.01037274  1
  O  O266  1  0.75767778  0.87231511  0.50983425  1
  O  O267  1  0.13127563  0.49404691  0.24624749  1
  O  O268  1  0.13946684  0.50324539  0.75468456  1
  O  O269  1  0.13346276  0.98972258  0.24454295  1
  O  O270  1  0.12869813  0.98670881  0.75900149  1
  O  O271  1  0.63209897  0.49134879  0.24465848  1
  O  O272  1  0.62560437  0.49495542  0.73912801  1
  O  O273  1  0.64272809  1.00596942  0.25295142  1
  O  O274  1  0.63711246  1.00089479  0.74221448  1
  O  O275  1  0.36267514  -0.00518332  0.24813524  1
  O  O276  1  0.37529013  0.01431890  0.74925943  1
  O  O277  1  0.34603789  0.50421853  0.22000295  1
  O  O278  1  0.37026571  0.50695595  0.75393035  1
  O  O279  1  0.87309234  0.00833450  0.26066979  1
  O  O280  1  0.86322167  -0.00649486  0.76186401  1
  O  O281  1  0.86806045  0.49967657  0.26411087  1
  O  O282  1  0.87166586  0.50343588  0.76378691  1
  O  O283  1  0.12081435  0.36709921  0.37208583  1
  O  O284  1  0.12308565  0.36315057  0.88014415  1
  O  O285  1  0.11916349  0.87885610  0.36749052  1
  O  O286  1  0.12118507  0.86774714  0.87076999  1
  O  O287  1  0.62433353  0.37538394  0.36271276  1
  O  O288  1  0.62049949  0.37046520  0.86880074  1
  O  O289  1  0.61864899  0.86591811  0.38105972  1
  O  O290  1  0.61344115  0.87411088  0.87587628  1
  O  O291  1  0.38593851  0.12181318  0.11296036  1
  O  O292  1  0.38169185  0.12699730  0.63247718  1
  O  O293  1  0.38332087  0.63196772  0.12899558  1
  O  O294  1  0.37066628  0.63208530  0.63530684  1
  O  O295  1  0.88695950  0.12636402  0.13312609  1
  O  O296  1  0.88766335  0.12108172  0.61927310  1
  O  O297  1  0.88439580  0.63450921  0.12237569  1
  O  O298  1  0.88284433  0.63234454  0.62309084  1
  O  O299  1  0.25214097  0.26060325  0.12128264  1
  O  O300  1  0.24987577  0.26765056  0.62997787  1
  O  O301  1  0.25627748  0.74866437  0.12317187  1
  O  O302  1  0.26072483  0.75436649  0.61470941  1
  O  O303  1  0.74958649  0.24570933  0.10912315  1
  O  O304  1  0.74561086  0.25875401  0.61749206  1
  O  O305  1  0.77062303  0.76619308  0.14771696  1
  O  O306  1  0.75694516  0.75548213  0.62425918  1
  O  O307  1  0.23964244  0.24166232  0.36871209  1
  O  O308  1  0.23791362  0.25506454  0.88449472  1
  O  O309  1  0.25562048  0.74444075  0.38892404  1
  O  O310  1  0.24503400  0.74176364  0.87975457  1
  O  O311  1  0.74585638  0.24897341  0.38539740  1
  O  O312  1  0.74487909  0.24367270  0.88404166  1
  O  O313  1  0.74412697  0.74399520  0.37145829  1
  O  O314  1  0.75421431  0.74299981  0.87253320  1
  O  O315  1  0.00936142  0.12248512  0.01039791  1
  O  O316  1  0.01195061  0.11987209  0.50792413  1
  O  O317  1  0.00275909  0.61779001  0.00905143  1
  O  O318  1  0.00757093  0.62116730  0.50423256  1
  O  O319  1  0.50739337  0.11673624  0.00354638  1
  O  O320  1  0.50763678  0.12653102  0.51328858  1
  O  O321  1  0.50326338  0.62770130  0.00920130  1
  O  O322  1  0.50917676  0.62637100  0.48828352  1
  O  O323  1  0.49587347  0.37378559  0.50213616  1
  O  O324  1  0.49306993  0.37489421  0.99664913  1
  O  O325  1  0.49123453  0.86889834  0.48879310  1
  O  O326  1  0.50224896  0.87723780  0.98789741  1
  O  O327  1  0.99976746  0.38312850  0.49447363  1
  O  O328  1  1.00222934  0.38904465  0.99770941  1
  O  O329  1  0.99676192  0.87466758  0.49414196  1
  O  O330  1  0.99138008  0.87815110  0.99304969  1
  O  O331  1  0.46174950  0.52042751  0.30636044  1
  O  O332  1  0.49369773  0.49429481  0.87609363  1
  O  O333  1  0.49998792  0.98852242  0.36551018  1
  O  O334  1  0.50010135  0.98661067  0.87874432  1
  O  O335  1  0.99447077  0.49570621  0.38448438  1
  O  O336  1  0.98614986  0.50255098  0.88349263  1
  O  O337  1  0.99456215  0.98725551  0.37548158  1
  O  O338  1  0.99174816  0.99445777  0.87396783  1
  O  O339  1  0.01289976  0.00610763  0.12729896  1
  O  O340  1  -0.00091131  0.01134922  0.62375238  1
  O  O341  1  -0.00145318  0.50749062  0.12077119  1
  O  O342  1  -0.00907096  0.50809731  0.61213851  1
  O  O343  1  0.50611889  0.00770287  0.11883196  1
  O  O344  1  0.51255789  0.00122212  0.63046711  1
  O  O345  1  0.50535449  0.50996738  0.12450490  1
  O  O346  1  0.51331782  0.49903569  0.62960255  1
  O  O347  1  0.24121661  0.38133845  0.24798598  1
  O  O348  1  0.25438240  0.38696836  0.74194395  1
  O  O349  1  0.24438852  0.87805708  0.24626314  1
  O  O350  1  0.24245607  0.86713467  0.74010584  1
  O  O351  1  0.74259781  0.38692006  0.24991829  1
  O  O352  1  0.73594469  0.37843902  0.74365045  1
  O  O353  1  0.75871409  0.89249208  0.24374288  1
  O  O354  1  0.75175078  0.88171173  0.73628849  1
  O  O355  1  0.24491387  0.11632826  0.25952253  1
  O  O356  1  0.26008017  0.12443916  0.74742522  1
  O  O357  1  0.25248531  0.62019975  0.25898000  1
  O  O358  1  0.25681577  0.61602947  0.75203104  1
  O  O359  1  0.75961220  0.11516033  0.25039744  1
  O  O360  1  0.74433322  0.11798451  0.76302923  1
  O  O361  1  0.74244027  0.61103125  0.26272374  1
  O  O362  1  0.75368452  0.62487847  0.76092994  1
  O  O363  1  0.36205236  0.12529219  0.38502384  1
  O  O364  1  0.38062917  0.12191498  0.85864368  1
  O  O365  1  0.36200756  0.62468456  0.37477320  1
  O  O366  1  0.36840617  0.62023565  0.86550795  1
  O  O367  1  0.87697401  0.11710017  0.37082952  1
  O  O368  1  0.86615710  0.11443133  0.88104733  1
  O  O369  1  0.86579650  0.61835075  0.37870848  1
  O  O370  1  0.86339956  0.61899050  0.87282501  1
  O  O371  1  0.12608079  0.37876608  0.13460889  1
  O  O372  1  0.13643258  0.37558397  0.61746129  1
  O  O373  1  0.12860554  0.88193984  0.13118844  1
  O  O374  1  0.13497457  0.86909579  0.63506389  1
  O  O375  1  0.62959924  0.38431866  0.13268837  1
  O  O376  1  0.63023863  0.38419661  0.63024387  1
  O  O377  1  0.64033733  0.87903922  0.12480357  1
  O  O378  1  0.63375121  0.88181705  0.61547638  1
  O  O379  1  0.12541578  0.25927564  0.25819855  1
  O  O380  1  0.12602436  0.24375238  0.76660667  1
  O  O381  1  0.11602889  0.76358182  0.24482527  1
  O  O382  1  0.11981608  0.75295600  0.75602180  1
  O  O383  1  0.62013666  0.25662856  0.25049743  1
  O  O384  1  0.62633009  0.25742508  0.76305218  1
  O  O385  1  0.61794956  0.74940329  0.25798325  1
  O  O386  1  0.60858129  0.74462683  0.73891548  1
  O  O387  1  0.38724334  0.25755651  0.24805621  1
  O  O388  1  0.37596139  0.23711326  0.74753127  1
  O  O389  1  0.38203983  0.74038699  0.24484657  1
  O  O390  1  0.37913057  0.74155908  0.74195999  1
  O  O391  1  0.86909165  0.23598401  0.25165237  1
  O  O392  1  0.87404129  0.24537246  0.74767371  1
  O  O393  1  0.89364608  0.75692720  0.24443832  1
  O  O394  1  0.88402385  0.75103104  0.73708096  1
  O  O395  1  0.37969614  0.48609120  0.50355427  1
  O  O396  1  0.37546367  0.49203779  0.99246969  1
  O  O397  1  0.37254615  0.98758125  0.49775689  1
  O  O398  1  0.39734976  0.98912893  1.00720213  1
  O  O399  1  0.88170002  0.49828290  0.48893173  1
  O  O400  1  0.87923012  0.50563504  0.98801887  1
  O  O401  1  0.87618604  0.99362536  0.48741318  1
  O  O402  1  0.87663244  0.99351930  0.98922734  1
  O  O403  1  0.12137883  0.00782400  0.00972245  1
  O  O404  1  0.12388587  0.01363833  0.49418039  1
  O  O405  1  0.11506576  0.50534808  0.00404704  1
  O  O406  1  0.11586849  0.51427727  0.49497151  1
  O  O407  1  0.61694403  0.00945947  -0.00703994  1
  O  O408  1  0.63265150  0.01116049  0.50986959  1
  O  O409  1  0.62296277  0.50336547  0.01026845  1
  O  O410  1  0.62335484  0.50612865  0.50972301  1
  O  O411  1  0.37155610  0.37707153  0.11307078  1
  O  O412  1  0.36848900  0.37351178  0.61420556  1
  O  O413  1  0.36807098  0.86074089  0.12581412  1
  O  O414  1  0.36968608  0.86868850  0.61914119  1
  O  O415  1  0.87083107  0.36933946  0.12942679  1
  O  O416  1  0.85857533  0.37873363  0.62295917  1
  O  O417  1  0.87738007  0.87195143  0.11742548  1
  O  O418  1  0.87017221  0.86853457  0.61977287  1
  O  O419  1  0.13111903  0.13073774  0.38248758  1
  O  O420  1  0.12086493  0.13185795  0.88770020  1
  O  O421  1  0.13816929  0.62495469  0.38166031  1
  O  O422  1  0.12869076  0.62898172  0.88018466  1
  O  O423  1  0.62706883  0.12542559  0.38584922  1
  O  O424  1  0.63074212  0.13277519  0.88147231  1
  O  O425  1  0.62976245  0.63085344  0.37772732  1
  O  O426  1  0.64087893  0.62414894  0.87433378  1
