# generated using pymatgen
data_V85Zn86O256
_symmetry_space_group_name_H-M   'P 1'
_cell_length_a   16.94206448
_cell_length_b   16.93941244
_cell_length_c   16.93919071
_cell_angle_alpha   89.99794476
_cell_angle_beta   90.01502102
_cell_angle_gamma   89.96925500
_symmetry_Int_Tables_number   1
_chemical_formula_structural   V85Zn86O256
_chemical_formula_sum   'V85 Zn86 O256'
_cell_volume   4861.35405862
_cell_formula_units_Z   1
loop_
 _symmetry_equiv_pos_site_id
 _symmetry_equiv_pos_as_xyz
  1  'x, y, z'
loop_
 _atom_site_type_symbol
 _atom_site_label
 _atom_site_symmetry_multiplicity
 _atom_site_fract_x
 _atom_site_fract_y
 _atom_site_fract_z
 _atom_site_occupancy
  V  V0  1  0.36873355  0.00910992  0.37566489  1
  V  V1  1  -0.00436047  0.13031900  0.12071836  1
  V  V2  1  0.75559773  -0.00187168  0.25283670  1
  V  V3  1  0.88163013  0.12457578  0.74926949  1
  V  V4  1  0.62828101  0.00207141  0.12277882  1
  V  V5  1  -0.01034663  0.87337642  0.37195130  1
  V  V6  1  0.75321443  0.74308354  -0.00202118  1
  V  V7  1  0.00112654  -0.00262184  -0.00303887  1
  V  V8  1  0.50441288  0.38099134  0.87813023  1
  V  V9  1  0.62884537  0.25035485  0.87039739  1
  V  V10  1  0.11654082  0.61804047  0.49688561  1
  V  V11  1  0.87845642  0.64392684  0.24295756  1
  V  V12  1  0.86731431  0.62462361  0.73616543  1
  V  V13  1  0.88165805  0.24564709  0.62539224  1
  V  V14  1  -0.00396030  0.25217077  0.24541076  1
  V  V15  1  0.62173388  0.51170513  0.60910358  1
  V  V16  1  0.75099927  -0.00440423  0.75248932  1
  V  V17  1  0.75499358  0.74509556  0.50534022  1
  V  V18  1  0.37082919  0.87292801  0.50239090  1
  V  V19  1  0.49944321  0.24915553  0.24813932  1
  V  V20  1  0.37580892  0.87648400  -0.00255482  1
  V  V21  1  0.37390075  0.50077294  0.37800043  1
  V  V22  1  0.62486407  0.12253734  0.50048413  1
  V  V23  1  0.87310918  0.37572695  0.49908687  1
  V  V24  1  0.24497170  0.74628247  0.50320271  1
  V  V25  1  0.62304179  0.49824850  0.12500995  1
  V  V26  1  0.73264599  0.50188550  0.75630145  1
  V  V27  1  0.37295424  0.62546881  0.24776971  1
  V  V28  1  0.88345566  0.86754206  0.00091607  1
  V  V29  1  0.24900851  0.87633938  0.12395684  1
  V  V30  1  0.12393141  0.00097128  0.12293735  1
  V  V31  1  0.75417541  0.86721670  0.12437542  1
  V  V32  1  0.87438130  0.36937813  -0.00064543  1
  V  V33  1  0.75769420  0.86935179  0.62648787  1
  V  V34  1  0.50082210  0.62045660  0.12260554  1
  V  V35  1  0.00217862  0.37461364  0.37631225  1
  V  V36  1  0.24574450  0.62766892  0.37404126  1
  V  V37  1  0.50707825  0.00102813  -0.00247850  1
  V  V38  1  0.13132794  0.61232192  0.00468906  1
  V  V39  1  0.25171152  0.24878203  -0.00768656  1
  V  V40  1  0.25008112  0.24862029  0.49391000  1
  V  V41  1  0.87601231  0.12470522  0.24965937  1
  V  V42  1  0.75201671  0.49970200  0.24966746  1
  V  V43  1  0.49813847  0.37414312  0.37821429  1
  V  V44  1  -0.00352792  0.76054028  0.73872102  1
  V  V45  1  0.04924467  0.56782175  0.67392837  1
  V  V46  1  0.62504079  0.24700563  0.37416744  1
  V  V47  1  0.44767997  0.70453893  0.68437765  1
  V  V48  1  0.12697827  0.12474451  0.49095935  1
  V  V49  1  0.74682246  0.12103866  0.88018228  1
  V  V50  1  0.12926857  0.12503107  -0.00809009  1
  V  V51  1  0.12282551  0.38233234  0.24367314  1
  V  V52  1  0.50085492  0.24311867  0.75236362  1
  V  V53  1  0.86743601  0.50924262  0.87752375  1
  V  V54  1  0.50019420  0.87012887  0.86849841  1
  V  V55  1  0.49831198  0.00200232  0.50014792  1
  V  V56  1  0.37585486  0.37833516  0.50404895  1
  V  V57  1  0.25300535  0.01402077  0.75064930  1
  V  V58  1  0.75562695  0.36944270  0.12684344  1
  V  V59  1  0.12736226  0.25355082  0.86600974  1
  V  V60  1  0.74719388  0.62372856  0.37770364  1
  V  V61  1  0.50238999  0.12527313  0.12073113  1
  V  V62  1  0.37740419  0.75255457  0.12536647  1
  V  V63  1  0.11989120  0.00688435  0.62368308  1
  V  V64  1  0.74773708  0.24353629  0.00485850  1
  V  V65  1  0.75026285  0.24726440  0.50108929  1
  V  V66  1  0.00015646  0.37515677  0.86821574  1
  V  V67  1  0.62556736  -0.00073718  0.62773361  1
  V  V68  1  0.49870325  0.87845428  0.37095102  1
  V  V69  1  0.62600656  0.62197119  -0.00665085  1
  V  V70  1  0.24614626  0.00888552  0.25294061  1
  V  V71  1  0.12069574  0.86974546  0.25136056  1
  V  V72  1  0.88063772  -0.00740254  0.87524629  1
  V  V73  1  0.75395086  0.12010798  0.37426007  1
  V  V74  1  0.11789005  0.75933575  0.88060169  1
  V  V75  1  0.62504927  0.74657128  0.87098585  1
  V  V76  1  -0.00953413  0.00731599  0.49603263  1
  V  V77  1  0.37312438  0.24242934  0.63087460  1
  V  V78  1  0.62493854  0.75075863  0.37839289  1
  V  V79  1  0.24718614  0.38389864  0.12139101  1
  V  V80  1  0.73914862  0.37253990  0.63141156  1
  V  V81  1  0.24016493  0.38235136  0.63307983  1
  V  V82  1  0.37227446  0.01206707  0.87028544  1
  V  V83  1  0.24804417  0.87618085  0.62771933  1
  V  V84  1  0.37220198  0.25101176  0.12280159  1
  Zn  Zn85  1  0.50227990  0.74982403  0.25014663  1
  Zn  Zn86  1  0.37179813  0.50822030  0.87386207  1
  Zn  Zn87  1  0.62531829  0.87536947  0.24856923  1
  Zn  Zn88  1  0.13009886  0.24661349  0.36907684  1
  Zn  Zn89  1  0.25426973  0.62723373  0.85915039  1
  Zn  Zn90  1  0.62250495  0.86840264  0.74685834  1
  Zn  Zn91  1  0.87480375  0.87470201  0.50030051  1
  Zn  Zn92  1  0.49378154  0.11932061  0.63287091  1
  Zn  Zn93  1  0.24372994  0.50430552  0.24529312  1
  Zn  Zn94  1  0.62520626  0.37458669  0.24976932  1
  Zn  Zn95  1  0.38408291  0.38178568  0.00028154  1
  Zn  Zn96  1  0.12081975  0.88049200  0.75295241  1
  Zn  Zn97  1  0.87462291  0.50222303  0.37429561  1
  Zn  Zn98  1  0.36768932  0.12880636  0.25307416  1
  Zn  Zn99  1  0.21476590  0.49069163  0.75371531  1
  Zn  Zn100  1  0.11689683  0.74929829  0.37269427  1
  Zn  Zn101  1  0.00167540  0.62845151  0.12784765  1
  Zn  Zn102  1  0.00137650  0.49641735  0.00826901  1
  Zn  Zn103  1  -0.00287933  0.50268366  0.50224335  1
  Zn  Zn104  1  0.46166882  0.55698647  0.54742820  1
  Zn  Zn105  1  0.00591608  0.24983314  0.74512142  1
  Zn  Zn106  1  0.25247270  0.74976667  -0.00928424  1
  Zn  Zn107  1  0.18259172  0.19176631  0.18167007  1
  Zn  Zn108  1  0.18720483  0.18788710  0.67941565  1
  Zn  Zn109  1  0.18682340  0.69128159  0.18295935  1
  Zn  Zn110  1  0.18845947  0.69324542  0.68981571  1
  Zn  Zn111  1  0.68641546  0.18533290  0.18605183  1
  Zn  Zn112  1  0.69171336  0.18313217  0.69066629  1
  Zn  Zn113  1  0.68618561  0.68646010  0.19172613  1
  Zn  Zn114  1  0.68101064  0.68137551  0.68725234  1
  Zn  Zn115  1  0.31063527  0.31418495  0.31050198  1
  Zn  Zn116  1  0.31731675  0.31428614  0.81139290  1
  Zn  Zn117  1  0.30887477  0.81438181  0.31341201  1
  Zn  Zn118  1  0.31115624  0.81187988  0.80960063  1
  Zn  Zn119  1  0.81451385  0.30947619  0.31151970  1
  Zn  Zn120  1  0.81203278  0.31411224  0.81266204  1
  Zn  Zn121  1  0.81011901  0.81513908  0.31680831  1
  Zn  Zn122  1  0.81369031  0.80747299  0.81454872  1
  Zn  Zn123  1  0.18886736  0.43769374  0.43827466  1
  Zn  Zn124  1  0.19417799  0.43482316  0.93240547  1
  Zn  Zn125  1  0.18352067  0.93813865  0.43589826  1
  Zn  Zn126  1  0.18914658  0.93684783  0.93352109  1
  Zn  Zn127  1  0.68754575  0.43359199  0.43542784  1
  Zn  Zn128  1  0.68467689  0.43545388  0.93975933  1
  Zn  Zn129  1  0.68896013  0.93534316  0.43868801  1
  Zn  Zn130  1  0.68943397  0.93152153  0.93862598  1
  Zn  Zn131  1  0.31426933  0.06377934  0.06024777  1
  Zn  Zn132  1  0.30777428  0.06325119  0.56185741  1
  Zn  Zn133  1  0.31736595  0.56200237  0.05027171  1
  Zn  Zn134  1  0.33801020  0.56880778  0.68974402  1
  Zn  Zn135  1  0.81581493  0.05943063  0.06400477  1
  Zn  Zn136  1  0.81179147  0.06195664  0.56602486  1
  Zn  Zn137  1  0.81316337  0.55930749  0.06510301  1
  Zn  Zn138  1  0.80693473  0.55870843  0.56249547  1
  Zn  Zn139  1  0.43595395  0.43878177  0.18903686  1
  Zn  Zn140  1  0.44573405  0.41848190  0.69017595  1
  Zn  Zn141  1  0.43476600  0.94183447  0.18861506  1
  Zn  Zn142  1  0.43474038  0.93340716  0.68802753  1
  Zn  Zn143  1  0.93675893  0.44417186  0.18322459  1
  Zn  Zn144  1  0.92203013  0.43163910  0.69303902  1
  Zn  Zn145  1  0.93655725  0.93495817  0.18524294  1
  Zn  Zn146  1  0.93844914  0.93931930  0.68339627  1
  Zn  Zn147  1  0.06007727  0.05963431  0.31366050  1
  Zn  Zn148  1  0.06328509  0.06318698  0.81195463  1
  Zn  Zn149  1  0.05741752  0.56024843  0.31234793  1
  Zn  Zn150  1  0.05320255  0.57270357  0.84108092  1
  Zn  Zn151  1  0.56373919  0.06226391  0.30896545  1
  Zn  Zn152  1  0.56452901  0.06225339  0.81393865  1
  Zn  Zn153  1  0.54191079  0.58012449  0.34984878  1
  Zn  Zn154  1  0.52128376  0.54619234  0.77745877  1
  Zn  Zn155  1  0.43643738  0.18857831  0.44139626  1
  Zn  Zn156  1  0.44056767  0.18952141  0.93946931  1
  Zn  Zn157  1  0.43160914  0.69484133  0.43882476  1
  Zn  Zn158  1  0.43858810  0.68328309  0.93531273  1
  Zn  Zn159  1  0.93835290  0.18766005  0.43360864  1
  Zn  Zn160  1  0.93635546  0.18800845  0.93414621  1
  Zn  Zn161  1  0.93270394  0.68837392  0.43470627  1
  Zn  Zn162  1  0.94270770  0.68776914  0.93952421  1
  Zn  Zn163  1  0.06352223  0.31261522  0.05820870  1
  Zn  Zn164  1  0.06394091  0.31339550  0.56108656  1
  Zn  Zn165  1  0.05768492  0.80224213  0.06901928  1
  Zn  Zn166  1  0.06310198  0.81547487  0.55903863  1
  Zn  Zn167  1  0.56990488  0.30996749  0.05856140  1
  Zn  Zn168  1  0.56032891  0.30913140  0.56380538  1
  Zn  Zn169  1  0.56402533  0.81114703  0.06112866  1
  Zn  Zn170  1  0.56951193  0.81834766  0.55496591  1
  O  O171  1  0.11682424  0.12043784  0.11336329  1
  O  O172  1  0.12532526  0.11381783  0.61260020  1
  O  O173  1  0.12683982  0.63084552  0.10816122  1
  O  O174  1  0.11500355  0.62451736  0.61784009  1
  O  O175  1  0.61817480  0.11119676  0.12705867  1
  O  O176  1  0.62801949  0.11165466  0.62084170  1
  O  O177  1  0.61833591  0.61796519  0.12358975  1
  O  O178  1  0.62292276  0.61182558  0.61621476  1
  O  O179  1  0.37905272  0.37689408  0.38189170  1
  O  O180  1  0.39529963  0.37316216  0.87395373  1
  O  O181  1  0.37904835  0.88541984  0.38091247  1
  O  O182  1  0.38194043  0.87973102  0.88225901  1
  O  O183  1  0.88063194  0.37108982  0.38533096  1
  O  O184  1  0.87907476  0.38115133  0.88181869  1
  O  O185  1  0.88617939  0.87993586  0.37521761  1
  O  O186  1  0.86913226  0.88559657  0.88424387  1
  O  O187  1  0.25674849  -0.00443072  0.36540833  1
  O  O188  1  0.25962512  -0.00452521  0.86346427  1
  O  O189  1  0.25634503  0.50926304  0.37275804  1
  O  O190  1  0.25138687  0.49918181  0.86140488  1
  O  O191  1  0.74465173  0.00599563  0.36409944  1
  O  O192  1  0.75673536  0.00359562  0.87332541  1
  O  O193  1  0.74754384  0.50664090  0.36766940  1
  O  O194  1  0.75335339  0.49211509  0.86602612  1
  O  O195  1  0.25657368  0.48611807  0.12479061  1
  O  O196  1  0.25864413  0.48339289  0.63613743  1
  O  O197  1  0.24648794  0.99243337  0.12913526  1
  O  O198  1  0.24211931  0.99474999  0.62939024  1
  O  O199  1  0.74555290  0.48943735  0.13154158  1
  O  O200  1  0.73747229  0.49150800  0.63073341  1
  O  O201  1  0.74317283  0.99277751  0.12862879  1
  O  O202  1  0.74420147  0.99248764  0.63158443  1
  O  O203  1  0.00271066  0.36866192  0.25252392  1
  O  O204  1  -0.01029044  0.37057117  0.76424490  1
  O  O205  1  0.00604543  0.88762060  0.26332390  1
  O  O206  1  -0.00250310  0.86422537  0.74903998  1
  O  O207  1  0.49982967  0.36022506  0.25252231  1
  O  O208  1  0.50861856  0.35445807  0.76487234  1
  O  O209  1  0.49825449  0.87733345  0.26127962  1
  O  O210  1  0.50268436  0.88024072  0.76468333  1
  O  O211  1  0.49782762  0.13316308  0.23943369  1
  O  O212  1  0.50468290  0.13525041  0.74976316  1
  O  O213  1  0.48862344  0.62760033  0.24729605  1
  O  O214  1  0.51048780  0.65359437  0.74606065  1
  O  O215  1  0.99534581  0.12977094  0.24342892  1
  O  O216  1  0.98562423  0.12752319  0.75417511  1
  O  O217  1  0.98041249  0.62330447  0.25659438  1
  O  O218  1  0.99423589  0.62765799  0.74311057  1
  O  O219  1  0.36787954  0.25245282  0.00622734  1
  O  O220  1  0.36760771  0.25721953  0.50506720  1
  O  O221  1  0.37521837  0.76424539  0.00628830  1
  O  O222  1  0.36087506  0.76349681  0.49275511  1
  O  O223  1  0.86395625  0.26096080  -0.00777662  1
  O  O224  1  0.87045351  0.25329871  0.50641400  1
  O  O225  1  0.86731047  0.75685266  -0.00840641  1
  O  O226  1  0.85953011  0.75427800  0.49591259  1
  O  O227  1  0.13139507  0.24170057  0.49893445  1
  O  O228  1  0.13260528  0.24277261  0.99108465  1
  O  O229  1  0.12834041  0.74108627  0.49623348  1
  O  O230  1  0.12758250  0.75417964  0.98830728  1
  O  O231  1  0.63023179  0.24143739  0.49513156  1
  O  O232  1  0.64074597  0.24529660  0.99061866  1
  O  O233  1  0.63547461  0.75585002  0.48525550  1
  O  O234  1  0.63417407  0.74367499  0.99596364  1
  O  O235  1  0.49672250  0.24380354  0.12819236  1
  O  O236  1  0.49301151  0.24724370  0.63477896  1
  O  O237  1  0.49476065  0.74459506  0.12968615  1
  O  O238  1  0.50048732  0.76923288  0.62741909  1
  O  O239  1  1.00407048  0.23800667  0.12897391  1
  O  O240  1  0.98594323  0.25742379  0.62663590  1
  O  O241  1  0.99362459  0.74052404  0.12984581  1
  O  O242  1  1.00202292  0.75525941  0.63919272  1
  O  O243  1  0.00159191  0.25983408  0.36560048  1
  O  O244  1  0.00835438  0.25655478  0.87368590  1
  O  O245  1  -0.00105434  0.76901708  0.37846767  1
  O  O246  1  0.01405459  0.74430961  0.86497201  1
  O  O247  1  0.50173581  0.25372248  0.36584140  1
  O  O248  1  0.51205823  0.24681578  0.87137986  1
  O  O249  1  0.50632980  0.76224167  0.37351936  1
  O  O250  1  0.51174177  0.76161902  0.88855685  1
  O  O251  1  0.23994021  0.13504894  0.50196189  1
  O  O252  1  0.24105968  0.13538046  1.00569995  1
  O  O253  1  0.23989297  0.63632925  0.48893766  1
  O  O254  1  0.23919994  0.63189581  1.00109276  1
  O  O255  1  0.74572979  0.12724047  0.49439408  1
  O  O256  1  0.76057707  0.13114993  0.99286556  1
  O  O257  1  0.75345355  0.63142161  0.49044724  1
  O  O258  1  0.74248166  0.63586497  1.01067646  1
  O  O259  1  0.25056933  0.36396361  0.00709085  1
  O  O260  1  0.25744052  0.36985064  0.50842764  1
  O  O261  1  0.25923831  0.87771666  0.00705029  1
  O  O262  1  0.25284568  0.87127196  0.50470172  1
  O  O263  1  0.75448867  0.36475044  0.00741153  1
  O  O264  1  0.75688633  0.36580839  0.50396397  1
  O  O265  1  0.75878078  0.86642245  0.00741840  1
  O  O266  1  0.75239705  0.86843458  0.50794667  1
  O  O267  1  0.12440325  0.48643380  0.25198141  1
  O  O268  1  0.09938138  0.51314141  0.74418958  1
  O  O269  1  0.12938148  0.99372477  0.24370086  1
  O  O270  1  0.12896687  1.00049527  0.74141641  1
  O  O271  1  0.63847144  0.49654342  0.23779093  1
  O  O272  1  0.63054891  0.50575464  0.73887083  1
  O  O273  1  0.63628697  0.99880534  0.24120452  1
  O  O274  1  0.63218633  0.99667152  0.74353449  1
  O  O275  1  0.36454236  0.00403998  0.25732690  1
  O  O276  1  0.36672920  -0.00285614  0.75829736  1
  O  O277  1  0.36985966  0.51217859  0.25491724  1
  O  O278  1  0.40931574  0.50481892  0.75527917  1
  O  O279  1  0.86289713  0.00730303  0.24415151  1
  O  O280  1  0.87246126  0.00383717  0.75716698  1
  O  O281  1  0.86026539  0.49721062  0.25408778  1
  O  O282  1  0.86324649  0.50834046  0.75781497  1
  O  O283  1  0.11755052  0.37161877  0.36766656  1
  O  O284  1  0.11354459  0.36486857  0.88092949  1
  O  O285  1  0.11428592  0.87611676  0.36635524  1
  O  O286  1  0.12395072  0.86457751  0.87180855  1
  O  O287  1  0.61601074  0.36539711  0.37320702  1
  O  O288  1  0.62104831  0.35896615  0.87989986  1
  O  O289  1  0.61489210  0.87236916  0.37330582  1
  O  O290  1  0.61714386  0.86662630  0.87595784  1
  O  O291  1  0.38231131  0.13550192  0.12614057  1
  O  O292  1  0.37586041  0.13812295  0.61654229  1
  O  O293  1  0.38119810  0.62948109  0.12981152  1
  O  O294  1  0.40268610  0.63089555  0.61929667  1
  O  O295  1  0.88379336  0.12147587  0.13574555  1
  O  O296  1  0.86809303  0.13426975  0.63535710  1
  O  O297  1  0.86700142  0.62426001  0.14218914  1
  O  O298  1  0.87173484  0.61970048  0.63636780  1
  O  O299  1  0.25769616  0.25524628  0.11701711  1
  O  O300  1  0.25680798  0.25711703  0.61603805  1
  O  O301  1  0.25693269  0.76547339  0.12314688  1
  O  O302  1  0.24063114  0.76190108  0.61218791  1
  O  O303  1  0.74520210  0.25556261  0.11739045  1
  O  O304  1  0.75623928  0.25451482  0.62112561  1
  O  O305  1  0.74073484  0.76263469  0.11907142  1
  O  O306  1  0.73793332  0.75725816  0.61667460  1
  O  O307  1  0.24923319  0.25555722  0.38854952  1
  O  O308  1  0.24428839  0.25720187  0.88405055  1
  O  O309  1  0.24369064  0.74538797  0.38191518  1
  O  O310  1  0.23476331  0.75187139  0.87064121  1
  O  O311  1  0.74497983  0.24157050  0.37969526  1
  O  O312  1  0.74629849  0.24127341  0.87930779  1
  O  O313  1  0.74324421  0.74505881  0.38128647  1
  O  O314  1  0.74118117  0.75422090  0.88952802  1
  O  O315  1  0.00393031  0.12125237  0.00571164  1
  O  O316  1  0.00485024  0.11365344  0.49476460  1
  O  O317  1  0.01842203  0.62145316  -0.00593575  1
  O  O318  1  0.00635087  0.62137534  0.49011114  1
  O  O319  1  0.49758605  0.11680482  0.01275304  1
  O  O320  1  0.50736528  0.11860467  0.50346761  1
  O  O321  1  0.50957484  0.63114129  0.01716127  1
  O  O322  1  0.49632022  0.60788115  0.45472039  1
  O  O323  1  0.49010393  0.36236280  0.48839550  1
  O  O324  1  0.50241537  0.36224884  0.98333364  1
  O  O325  1  0.49058792  0.88219541  0.48905068  1
  O  O326  1  0.49381133  0.88366442  0.99560934  1
  O  O327  1  0.99223243  0.37510374  0.49243799  1
  O  O328  1  0.98938967  0.37310678  0.99319362  1
  O  O329  1  0.99778063  0.88521398  0.48903997  1
  O  O330  1  0.98914676  0.87992555  1.00479602  1
  O  O331  1  0.49064537  0.47781371  0.35888661  1
  O  O332  1  0.51940439  0.48021023  0.87398282  1
  O  O333  1  0.49334359  0.99585811  0.37821255  1
  O  O334  1  0.49639485  0.99439725  0.88312223  1
  O  O335  1  0.99462289  0.48484164  0.37560728  1
  O  O336  1  0.98695219  0.49042412  0.88461088  1
  O  O337  1  1.00314622  0.99171796  0.38880743  1
  O  O338  1  0.99013566  1.00434467  0.88185473  1
  O  O339  1  0.00500540  0.00974695  0.11815602  1
  O  O340  1  0.00738940  -0.00496439  0.60911874  1
  O  O341  1  -0.00583507  0.51299418  0.11951851  1
  O  O342  1  -0.00687800  0.49803285  0.62397738  1
  O  O343  1  0.50615368  0.00587484  0.12012929  1
  O  O344  1  0.50761704  -0.00145911  0.62023724  1
  O  O345  1  0.50999998  0.50777050  0.13286081  1
  O  O346  1  0.51749465  0.48740306  0.62223017  1
  O  O347  1  0.23979923  0.37397543  0.24060562  1
  O  O348  1  0.24776368  0.36969991  0.73728149  1
  O  O349  1  0.24288349  0.88587850  0.24290691  1
  O  O350  1  0.24725339  0.88196895  0.73653245  1
  O  O351  1  0.74909576  0.37751299  0.24338740  1
  O  O352  1  0.75557166  0.38612745  0.74038470  1
  O  O353  1  0.75084691  0.88250523  0.24243569  1
  O  O354  1  0.74980166  0.87852721  0.74443966  1
  O  O355  1  0.24591682  0.11303795  0.24145721  1
  O  O356  1  0.24854905  0.11308345  0.74228472  1
  O  O357  1  0.25294577  0.62587685  0.25393344  1
  O  O358  1  0.24525934  0.61136492  0.74014468  1
  O  O359  1  0.75790817  0.11914742  0.25154779  1
  O  O360  1  0.76052787  0.11499352  0.75915271  1
  O  O361  1  0.75724436  0.61760107  0.25540353  1
  O  O362  1  0.75536464  0.61496322  0.74819271  1
  O  O363  1  0.37879266  0.11300146  0.37387993  1
  O  O364  1  0.37860311  0.11049930  0.88344126  1
  O  O365  1  0.35939932  0.62552691  0.36519958  1
  O  O366  1  0.36792989  0.62607410  0.87618729  1
  O  O367  1  0.87068843  0.12818573  0.35938063  1
  O  O368  1  0.86675362  0.11531981  0.87012940  1
  O  O369  1  0.86197565  0.62422719  0.36447569  1
  O  O370  1  0.87936515  0.61131105  0.87201966  1
  O  O371  1  0.13431118  0.36763644  0.13132219  1
  O  O372  1  0.14096917  0.37447932  0.61964095  1
  O  O373  1  0.13127549  0.88203158  0.12891306  1
  O  O374  1  0.13174649  0.88862291  0.62308349  1
  O  O375  1  0.63473722  0.38051709  0.12499267  1
  O  O376  1  0.63698402  0.37364802  0.61971279  1
  O  O377  1  0.63083337  0.88631213  0.12557793  1
  O  O378  1  0.63478455  0.88651830  0.62548079  1
  O  O379  1  0.11287482  0.25670089  0.24980377  1
  O  O380  1  0.12480578  0.23948325  0.76219641  1
  O  O381  1  0.13013244  0.76677276  0.25055221  1
  O  O382  1  0.11127380  0.75331108  0.75650304  1
  O  O383  1  0.61618779  0.24907875  0.25529090  1
  O  O384  1  0.62336495  0.24169485  0.76240972  1
  O  O385  1  0.62441636  0.75635413  0.26223946  1
  O  O386  1  0.63693092  0.75104828  0.76791294  1
  O  O387  1  0.38043921  0.24726288  0.24225214  1
  O  O388  1  0.38463277  0.25020859  0.74155428  1
  O  O389  1  0.37333345  0.74167487  0.24458261  1
  O  O390  1  0.37619135  0.75449948  0.73605620  1
  O  O391  1  0.88826376  0.24337843  0.24891484  1
  O  O392  1  0.87260527  0.24121393  0.74260981  1
  O  O393  1  0.86807107  0.74216689  0.25090421  1
  O  O394  1  0.88950827  0.73816794  0.76012321  1
  O  O395  1  0.37839992  0.48450084  0.49467351  1
  O  O396  1  0.37839038  0.49374388  0.99010882  1
  O  O397  1  0.37687541  0.99583915  0.49257474  1
  O  O398  1  0.38376167  0.99180988  0.99591137  1
  O  O399  1  0.87228158  0.48660751  0.49708389  1
  O  O400  1  0.86670417  0.48706172  0.99219710  1
  O  O401  1  0.88775182  1.00118112  0.50341976  1
  O  O402  1  0.88052455  0.99186237  0.99274591  1
  O  O403  1  0.12186431  0.00642930  0.00168364  1
  O  O404  1  0.11793402  0.00729041  0.50409357  1
  O  O405  1  0.12830015  0.51027118  -0.00428311  1
  O  O406  1  0.12343274  0.51384375  0.49624730  1
  O  O407  1  0.61443135  -0.00481479  0.00539522  1
  O  O408  1  0.61953968  0.00299186  0.50721466  1
  O  O409  1  0.63386593  0.50835506  0.01495588  1
  O  O410  1  0.62989547  0.49700972  0.51008707  1
  O  O411  1  0.36988912  0.36353862  0.12535055  1
  O  O412  1  0.37127563  0.36274186  0.61832125  1
  O  O413  1  0.36883271  0.87565329  0.11856662  1
  O  O414  1  0.36383470  0.88564110  0.60973823  1
  O  O415  1  0.86272513  0.37608349  0.11692997  1
  O  O416  1  0.86305084  0.36684539  0.61593481  1
  O  O417  1  0.86426393  0.88139482  0.11396700  1
  O  O418  1  0.86134669  0.87802730  0.62329527  1
  O  O419  1  0.12137303  0.12674758  0.38541789  1
  O  O420  1  0.12042810  0.13172723  0.88701854  1
  O  O421  1  0.13110432  0.62666747  0.37572593  1
  O  O422  1  0.13291707  0.63832930  0.88749599  1
  O  O423  1  0.63055835  0.12882401  0.37910791  1
  O  O424  1  0.64107815  0.12713445  0.87484033  1
  O  O425  1  0.63958638  0.63641301  0.36594846  1
  O  O426  1  0.61839360  0.63083190  0.89234169  1
