# generated using pymatgen
data_V85Zn86O256
_symmetry_space_group_name_H-M   'P 1'
_cell_length_a   16.96547049
_cell_length_b   16.95990855
_cell_length_c   16.95322894
_cell_angle_alpha   90.04795894
_cell_angle_beta   89.87762375
_cell_angle_gamma   89.94905880
_symmetry_Int_Tables_number   1
_chemical_formula_structural   V85Zn86O256
_chemical_formula_sum   'V85 Zn86 O256'
_cell_volume   4877.98573694
_cell_formula_units_Z   1
loop_
 _symmetry_equiv_pos_site_id
 _symmetry_equiv_pos_as_xyz
  1  'x, y, z'
loop_
 _atom_site_type_symbol
 _atom_site_label
 _atom_site_symmetry_multiplicity
 _atom_site_fract_x
 _atom_site_fract_y
 _atom_site_fract_z
 _atom_site_occupancy
  V  V0  1  0.74986034  0.25203322  0.50191794  1
  V  V1  1  0.50816800  0.87786241  0.37378659  1
  V  V2  1  0.81217257  0.81597467  0.06472466  1
  V  V3  1  0.87195349  0.12019376  0.25218103  1
  V  V4  1  0.61561000  0.12527500  0.50649017  1
  V  V5  1  0.75223825  0.25090633  -0.00016243  1
  V  V6  1  0.74913859  0.87588292  0.62634841  1
  V  V7  1  0.49508797  0.74837760  0.73336411  1
  V  V8  1  0.00645996  0.24988173  0.74585936  1
  V  V9  1  0.50154199  0.62588429  0.12372874  1
  V  V10  1  0.12588045  0.49742984  0.11206353  1
  V  V11  1  0.87553906  -0.00845682  0.87792971  1
  V  V12  1  0.50198878  0.51237951  0.50388241  1
  V  V13  1  0.74819318  0.37369938  0.12905906  1
  V  V14  1  0.87735438  0.50019564  0.37149766  1
  V  V15  1  0.25044029  0.49854883  0.24387060  1
  V  V16  1  0.37194084  0.38036901  0.00206419  1
  V  V17  1  0.74011235  0.74309555  0.50544739  1
  V  V18  1  0.50264005  0.25389989  0.25034453  1
  V  V19  1  0.24624509  0.36419189  0.61638488  1
  V  V20  1  0.74370569  0.62250768  0.37786176  1
  V  V21  1  0.00461285  0.87059556  0.87542324  1
  V  V22  1  -0.00304837  0.12212196  0.12383083  1
  V  V23  1  0.37974748  0.62579205  0.73434811  1
  V  V24  1  0.00339083  0.37150256  0.37502242  1
  V  V25  1  0.62561416  0.12615753  0.00178892  1
  V  V26  1  -0.00511063  0.74924214  0.74943659  1
  V  V27  1  0.87437212  0.12702286  0.74866702  1
  V  V28  1  0.37357446  0.75324005  0.12356566  1
  V  V29  1  0.37402232  0.00322399  0.37685163  1
  V  V30  1  0.61954561  0.38012611  0.75617541  1
  V  V31  1  0.49613625  0.86885936  0.87679776  1
  V  V32  1  0.49970045  0.12542009  0.12909542  1
  V  V33  1  0.50372454  0.49605675  -0.00738909  1
  V  V34  1  0.12544621  0.50182454  0.62116578  1
  V  V35  1  0.74917679  0.37881004  0.62717639  1
  V  V36  1  0.51156843  0.75393142  0.24900935  1
  V  V37  1  0.74874074  0.12319156  0.37503656  1
  V  V38  1  0.24664884  0.01173336  0.75669214  1
  V  V39  1  0.00365702  0.50158123  0.49805702  1
  V  V40  1  0.37129527  0.00927520  0.87673753  1
  V  V41  1  0.62280459  0.51453637  0.62248605  1
  V  V42  1  0.12672537  0.64279380  0.49644488  1
  V  V43  1  0.00142301  0.11954643  0.61984125  1
  V  V44  1  0.36866467  0.86163426  0.49866094  1
  V  V45  1  0.00200899  0.24932654  0.25089145  1
  V  V46  1  0.75364275  0.12694774  0.87712587  1
  V  V47  1  0.36958735  0.37022238  0.49570109  1
  V  V48  1  0.62358644  0.49507818  0.12795172  1
  V  V49  1  -0.00143881  -0.00260731  0.00200217  1
  V  V50  1  0.62927654  0.63094389  -0.00234206  1
  V  V51  1  0.76058838  0.63456181  0.87509782  1
  V  V52  1  -0.00287299  0.85622987  0.37718261  1
  V  V53  1  0.50413992  0.38038043  0.37173775  1
  V  V54  1  0.13138893  0.37243324  0.24472735  1
  V  V55  1  0.61682957  0.25494410  0.87684436  1
  V  V56  1  0.74680300  0.49641645  0.25083948  1
  V  V57  1  0.24934373  0.74419476  -0.00362466  1
  V  V58  1  -0.00915902  -0.00176942  0.49776540  1
  V  V59  1  0.75739737  0.50659195  0.75191375  1
  V  V60  1  0.24447555  0.00075773  0.25237728  1
  V  V61  1  0.87478803  0.25036141  0.12518742  1
  V  V62  1  0.88808902  0.63165127  0.23865297  1
  V  V63  1  0.38425481  0.49583016  0.86514868  1
  V  V64  1  0.25454938  0.86380141  0.62727038  1
  V  V65  1  0.15183928  0.01490175  0.59299394  1
  V  V66  1  0.36291746  0.12771839  0.25247827  1
  V  V67  1  0.37325692  0.62871427  0.25028803  1
  V  V68  1  0.12740822  0.74327267  0.87148888  1
  V  V69  1  0.37254912  0.25709318  0.12453559  1
  V  V70  1  -0.00537840  0.62688867  0.62755931  1
  V  V71  1  0.24558380  0.63869005  0.37700974  1
  V  V72  1  0.25459908  0.49962411  0.74576347  1
  V  V73  1  0.49785052  -0.00241157  0.00221311  1
  V  V74  1  0.12749632  0.37461477  0.75079214  1
  V  V75  1  -0.00289711  0.37620429  0.87112004  1
  V  V76  1  0.62876908  -0.00979405  0.13227371  1
  V  V77  1  0.87634569  0.37495269  -0.00138930  1
  V  V78  1  0.62331562  0.87488351  0.75272912  1
  V  V79  1  0.74957125  -0.00077856  0.75219340  1
  V  V80  1  0.12190247  -0.00028031  0.12640547  1
  V  V81  1  0.11788946  0.86402586  0.25844121  1
  V  V82  1  0.62603565  0.25620214  0.36948086  1
  V  V83  1  0.37301785  0.50250218  0.37447517  1
  V  V84  1  0.13905123  0.23747684  0.38424988  1
  Zn  Zn85  1  0.62553261  0.75080567  0.87955387  1
  Zn  Zn86  1  0.25097639  0.61890224  0.87532452  1
  Zn  Zn87  1  0.50081816  0.24521851  0.74337962  1
  Zn  Zn88  1  0.49360127  0.00247093  0.50891063  1
  Zn  Zn89  1  0.87092885  0.74549268  0.62848521  1
  Zn  Zn90  1  0.25097184  0.24446257  -0.01091779  1
  Zn  Zn91  1  0.87763794  0.50801702  0.87473445  1
  Zn  Zn92  1  0.37066621  0.87441311  0.00002781  1
  Zn  Zn93  1  0.87519235  0.37534249  0.49950631  1
  Zn  Zn94  1  0.24102833  0.87053330  0.12477655  1
  Zn  Zn95  1  0.08307744  0.66489568  0.03962817  1
  Zn  Zn96  1  0.39117615  0.12289847  0.73653134  1
  Zn  Zn97  1  0.61403061  0.01372016  0.63875242  1
  Zn  Zn98  1  0.87075111  0.86930190  0.50230248  1
  Zn  Zn99  1  0.87046755  -0.00658406  0.37605568  1
  Zn  Zn100  1  0.00203411  0.50236739  -0.00053218  1
  Zn  Zn101  1  0.87528770  0.25214467  0.62375962  1
  Zn  Zn102  1  0.73355127  -0.02042528  0.25855969  1
  Zn  Zn103  1  0.38091199  0.24589556  0.62182831  1
  Zn  Zn104  1  0.14630241  0.12587896  -0.02771850  1
  Zn  Zn105  1  0.12692818  0.87772521  0.74466834  1
  Zn  Zn106  1  0.62337014  0.74830277  0.37935493  1
  Zn  Zn107  1  0.17213130  0.20361704  0.15286137  1
  Zn  Zn108  1  0.18863271  0.18574273  0.68616356  1
  Zn  Zn109  1  0.18491112  0.68531510  0.18721167  1
  Zn  Zn110  1  0.18363865  0.68470559  0.68936073  1
  Zn  Zn111  1  0.68693434  0.18420775  0.18886969  1
  Zn  Zn112  1  0.68545173  0.19220966  0.69063665  1
  Zn  Zn113  1  0.69588888  0.68409698  0.18502646  1
  Zn  Zn114  1  0.68478814  0.69077278  0.69403473  1
  Zn  Zn115  1  0.31182161  0.31232255  0.31221485  1
  Zn  Zn116  1  0.31688436  0.30441810  0.81452633  1
  Zn  Zn117  1  0.31305216  0.81712473  0.30927821  1
  Zn  Zn118  1  0.31536007  0.81335829  0.81052446  1
  Zn  Zn119  1  0.81419776  0.31268065  0.31237358  1
  Zn  Zn120  1  0.81240691  0.31309850  0.81180328  1
  Zn  Zn121  1  0.80972726  0.80331479  0.31613254  1
  Zn  Zn122  1  0.81530189  0.81002859  0.81646737  1
  Zn  Zn123  1  0.18681421  0.43990563  0.43103709  1
  Zn  Zn124  1  0.20397183  0.40820894  0.92371528  1
  Zn  Zn125  1  0.19059751  0.94739234  0.43841763  1
  Zn  Zn126  1  0.18556451  0.93162803  0.94100760  1
  Zn  Zn127  1  0.68538597  0.43999410  0.44010418  1
  Zn  Zn128  1  0.69099634  0.44141573  0.93779914  1
  Zn  Zn129  1  0.68652384  0.93940372  0.44365795  1
  Zn  Zn130  1  0.68615611  0.93564249  0.94177775  1
  Zn  Zn131  1  0.30943106  0.06391759  0.06533766  1
  Zn  Zn132  1  0.31754910  0.06511554  0.56200910  1
  Zn  Zn133  1  0.31253867  0.56207339  0.06150919  1
  Zn  Zn134  1  0.31040451  0.56070160  0.55813000  1
  Zn  Zn135  1  0.81217449  0.05597426  0.06274264  1
  Zn  Zn136  1  0.80805628  0.06108567  0.56456751  1
  Zn  Zn137  1  0.80808168  0.55841276  0.05962039  1
  Zn  Zn138  1  0.81339809  0.56179988  0.55986157  1
  Zn  Zn139  1  0.44038214  0.43990787  0.18938488  1
  Zn  Zn140  1  0.44825420  0.41193705  0.67450008  1
  Zn  Zn141  1  0.43684836  0.93637252  0.19007694  1
  Zn  Zn142  1  0.43396371  0.93939080  0.68754864  1
  Zn  Zn143  1  0.94210127  0.44064471  0.18656370  1
  Zn  Zn144  1  0.93596245  0.43982088  0.68440804  1
  Zn  Zn145  1  0.89774664  0.90732863  0.21308390  1
  Zn  Zn146  1  0.93759878  0.93709519  0.68857392  1
  Zn  Zn147  1  0.05785387  0.05982947  0.31486624  1
  Zn  Zn148  1  0.06497790  0.06038917  0.80969437  1
  Zn  Zn149  1  0.06714025  0.56246166  0.31139613  1
  Zn  Zn150  1  0.06089325  0.56360334  0.81428288  1
  Zn  Zn151  1  0.55911297  0.06592942  0.31526770  1
  Zn  Zn152  1  0.55972128  0.06402668  0.81770876  1
  Zn  Zn153  1  0.56224645  0.56400300  0.31003297  1
  Zn  Zn154  1  0.56551875  0.56718269  0.80864227  1
  Zn  Zn155  1  0.43500829  0.18989224  0.43451625  1
  Zn  Zn156  1  0.43618767  0.18830689  0.93967913  1
  Zn  Zn157  1  0.43719592  0.68930371  0.43450451  1
  Zn  Zn158  1  0.43454366  0.68101726  0.93408513  1
  Zn  Zn159  1  0.93760688  0.18762606  0.43831271  1
  Zn  Zn160  1  0.97177046  0.17304805  0.91888885  1
  Zn  Zn161  1  0.92822122  0.68425220  0.44242076  1
  Zn  Zn162  1  0.93113428  0.67917645  1.04965989  1
  Zn  Zn163  1  0.06554475  0.31241801  0.05780068  1
  Zn  Zn164  1  0.06389065  0.30974577  0.55954380  1
  Zn  Zn165  1  0.01360592  0.83408053  0.09066899  1
  Zn  Zn166  1  0.06528573  0.82088440  0.56467587  1
  Zn  Zn167  1  0.56077235  0.31500059  0.06173938  1
  Zn  Zn168  1  0.56441523  0.32109461  0.55888626  1
  Zn  Zn169  1  0.56359245  0.81273931  0.06367838  1
  Zn  Zn170  1  0.56237479  0.82305325  0.56137408  1
  O  O171  1  0.10964080  0.10733611  0.14115665  1
  O  O172  1  0.11610357  0.11302333  0.62900805  1
  O  O173  1  0.13841869  0.60275921  0.12128507  1
  O  O174  1  0.11806663  0.61951512  0.61536090  1
  O  O175  1  0.61352022  0.12185514  0.12101314  1
  O  O176  1  0.63140161  0.12990380  0.61019912  1
  O  O177  1  0.62438617  0.61455165  0.11811570  1
  O  O178  1  0.62796609  0.61338214  0.63061050  1
  O  O179  1  0.38061201  0.38317032  0.37748631  1
  O  O180  1  0.38034823  0.39035269  0.88505323  1
  O  O181  1  0.37827136  0.88176066  0.38308239  1
  O  O182  1  0.38315845  0.88521824  0.87717249  1
  O  O183  1  0.88476580  0.38149690  0.37501399  1
  O  O184  1  0.87825243  0.37834085  0.88275244  1
  O  O185  1  0.88747349  0.87196849  0.37976741  1
  O  O186  1  0.88420582  0.88571351  0.86916057  1
  O  O187  1  0.25831762  -0.00334657  0.35927643  1
  O  O188  1  0.25711848  -0.00918986  0.86521882  1
  O  O189  1  0.25589414  0.50716526  0.36304580  1
  O  O190  1  0.25832446  0.49541833  0.85794209  1
  O  O191  1  0.74981174  0.00886759  0.37459357  1
  O  O192  1  0.75795191  0.00575580  0.87274356  1
  O  O193  1  0.75699079  0.50137110  0.36982090  1
  O  O194  1  0.75191179  0.50936973  0.86618553  1
  O  O195  1  0.24795892  0.50097253  0.13799435  1
  O  O196  1  0.24299553  0.49419777  0.63103961  1
  O  O197  1  0.24094058  0.99549569  0.13452159  1
  O  O198  1  0.25260118  0.99281198  0.64458744  1
  O  O199  1  0.74260491  0.49403804  0.13264159  1
  O  O200  1  0.74512803  0.49677381  0.62954299  1
  O  O201  1  0.73069488  1.00980689  0.12904520  1
  O  O202  1  0.74210848  0.99430080  0.63511662  1
  O  O203  1  0.00689847  0.37028447  0.25756782  1
  O  O204  1  0.00459578  0.36862279  0.74755888  1
  O  O205  1  0.00447936  0.87592882  0.26706716  1
  O  O206  1  0.00496143  0.87062478  0.75614922  1
  O  O207  1  0.49753650  0.37152908  0.26379661  1
  O  O208  1  0.51910714  0.38647773  0.76271899  1
  O  O209  1  0.49269905  0.86503928  0.26093024  1
  O  O210  1  0.50391558  0.86919172  0.75882177  1
  O  O211  1  0.49283204  0.13181188  0.24386855  1
  O  O212  1  0.50690983  0.13073984  0.74965727  1
  O  O213  1  0.49309974  0.63237291  0.24357693  1
  O  O214  1  0.49406245  0.63791752  0.75175295  1
  O  O215  1  0.99050766  0.12978838  0.24338185  1
  O  O216  1  0.99312129  0.13150637  0.73820415  1
  O  O217  1  0.98549123  0.61503883  0.25365421  1
  O  O218  1  1.00829605  0.63496192  0.73875512  1
  O  O219  1  0.37865987  0.26203144  0.00735035  1
  O  O220  1  0.37792310  0.26664539  0.49631746  1
  O  O221  1  0.37262147  0.75063056  0.00748481  1
  O  O222  1  0.37212918  0.76327927  0.49438236  1
  O  O223  1  0.87023333  0.26071818  0.00583256  1
  O  O224  1  0.86083066  0.25166135  0.50079056  1
  O  O225  1  0.85688794  0.75111561  0.00130478  1
  O  O226  1  0.85798121  0.75012415  0.50702492  1
  O  O227  1  0.12433234  0.25132025  0.48341311  1
  O  O228  1  0.14134087  0.23254996  1.03928505  1
  O  O229  1  0.12338325  0.74143416  0.50418223  1
  O  O230  1  0.13837767  0.75046345  0.98550871  1
  O  O231  1  0.63268421  0.24543025  0.49399007  1
  O  O232  1  0.63237481  0.24719290  0.99602749  1
  O  O233  1  0.63539347  0.75422632  0.50080421  1
  O  O234  1  0.61968316  0.73503847  1.00185572  1
  O  O235  1  0.49813640  0.24277117  0.13040596  1
  O  O236  1  0.48885429  0.29468768  0.63645760  1
  O  O237  1  0.49403634  0.74569897  0.13067252  1
  O  O238  1  0.50114501  0.75863140  0.63514219  1
  O  O239  1  0.99288938  0.24202192  0.13095374  1
  O  O240  1  0.99673939  0.24168616  0.62806726  1
  O  O241  1  1.01600898  0.72723184  0.11076666  1
  O  O242  1  1.00047391  0.74537585  0.63131901  1
  O  O243  1  0.00207253  0.25916618  0.37037671  1
  O  O244  1  -0.01064630  0.26836407  0.85732334  1
  O  O245  1  -0.00177831  0.75809865  0.38309924  1
  O  O246  1  0.00964991  0.76196995  0.86691251  1
  O  O247  1  0.50804056  0.25937984  0.37101498  1
  O  O248  1  0.51544628  0.24987159  0.88024761  1
  O  O249  1  0.50301135  0.75689120  0.36651607  1
  O  O250  1  0.49845830  0.76165239  0.87533473  1
  O  O251  1  0.21606918  0.05279265  0.51576671  1
  O  O252  1  0.25599335  0.12916048  0.99459928  1
  O  O253  1  0.23907148  0.61963554  0.48941209  1
  O  O254  1  0.25825352  0.63737597  0.99398518  1
  O  O255  1  0.74286895  0.13269663  0.49196934  1
  O  O256  1  0.74639202  0.13032569  0.99652832  1
  O  O257  1  0.75214745  0.62972500  0.49081545  1
  O  O258  1  0.74078633  0.61586906  0.98554724  1
  O  O259  1  0.27337384  0.39084330  0.01701021  1
  O  O260  1  0.25680417  0.38403906  0.50373894  1
  O  O261  1  0.25212515  0.86215935  0.00569194  1
  O  O262  1  0.26154875  0.87979789  0.50826353  1
  O  O263  1  0.75724858  0.37116413  0.00796520  1
  O  O264  1  0.74890831  0.36832695  0.50763071  1
  O  O265  1  0.75749363  0.88180489  0.00885443  1
  O  O266  1  0.74813298  0.86896608  0.51113292  1
  O  O267  1  0.13354658  0.49190240  0.24394801  1
  O  O268  1  0.13341173  0.49494729  0.74148514  1
  O  O269  1  0.13000355  0.99356501  0.24907591  1
  O  O270  1  0.13941720  0.99752015  0.75067795  1
  O  O271  1  0.63405499  0.50364144  0.24029568  1
  O  O272  1  0.63598466  0.49655114  0.74428802  1
  O  O273  1  0.62118017  1.00534217  0.23782879  1
  O  O274  1  0.63147650  0.98903572  0.75724936  1
  O  O275  1  0.36795337  0.00594600  0.25575894  1
  O  O276  1  0.36485968  0.00169310  0.75975880  1
  O  O277  1  0.36978913  0.50775620  0.25342990  1
  O  O278  1  0.37250294  0.50028013  0.75069983  1
  O  O279  1  0.87866036  0.01670439  0.25403856  1
  O  O280  1  0.86924580  0.00708660  0.75707339  1
  O  O281  1  0.87039903  0.50223093  0.25846210  1
  O  O282  1  0.86076088  0.49843744  0.74909584  1
  O  O283  1  0.11835740  0.36770774  0.36457762  1
  O  O284  1  0.11147947  0.38419778  0.85522800  1
  O  O285  1  0.11338185  0.87907108  0.36566434  1
  O  O286  1  0.11915606  0.86684212  0.87039633  1
  O  O287  1  0.61799017  0.36663251  0.37957412  1
  O  O288  1  0.63853984  0.36595038  0.86838671  1
  O  O289  1  0.61153564  0.87637607  0.38058088  1
  O  O290  1  0.61648404  0.87386422  0.87109649  1
  O  O291  1  0.38645699  0.13129049  0.13184605  1
  O  O292  1  0.37439890  0.13290042  0.62215063  1
  O  O293  1  0.38067610  0.63482922  0.12939601  1
  O  O294  1  0.37310229  0.61824226  0.63509875  1
  O  O295  1  0.87664704  0.12901307  0.13375927  1
  O  O296  1  0.87857414  0.12382733  0.63601165  1
  O  O297  1  0.87241150  0.61656003  0.13401782  1
  O  O298  1  0.89069886  0.62365190  0.62024068  1
  O  O299  1  0.27266129  0.25428715  0.13244642  1
  O  O300  1  0.24674520  0.26207151  0.62234909  1
  O  O301  1  0.25687910  0.74872524  0.11757170  1
  O  O302  1  0.24410499  0.76559687  0.62952905  1
  O  O303  1  0.75395170  0.25459212  0.12222539  1
  O  O304  1  0.74971855  0.25965775  0.61808559  1
  O  O305  1  0.75280223  0.76027789  0.12599274  1
  O  O306  1  0.74905200  0.75570720  0.62334494  1
  O  O307  1  0.23846543  0.24789653  0.37029222  1
  O  O308  1  0.23909976  0.30009909  0.89140880  1
  O  O309  1  0.25429769  0.73746869  0.36749519  1
  O  O310  1  0.24528916  0.75032368  0.87877699  1
  O  O311  1  0.74282746  0.24732566  0.38142603  1
  O  O312  1  0.74639279  0.24346278  0.88097988  1
  O  O313  1  0.74506846  0.73948096  0.38437507  1
  O  O314  1  0.74459732  0.73844905  0.86961624  1
  O  O315  1  -0.00969868  0.11718405  0.01807524  1
  O  O316  1  -0.00891954  0.11653210  0.51224499  1
  O  O317  1  -0.00033916  0.61300822  -0.01640132  1
  O  O318  1  0.00751575  0.62007362  0.50356543  1
  O  O319  1  0.50396992  0.11779433  0.00920766  1
  O  O320  1  0.51388353  0.12959650  0.49482924  1
  O  O321  1  0.50683482  0.61637637  0.00583148  1
  O  O322  1  0.49519617  0.61132659  0.49317134  1
  O  O323  1  0.49280472  0.38501676  0.48551945  1
  O  O324  1  0.49851769  0.39170210  1.00207153  1
  O  O325  1  0.48587774  0.87539465  0.49036926  1
  O  O326  1  0.49838690  0.88227695  0.99506220  1
  O  O327  1  0.99878169  0.38052474  0.49050405  1
  O  O328  1  0.99513564  0.37457860  0.98851737  1
  O  O329  1  0.99255238  0.87636432  0.49152594  1
  O  O330  1  1.00769087  0.89080922  0.98893299  1
  O  O331  1  0.49550977  0.49593331  0.37754598  1
  O  O332  1  0.49674302  0.50791410  0.88243732  1
  O  O333  1  0.49145915  0.99336065  0.37567122  1
  O  O334  1  0.49527475  0.99023023  0.88570551  1
  O  O335  1  0.99536887  0.48998662  0.37613101  1
  O  O336  1  0.99385768  0.48769495  0.86807677  1
  O  O337  1  0.99132565  0.99612106  0.38466199  1
  O  O338  1  0.99408009  0.98978541  0.87820028  1
  O  O339  1  0.00269488  0.00477117  0.11597731  1
  O  O340  1  0.00203903  0.00587101  0.61883447  1
  O  O341  1  0.02047618  0.49392176  0.12052136  1
  O  O342  1  0.00575621  0.50725416  0.61933565  1
  O  O343  1  0.50370247  0.00683427  0.12141332  1
  O  O344  1  0.50669717  -0.01249331  0.61999729  1
  O  O345  1  0.50826630  0.50724156  0.12043440  1
  O  O346  1  0.50993337  0.49301068  0.61391224  1
  O  O347  1  0.24219329  0.38483383  0.25564452  1
  O  O348  1  0.24154011  0.38110051  0.73628443  1
  O  O349  1  0.23578109  0.88187644  0.24767579  1
  O  O350  1  0.25284574  0.87978865  0.73778489  1
  O  O351  1  0.75534384  0.38735761  0.24557809  1
  O  O352  1  0.74578864  0.38361543  0.74347661  1
  O  O353  1  0.78840633  0.88442029  0.24479788  1
  O  O354  1  0.74113289  0.87701769  0.74904176  1
  O  O355  1  0.26187534  0.11798384  0.23923627  1
  O  O356  1  0.25014043  0.11339246  0.75283360  1
  O  O357  1  0.25425606  0.61857050  0.25619898  1
  O  O358  1  0.25801481  0.61486684  0.74814035  1
  O  O359  1  0.75408821  0.12616919  0.26346342  1
  O  O360  1  0.75664902  0.12243089  0.75607064  1
  O  O361  1  0.75913864  0.61111037  0.25489168  1
  O  O362  1  0.74354784  0.61911343  0.76406578  1
  O  O363  1  0.37955229  0.11701487  0.36502400  1
  O  O364  1  0.38364423  0.11037168  0.87468837  1
  O  O365  1  0.36795024  0.62027826  0.36909881  1
  O  O366  1  0.37302609  0.61021337  0.86440740  1
  O  O367  1  0.86376678  0.12746688  0.37022719  1
  O  O368  1  0.87726583  0.11738317  0.86266173  1
  O  O369  1  0.86592067  0.61484400  0.36819190  1
  O  O370  1  0.85863531  0.62591463  0.87621022  1
  O  O371  1  0.12467616  0.38163553  0.13830881  1
  O  O372  1  0.12725474  0.38141969  0.62944418  1
  O  O373  1  0.11388056  0.88821530  0.14049882  1
  O  O374  1  0.14268807  0.89215465  0.62046102  1
  O  O375  1  0.63010456  0.38766188  0.12062151  1
  O  O376  1  0.63754110  0.38390987  0.63423226  1
  O  O377  1  0.61864763  0.89177029  0.12492800  1
  O  O378  1  0.63543189  0.87611464  0.63721434  1
  O  O379  1  0.11912473  0.25723526  0.24874799  1
  O  O380  1  0.11388966  0.25817741  0.74115670  1
  O  O381  1  0.12813339  0.76616483  0.24676190  1
  O  O382  1  0.11698599  0.75600197  0.75354084  1
  O  O383  1  0.62015098  0.24582794  0.26203522  1
  O  O384  1  0.62624566  0.26190456  0.76016515  1
  O  O385  1  0.61367772  0.74280584  0.24906689  1
  O  O386  1  0.61421486  0.76150621  0.75518021  1
  O  O387  1  0.38383901  0.24447265  0.24684228  1
  O  O388  1  0.37994716  0.24595123  0.74755098  1
  O  O389  1  0.38088045  0.74548324  0.24205786  1
  O  O390  1  0.38484416  0.73952213  0.75343028  1
  O  O391  1  0.88012614  0.24088698  0.24623059  1
  O  O392  1  0.88174766  0.24236056  0.74568809  1
  O  O393  1  0.87594912  0.72870825  0.25435261  1
  O  O394  1  0.89053128  0.75329501  0.74839962  1
  O  O395  1  0.38203199  0.49310869  0.49199011  1
  O  O396  1  0.38652771  0.50005549  0.99276843  1
  O  O397  1  0.37581686  0.99555433  0.48506797  1
  O  O398  1  0.38508596  0.99724309  0.99890979  1
  O  O399  1  0.88226786  0.49924903  0.48582779  1
  O  O400  1  0.87559018  0.48419701  1.00007271  1
  O  O401  1  0.87873758  0.99439545  0.50109498  1
  O  O402  1  0.88448633  1.00702984  0.98778630  1
  O  O403  1  0.11927424  0.00506804  0.00911952  1
  O  O404  1  0.09781893  -0.01873808  0.50143532  1
  O  O405  1  0.13458093  0.48056456  0.01251471  1
  O  O406  1  0.11774594  0.50261665  0.50374070  1
  O  O407  1  0.61412875  0.00566769  0.00904635  1
  O  O408  1  0.62331167  0.01949664  0.49981033  1
  O  O409  1  0.62053662  0.50762827  0.00606060  1
  O  O410  1  0.61510549  0.49747248  0.50971079  1
  O  O411  1  0.39289257  0.36626562  0.11706642  1
  O  O412  1  0.35801882  0.38133992  0.61063267  1
  O  O413  1  0.37362212  0.86184963  0.12597136  1
  O  O414  1  0.36376365  0.87753528  0.61133776  1
  O  O415  1  0.87168567  0.37014058  0.12030098  1
  O  O416  1  0.86230181  0.37580364  0.62085518  1
  O  O417  1  0.89729112  0.86451142  0.10904646  1
  O  O418  1  0.85887077  0.87472392  0.62931858  1
  O  O419  1  0.11878623  0.14019873  0.36784602  1
  O  O420  1  0.07890762  0.13889964  0.88546113  1
  O  O421  1  0.13333530  0.62130800  0.38394185  1
  O  O422  1  0.13171515  0.63834603  0.86523599  1
  O  O423  1  0.63052799  0.13516033  0.38350275  1
  O  O424  1  0.63350519  0.13219046  0.88509015  1
  O  O425  1  0.63993023  0.62315934  0.36948024  1
  O  O426  1  0.63067163  0.62740823  0.88392724  1
