# generated using pymatgen
data_V85Zn86O256
_symmetry_space_group_name_H-M   'P 1'
_cell_length_a   16.93450513
_cell_length_b   16.95353001
_cell_length_c   16.94819869
_cell_angle_alpha   89.95910323
_cell_angle_beta   89.97465559
_cell_angle_gamma   90.01162376
_symmetry_Int_Tables_number   1
_chemical_formula_structural   V85Zn86O256
_chemical_formula_sum   'V85 Zn86 O256'
_cell_volume   4865.81994399
_cell_formula_units_Z   1
loop_
 _symmetry_equiv_pos_site_id
 _symmetry_equiv_pos_as_xyz
  1  'x, y, z'
loop_
 _atom_site_type_symbol
 _atom_site_label
 _atom_site_symmetry_multiplicity
 _atom_site_fract_x
 _atom_site_fract_y
 _atom_site_fract_z
 _atom_site_occupancy
  V  V0  1  0.13738683  0.24415913  0.86726781  1
  V  V1  1  -0.00461336  0.36332229  0.86898966  1
  V  V2  1  0.49982713  0.24669349  0.75157550  1
  V  V3  1  0.62569492  -0.00068075  0.62770505  1
  V  V4  1  0.87352442  0.74360869  0.62666656  1
  V  V5  1  -0.00301563  0.74922869  0.75145428  1
  V  V6  1  0.11974554  0.87576523  0.25058807  1
  V  V7  1  0.49503347  0.75073605  0.23989410  1
  V  V8  1  0.50000465  0.00153507  0.49992332  1
  V  V9  1  0.00033917  0.61901220  0.62789852  1
  V  V10  1  -0.00982793  0.48661037  0.49970722  1
  V  V11  1  0.62809771  0.12945671  0.50145110  1
  V  V12  1  -0.00290680  0.50117782  -0.00015259  1
  V  V13  1  0.76118152  -0.00293580  0.75243460  1
  V  V14  1  0.12041623  0.74921510  0.37720816  1
  V  V15  1  0.12070296  0.62718748  -0.00039480  1
  V  V16  1  0.13842333  0.49541538  0.62760560  1
  V  V17  1  0.61934184  0.74963535  0.86619049  1
  V  V18  1  0.62568952  0.24697466  0.87658768  1
  V  V19  1  0.63955213  0.49750299  0.12730705  1
  V  V20  1  0.25378128  0.00465373  0.24387011  1
  V  V21  1  0.89177554  0.75493497  0.13221229  1
  V  V22  1  0.76357768  0.25734831  0.50630366  1
  V  V23  1  0.00147518  -0.00256157  0.50002587  1
  V  V24  1  0.24971141  0.86441447  0.12656427  1
  V  V25  1  0.88207731  0.88011882  -0.01406682  1
  V  V26  1  0.33047266  0.44608786  0.93121646  1
  V  V27  1  0.25203508  0.74928048  0.50237737  1
  V  V28  1  0.12579088  0.25534653  0.37085837  1
  V  V29  1  0.37588779  0.87475820  0.50127855  1
  V  V30  1  0.11459075  0.00493866  0.12379805  1
  V  V31  1  0.63654907  0.62800255  0.49942927  1
  V  V32  1  0.12841266  0.00539004  0.62889576  1
  V  V33  1  0.50317785  0.62959564  0.63200842  1
  V  V34  1  0.75955882  0.62648017  0.36143178  1
  V  V35  1  0.87301067  0.86828907  0.50100881  1
  V  V36  1  0.00402944  0.24460755  0.24116200  1
  V  V37  1  0.50317761  0.49900223  0.00077972  1
  V  V38  1  0.25439314  0.62731067  0.87007980  1
  V  V39  1  0.87724105  0.14062481  0.74625707  1
  V  V40  1  0.62435194  0.87493931  0.24946982  1
  V  V41  1  -0.00018044  0.87153928  0.37410976  1
  V  V42  1  0.87490795  0.25199774  0.12163481  1
  V  V43  1  0.62946607  0.37515101  0.74839851  1
  V  V44  1  0.50297839  0.37751759  0.87949700  1
  V  V45  1  0.49726720  0.87370394  0.86696093  1
  V  V46  1  0.62574587  0.62798446  0.00168073  1
  V  V47  1  0.12208743  0.87991448  0.75410656  1
  V  V48  1  0.25143289  0.49527307  0.24790609  1
  V  V49  1  0.62877333  0.49757258  0.62591749  1
  V  V50  1  0.37355306  0.86831617  0.00321381  1
  V  V51  1  0.50223859  0.50069951  0.49904626  1
  V  V52  1  0.12160649  0.75346680  0.87443114  1
  V  V53  1  -0.00237493  0.00725947  -0.01811743  1
  V  V54  1  0.37100483  0.25018886  0.11402246  1
  V  V55  1  0.87894751  0.12104236  0.24134126  1
  V  V56  1  0.87501871  -0.00229800  0.37443586  1
  V  V57  1  0.24983599  0.88057415  0.63085257  1
  V  V58  1  0.75407680  0.12048933  0.87692320  1
  V  V59  1  0.37632693  0.61122345  0.75348502  1
  V  V60  1  0.75103783  0.75443485  -0.00103235  1
  V  V61  1  0.37619521  0.00144674  0.37034500  1
  V  V62  1  0.13723842  0.38245977  0.75040184  1
  V  V63  1  0.49916745  0.00486952  -0.00198481  1
  V  V64  1  0.74861273  0.25605373  0.00495660  1
  V  V65  1  0.75020938  0.00007655  0.25038751  1
  V  V66  1  0.37105855  0.62924033  0.24243581  1
  V  V67  1  0.63543514  0.37687786  0.24467579  1
  V  V68  1  0.37857388  0.75152762  0.63788482  1
  V  V69  1  0.36055856  0.00340181  0.87202956  1
  V  V70  1  0.25577904  0.12628602  0.37055846  1
  V  V71  1  0.12384174  0.49734520  0.12432296  1
  V  V72  1  0.49629136  0.12744783  0.62917370  1
  V  V73  1  0.25072424  0.25826823  0.50307796  1
  V  V74  1  0.25252774  0.62621082  0.37565393  1
  V  V75  1  0.12395644  0.12488102  0.49660889  1
  V  V76  1  0.62346352  0.25350187  0.37512789  1
  V  V77  1  0.37564022  0.49811963  0.37406702  1
  V  V78  1  0.62749337  0.74912509  0.37774290  1
  V  V79  1  0.75676918  0.62441105  0.86926107  1
  V  V80  1  0.35313724  0.12231760  0.75162771  1
  V  V81  1  0.74958830  0.87037223  0.62218022  1
  V  V82  1  0.13456002  0.13206897  0.00095638  1
  V  V83  1  0.75129542  0.87692835  0.12293468  1
  V  V84  1  0.49903196  0.87321593  0.37475690  1
  Zn  Zn85  1  0.62521082  0.12541725  0.00477593  1
  Zn  Zn86  1  0.88055638  0.50498304  0.87215607  1
  Zn  Zn87  1  0.49818643  0.62433226  0.12438273  1
  Zn  Zn88  1  0.12671632  0.37084744  0.24314724  1
  Zn  Zn89  1  0.76935859  0.37372538  0.62527589  1
  Zn  Zn90  1  0.49221619  0.24850610  0.24838242  1
  Zn  Zn91  1  0.37157769  0.38093327  0.50909758  1
  Zn  Zn92  1  -0.01467576  0.37268488  0.37407192  1
  Zn  Zn93  1  0.36350931  0.25465362  0.63101655  1
  Zn  Zn94  1  0.62134666  0.00188016  0.12537671  1
  Zn  Zn95  1  -0.01066717  0.12642236  0.62728988  1
  Zn  Zn96  1  0.25703102  0.37291622  0.10830975  1
  Zn  Zn97  1  0.75229371  0.12404664  0.37703308  1
  Zn  Zn98  1  0.49375348  0.12453443  0.14017545  1
  Zn  Zn99  1  0.83551489  0.47360320  0.31919168  1
  Zn  Zn100  1  -0.05994069  0.60470125  0.20418303  1
  Zn  Zn101  1  0.76172600  0.50412460  0.74490438  1
  Zn  Zn102  1  0.62140176  0.87408838  0.74752428  1
  Zn  Zn103  1  0.25084819  0.74767239  0.00504097  1
  Zn  Zn104  1  0.87164439  0.37888113  0.00078096  1
  Zn  Zn105  1  0.50176309  0.37719463  0.37268760  1
  Zn  Zn106  1  0.12575122  0.62064144  0.50373542  1
  Zn  Zn107  1  0.19543349  0.18798730  0.18085012  1
  Zn  Zn108  1  0.13134560  0.23371618  0.64890080  1
  Zn  Zn109  1  0.13751456  0.67423302  0.20090504  1
  Zn  Zn110  1  0.18764754  0.68567387  0.68983975  1
  Zn  Zn111  1  0.68266312  0.18362145  0.18674525  1
  Zn  Zn112  1  0.69037954  0.18675275  0.68720038  1
  Zn  Zn113  1  0.68673941  0.69144297  0.18493182  1
  Zn  Zn114  1  0.68733864  0.68935760  0.68788027  1
  Zn  Zn115  1  0.31764209  0.31206752  0.30730022  1
  Zn  Zn116  1  0.31042810  0.30581927  0.80845910  1
  Zn  Zn117  1  0.30922973  0.81429771  0.31112560  1
  Zn  Zn118  1  0.30866778  0.81353403  0.81404456  1
  Zn  Zn119  1  0.81015749  0.30192814  0.31285475  1
  Zn  Zn120  1  0.81043685  0.31361959  0.81490407  1
  Zn  Zn121  1  0.81081631  0.80812688  0.31183495  1
  Zn  Zn122  1  0.81014618  0.80983551  0.80936741  1
  Zn  Zn123  1  0.18257128  0.43773767  0.43850828  1
  Zn  Zn124  1  0.16948875  0.44074258  0.93069229  1
  Zn  Zn125  1  0.19078515  0.93790944  0.43765625  1
  Zn  Zn126  1  0.18433625  0.93699254  0.94061696  1
  Zn  Zn127  1  0.69195721  0.43783556  0.43607215  1
  Zn  Zn128  1  0.68762827  0.43901684  0.93825388  1
  Zn  Zn129  1  0.68786709  0.93702464  0.43926279  1
  Zn  Zn130  1  0.68550841  0.93783892  0.93502511  1
  Zn  Zn131  1  0.31313347  0.06410442  0.06324033  1
  Zn  Zn132  1  0.31161054  0.06614178  0.56125517  1
  Zn  Zn133  1  0.30562535  0.57014640  0.06645007  1
  Zn  Zn134  1  0.31610948  0.56452687  0.56422376  1
  Zn  Zn135  1  0.81409882  0.06312790  0.06076795  1
  Zn  Zn136  1  0.81168432  0.06065456  0.56413867  1
  Zn  Zn137  1  0.81637685  0.56862228  0.06195872  1
  Zn  Zn138  1  0.81337512  0.56276240  0.56166905  1
  Zn  Zn139  1  0.44209223  0.42615736  0.18488082  1
  Zn  Zn140  1  0.43949396  0.43310545  0.68645497  1
  Zn  Zn141  1  0.43496092  0.93734113  0.18464447  1
  Zn  Zn142  1  0.43485947  0.94236850  0.69038274  1
  Zn  Zn143  1  0.94171601  0.42619984  0.18390264  1
  Zn  Zn144  1  0.93800297  0.44304187  0.69594938  1
  Zn  Zn145  1  0.93875588  0.93504354  0.18378363  1
  Zn  Zn146  1  0.94132062  0.93740971  0.68734032  1
  Zn  Zn147  1  0.06329002  0.06317970  0.31208543  1
  Zn  Zn148  1  0.06404089  0.06756158  0.80901239  1
  Zn  Zn149  1  0.06519573  0.55915318  0.31969013  1
  Zn  Zn150  1  0.05955054  0.56284396  0.81254509  1
  Zn  Zn151  1  0.56454686  0.06446222  0.31287007  1
  Zn  Zn152  1  0.56428281  0.05977856  0.81374911  1
  Zn  Zn153  1  0.56438772  0.56298108  0.30919460  1
  Zn  Zn154  1  0.56394680  0.56133580  0.81277098  1
  Zn  Zn155  1  0.43737119  0.18749891  0.43554607  1
  Zn  Zn156  1  0.43029488  0.18744521  0.93723586  1
  Zn  Zn157  1  0.44057661  0.68553506  0.43821499  1
  Zn  Zn158  1  0.43851739  0.68755816  0.93713575  1
  Zn  Zn159  1  0.93999742  0.18448522  0.42956157  1
  Zn  Zn160  1  0.93629293  0.18441215  0.93488932  1
  Zn  Zn161  1  0.93906103  0.68318183  0.44328806  1
  Zn  Zn162  1  0.93956538  0.69316539  0.94254926  1
  Zn  Zn163  1  0.06144060  0.31177799  0.05902677  1
  Zn  Zn164  1  -0.04867304  0.30630665  0.57692418  1
  Zn  Zn165  1  0.06409963  0.82048239  0.05738926  1
  Zn  Zn166  1  0.06282799  0.81229171  0.56485324  1
  Zn  Zn167  1  0.55941128  0.31026103  0.06534767  1
  Zn  Zn168  1  0.56075905  0.31369510  0.56250817  1
  Zn  Zn169  1  0.56235781  0.81703054  0.05848101  1
  Zn  Zn170  1  0.56248748  0.81096221  0.56216618  1
  O  O171  1  0.12727487  0.11970496  0.11006403  1
  O  O172  1  0.13258976  0.11176436  0.61286357  1
  O  O173  1  0.13637445  0.61247997  0.10698001  1
  O  O174  1  0.12074125  0.61232132  0.62710638  1
  O  O175  1  0.61660524  0.11840375  0.12132716  1
  O  O176  1  0.61892665  0.12075748  0.61738584  1
  O  O177  1  0.62275539  0.62011856  0.11731345  1
  O  O178  1  0.62095246  0.62188757  0.61928663  1
  O  O179  1  0.37719980  0.38937217  0.37851447  1
  O  O180  1  0.38314570  0.37930965  0.86981548  1
  O  O181  1  0.37936599  0.87992572  0.38123852  1
  O  O182  1  0.37856091  0.88300820  0.87874267  1
  O  O183  1  0.87214099  0.37876241  0.36391319  1
  O  O184  1  0.88651971  0.37438623  0.87740522  1
  O  O185  1  0.87826580  0.87494972  0.38280937  1
  O  O186  1  0.86933736  0.87214421  0.88793626  1
  O  O187  1  0.25414852  0.00615957  0.36646202  1
  O  O188  1  0.26245733  -0.00624205  0.87694274  1
  O  O189  1  0.25561536  0.50589557  0.37154249  1
  O  O190  1  0.26181125  0.50563204  0.88104672  1
  O  O191  1  0.75785580  -0.00194974  0.36902473  1
  O  O192  1  0.74391468  0.00757820  0.86469483  1
  O  O193  1  0.74799821  0.52015072  0.37687799  1
  O  O194  1  0.74862443  0.51689515  0.87787328  1
  O  O195  1  0.24502063  0.49644387  0.13183188  1
  O  O196  1  0.23755100  0.50385011  0.62214930  1
  O  O197  1  0.24054546  0.99455219  0.13011288  1
  O  O198  1  0.24530579  0.98783767  0.61808018  1
  O  O199  1  0.73826536  0.50405926  0.11532878  1
  O  O200  1  0.73985664  0.49842327  0.62417164  1
  O  O201  1  0.75090541  0.98962379  0.12937824  1
  O  O202  1  0.74451253  0.99095869  0.63148002  1
  O  O203  1  0.00728291  0.35799232  0.25083838  1
  O  O204  1  0.01181631  0.38070113  0.76749793  1
  O  O205  1  0.01260668  0.87947103  0.25603316  1
  O  O206  1  0.01424023  0.86613213  0.74265020  1
  O  O207  1  0.51445919  0.36977906  0.25554712  1
  O  O208  1  0.51140435  0.37124519  0.76062527  1
  O  O209  1  0.50304384  0.86934428  0.25456078  1
  O  O210  1  0.49992324  0.87971092  0.76240058  1
  O  O211  1  0.50356592  0.13341491  0.25479229  1
  O  O212  1  0.49784425  0.12741120  0.74317641  1
  O  O213  1  0.49094926  0.63389723  0.24878055  1
  O  O214  1  0.49716381  0.62350720  0.73871127  1
  O  O215  1  0.99242099  0.13304752  0.25365628  1
  O  O216  1  0.98052447  0.12108570  0.75098562  1
  O  O217  1  1.03501491  0.63776456  0.24687725  1
  O  O218  1  1.00640629  0.63494255  0.73790259  1
  O  O219  1  0.37888990  0.25295888  0.01114107  1
  O  O220  1  0.35818779  0.24631930  0.49889655  1
  O  O221  1  0.37242541  0.76419984  -0.00445272  1
  O  O222  1  0.36990134  0.75443031  0.50844904  1
  O  O223  1  0.86776110  0.24507007  0.00644666  1
  O  O224  1  0.86619787  0.24337706  0.49803114  1
  O  O225  1  0.87233975  0.76572008  0.00580830  1
  O  O226  1  0.88048152  0.76167911  0.51020665  1
  O  O227  1  0.13861969  0.23831592  0.48512005  1
  O  O228  1  0.12222103  0.23715427  0.99110085  1
  O  O229  1  0.13618072  0.75171190  0.49641491  1
  O  O230  1  0.12378359  0.74506072  0.99184397  1
  O  O231  1  0.63051342  0.24411135  0.49649795  1
  O  O232  1  0.63166346  0.24773656  0.99471196  1
  O  O233  1  0.61716846  0.74021251  0.48938544  1
  O  O234  1  0.63013898  0.74534384  0.99325674  1
  O  O235  1  0.48935302  0.24689466  0.12523660  1
  O  O236  1  0.50207742  0.23719395  0.63022094  1
  O  O237  1  0.50399222  0.75112826  0.13694639  1
  O  O238  1  0.49062077  0.74183484  0.62076268  1
  O  O239  1  0.99324102  0.24814377  0.13071710  1
  O  O240  1  1.02525747  0.23183384  0.61060361  1
  O  O241  1  0.99148032  0.76046713  0.12286197  1
  O  O242  1  0.99591869  0.74270811  0.63154544  1
  O  O243  1  0.01081397  0.24939298  0.36570950  1
  O  O244  1  0.00706096  0.26096650  0.87979402  1
  O  O245  1  0.01389568  0.75481098  0.38558914  1
  O  O246  1  0.01184315  0.74391180  0.86620373  1
  O  O247  1  0.51426486  0.25366872  0.38212406  1
  O  O248  1  0.50501113  0.25649120  0.87098094  1
  O  O249  1  0.50778532  0.75462068  0.36815601  1
  O  O250  1  0.50810660  0.76066803  0.88144322  1
  O  O251  1  0.24140058  0.12711641  0.48918938  1
  O  O252  1  0.23159273  0.11382646  0.99449601  1
  O  O253  1  0.25201578  0.63711251  0.49767313  1
  O  O254  1  0.24510661  0.62921804  0.98758489  1
  O  O255  1  0.74294592  0.13211812  0.50139578  1
  O  O256  1  0.74897841  0.12847708  0.99061159  1
  O  O257  1  0.73899145  0.62606347  0.49544869  1
  O  O258  1  0.73983360  0.63314308  0.99312291  1
  O  O259  1  0.26360350  0.39179442  -0.01471002  1
  O  O260  1  0.25046113  0.36079137  0.49328659  1
  O  O261  1  0.25512771  0.87382607  0.00926538  1
  O  O262  1  0.25621723  0.86662273  0.50760960  1
  O  O263  1  0.75272625  0.36037797  -0.00866432  1
  O  O264  1  0.74813601  0.36041426  0.50236816  1
  O  O265  1  0.75934486  0.87669877  0.00526130  1
  O  O266  1  0.75767755  0.87858769  0.51315170  1
  O  O267  1  0.13295214  0.49720350  0.23949952  1
  O  O268  1  0.12306943  0.49235547  0.74259790  1
  O  O269  1  0.12998579  0.99561363  0.24217989  1
  O  O270  1  0.12095419  0.99375246  0.74076858  1
  O  O271  1  0.62122065  0.48889307  0.24093583  1
  O  O272  1  0.62809551  0.49296142  0.74179486  1
  O  O273  1  0.63375524  0.99100700  0.25232286  1
  O  O274  1  0.63393765  0.99779747  0.74201444  1
  O  O275  1  0.36455374  -0.00660274  0.25690936  1
  O  O276  1  0.37444266  0.00657586  0.76345079  1
  O  O277  1  0.37104834  0.50606647  0.25590172  1
  O  O278  1  0.38286062  0.51228272  0.74816670  1
  O  O279  1  0.87114661  0.00232764  0.25244964  1
  O  O280  1  0.86353990  -0.00174534  0.74691709  1
  O  O281  1  0.88484876  0.51143295  0.22853742  1
  O  O282  1  0.87390169  0.50810449  0.75942839  1
  O  O283  1  0.12590679  0.36102937  0.37104222  1
  O  O284  1  0.11611330  0.36371543  0.87024441  1
  O  O285  1  0.12152503  0.87124094  0.37001133  1
  O  O286  1  0.13022240  0.86644404  0.86618997  1
  O  O287  1  0.62605080  0.36935617  0.36780269  1
  O  O288  1  0.62053182  0.36963293  0.86798963  1
  O  O289  1  0.62033911  0.86726975  0.37196943  1
  O  O290  1  0.61544576  0.86685902  0.87451993  1
  O  O291  1  0.37645539  0.13766368  0.11880868  1
  O  O292  1  0.38097101  0.12682388  0.63302670  1
  O  O293  1  0.37601267  0.62513941  0.13860696  1
  O  O294  1  0.38292069  0.63253019  0.63252178  1
  O  O295  1  0.87384532  0.12832268  0.13605951  1
  O  O296  1  0.87148074  0.12122157  0.64080137  1
  O  O297  1  0.87690833  0.64954830  0.11647271  1
  O  O298  1  0.88181878  0.63705959  0.62103820  1
  O  O299  1  0.26105706  0.25551098  0.12037403  1
  O  O300  1  0.24124646  0.24573126  0.60517596  1
  O  O301  1  0.23803767  0.76418370  0.12705143  1
  O  O302  1  0.25593464  0.75701249  0.61957463  1
  O  O303  1  0.75806433  0.23950426  0.11363782  1
  O  O304  1  0.74556434  0.25179883  0.60918589  1
  O  O305  1  0.75230946  0.76361432  0.11755300  1
  O  O306  1  0.76065401  0.75745934  0.63179899  1
  O  O307  1  0.24659308  0.24223352  0.37603548  1
  O  O308  1  0.23535448  0.25138824  0.87796658  1
  O  O309  1  0.24493246  0.74878733  0.38554907  1
  O  O310  1  0.23835421  0.74329225  0.87628812  1
  O  O311  1  0.73941218  0.24459714  0.38851959  1
  O  O312  1  0.74386950  0.24154354  0.88136222  1
  O  O313  1  0.73571018  0.74354949  0.37257018  1
  O  O314  1  0.74175426  0.74366370  0.87990893  1
  O  O315  1  0.00723275  0.11179801  -0.00614143  1
  O  O316  1  0.01337186  0.11503590  0.49064578  1
  O  O317  1  0.01018603  0.61715975  -0.00655644  1
  O  O318  1  0.00578501  0.62014654  0.51415118  1
  O  O319  1  0.49942666  0.10891390  -0.00839684  1
  O  O320  1  0.50609084  0.12107828  0.50786579  1
  O  O321  1  0.51018046  0.62010393  0.00089206  1
  O  O322  1  0.50731531  0.61663100  0.50991770  1
  O  O323  1  0.50306680  0.39136248  0.49695470  1
  O  O324  1  0.50815337  0.38268187  0.98723636  1
  O  O325  1  0.49421007  0.88108803  0.49619619  1
  O  O326  1  0.49113481  0.88349203  0.99211964  1
  O  O327  1  0.99865893  0.38394925  0.49772117  1
  O  O328  1  1.00007835  0.38217983  0.98767657  1
  O  O329  1  0.99308661  0.87912258  0.49647694  1
  O  O330  1  0.98959821  0.88730444  0.99847397  1
  O  O331  1  0.49301225  0.50469889  0.38279372  1
  O  O332  1  0.50624292  0.49300820  0.88772798  1
  O  O333  1  0.49714515  0.99217963  0.38132875  1
  O  O334  1  0.49298456  0.99192676  0.88214196  1
  O  O335  1  1.01111430  0.49541499  0.39470015  1
  O  O336  1  1.00427255  0.49089404  0.88565166  1
  O  O337  1  0.99490792  0.99082814  0.37921256  1
  O  O338  1  1.00443313  0.99904982  0.88399854  1
  O  O339  1  0.01182802  -0.00316629  0.11805050  1
  O  O340  1  0.00974369  0.00450006  0.61767729  1
  O  O341  1  0.01114880  0.49422732  0.11168149  1
  O  O342  1  0.00934557  0.50505168  0.61851829  1
  O  O343  1  0.49616792  -0.00053100  0.10951526  1
  O  O344  1  0.50352902  0.00988604  0.62152000  1
  O  O345  1  0.50688515  0.49925939  0.11172817  1
  O  O346  1  0.51205874  0.50816612  0.61948146  1
  O  O347  1  0.24765464  0.38957442  0.25393550  1
  O  O348  1  0.23655296  0.38082683  0.76140693  1
  O  O349  1  0.24160592  0.88638590  0.24557412  1
  O  O350  1  0.23775558  0.86908755  0.73932883  1
  O  O351  1  0.73617328  0.37506205  0.25442815  1
  O  O352  1  0.73873815  0.37653358  0.74847630  1
  O  O353  1  0.74590004  0.87974395  0.24212259  1
  O  O354  1  0.74786015  0.88017678  0.73992394  1
  O  O355  1  0.24412698  0.11208811  0.25580784  1
  O  O356  1  0.25781180  0.12992726  0.74402566  1
  O  O357  1  0.25406523  0.61525329  0.25649862  1
  O  O358  1  0.25814061  0.62732324  0.76167330  1
  O  O359  1  0.75668013  0.11480905  0.25225717  1
  O  O360  1  0.75763597  0.11750521  0.75450030  1
  O  O361  1  0.74674311  0.63157037  0.26236042  1
  O  O362  1  0.74317239  0.62600293  0.76629143  1
  O  O363  1  0.36278719  0.11807082  0.37943649  1
  O  O364  1  0.37556868  0.11097485  0.86778859  1
  O  O365  1  0.37161161  0.61647357  0.36836422  1
  O  O366  1  0.36831769  0.63281582  0.86550537  1
  O  O367  1  0.87325318  0.11536985  0.36287968  1
  O  O368  1  0.86225652  0.12769924  0.86307884  1
  O  O369  1  0.85940409  0.63825569  0.37536683  1
  O  O370  1  0.85809315  0.63292385  0.88443454  1
  O  O371  1  0.13407414  0.38448113  0.11914296  1
  O  O372  1  0.12609971  0.38425358  0.64448269  1
  O  O373  1  0.12928493  0.88417585  0.13232354  1
  O  O374  1  0.13191598  0.88550389  0.62902836  1
  O  O375  1  0.62479720  0.38091297  0.13630596  1
  O  O376  1  0.62378384  0.38363920  0.63299543  1
  O  O377  1  0.63311783  0.87856814  0.12983286  1
  O  O378  1  0.63240784  0.87785514  0.62482449  1
  O  O379  1  0.12063745  0.24499824  0.25281895  1
  O  O380  1  0.12758018  0.26464080  0.76105720  1
  O  O381  1  0.13846153  0.76595406  0.26661279  1
  O  O382  1  0.11767931  0.75661747  0.75483918  1
  O  O383  1  0.62903690  0.25924415  0.25964140  1
  O  O384  1  0.62070529  0.25607958  0.75449811  1
  O  O385  1  0.61572597  0.75588508  0.25653684  1
  O  O386  1  0.62516312  0.75271660  0.76234764  1
  O  O387  1  0.37611443  0.25453680  0.23319287  1
  O  O388  1  0.38173068  0.23870421  0.75082155  1
  O  O389  1  0.38225963  0.74129462  0.25887644  1
  O  O390  1  0.37072728  0.74565964  0.73983618  1
  O  O391  1  0.88053984  0.23885779  0.24146483  1
  O  O392  1  0.86966205  0.23920780  0.74895645  1
  O  O393  1  0.87639370  0.75964052  0.23202178  1
  O  O394  1  0.88881491  0.75717232  0.74273787  1
  O  O395  1  0.38370003  0.50323441  0.49305574  1
  O  O396  1  0.38278564  0.50644936  0.99851694  1
  O  O397  1  0.38036698  0.99487110  0.49382003  1
  O  O398  1  0.38049860  0.99281331  0.98916254  1
  O  O399  1  0.89187097  0.50508761  0.50309040  1
  O  O400  1  0.88340979  0.50004558  0.99599871  1
  O  O401  1  0.87956122  0.98964970  0.49626687  1
  O  O402  1  0.88813208  0.99330563  1.00179444  1
  O  O403  1  0.11366065  0.00553735  0.00342124  1
  O  O404  1  0.12271371  0.00446743  0.50483435  1
  O  O405  1  0.11889394  0.50889566  0.00465144  1
  O  O406  1  0.12001541  0.49704170  0.51594221  1
  O  O407  1  0.60955688  -0.00250957  -0.00084409  1
  O  O408  1  0.62041276  0.00797418  0.50635444  1
  O  O409  1  0.62025354  0.50836066  0.00545484  1
  O  O410  1  0.62108390  0.50769902  0.50552127  1
  O  O411  1  0.37241211  0.36442185  0.12150977  1
  O  O412  1  0.38258614  0.36591530  0.62107857  1
  O  O413  1  0.36342960  0.87948247  0.11479828  1
  O  O414  1  0.36921988  0.87003423  0.62390668  1
  O  O415  1  0.87568404  0.35636193  0.11925703  1
  O  O416  1  0.88164128  0.37293902  0.63033417  1
  O  O417  1  0.86943850  0.87028583  0.11499972  1
  O  O418  1  0.87024226  0.86748776  0.61917243  1
  O  O419  1  0.13602928  0.12862874  0.37839871  1
  O  O420  1  0.12025897  0.13917448  0.87926530  1
  O  O421  1  0.13574769  0.63449694  0.38367570  1
  O  O422  1  0.13289133  0.62967704  0.88112591  1
  O  O423  1  0.62777925  0.13011509  0.38991757  1
  O  O424  1  0.63508043  0.13070958  0.87536960  1
  O  O425  1  0.62915833  0.63196258  0.38111851  1
  O  O426  1  0.62931814  0.63246884  0.88258078  1
