# generated using pymatgen
data_V85Zn86O256
_symmetry_space_group_name_H-M   'P 1'
_cell_length_a   16.95760070
_cell_length_b   16.95531117
_cell_length_c   16.94803983
_cell_angle_alpha   89.99971322
_cell_angle_beta   90.04896292
_cell_angle_gamma   89.97073619
_symmetry_Int_Tables_number   1
_chemical_formula_structural   V85Zn86O256
_chemical_formula_sum   'V85 Zn86 O256'
_cell_volume   4872.92166748
_cell_formula_units_Z   1
loop_
 _symmetry_equiv_pos_site_id
 _symmetry_equiv_pos_as_xyz
  1  'x, y, z'
loop_
 _atom_site_type_symbol
 _atom_site_label
 _atom_site_symmetry_multiplicity
 _atom_site_fract_x
 _atom_site_fract_y
 _atom_site_fract_z
 _atom_site_occupancy
  V  V0  1  -0.00087527  0.73863054  0.23631945  1
  V  V1  1  0.87129004  0.24558466  0.62568550  1
  V  V2  1  0.49959364  0.37866489  0.37741999  1
  V  V3  1  0.37381151  0.12380232  0.75017312  1
  V  V4  1  0.36353313  0.86192186  0.51306076  1
  V  V5  1  0.25060504  0.49341363  0.74947466  1
  V  V6  1  0.37764105  0.49916917  0.87050433  1
  V  V7  1  0.24437526  0.50202479  0.25229053  1
  V  V8  1  0.62360681  0.75101318  0.37620874  1
  V  V9  1  0.87553619  0.36988248  -0.00361184  1
  V  V10  1  0.74911572  0.62881237  0.38112091  1
  V  V11  1  0.00086234  0.50183346  0.00266199  1
  V  V12  1  0.12279336  0.25521556  0.35895138  1
  V  V13  1  0.62171293  0.37690658  0.25140467  1
  V  V14  1  0.62458850  0.12314364  0.00029352  1
  V  V15  1  0.74919577  0.11917438  0.87369436  1
  V  V16  1  0.49617383  0.49933459  -0.00033886  1
  V  V17  1  0.12626161  -0.00806609  0.61823364  1
  V  V18  1  0.35552707  0.65840523  0.73706904  1
  V  V19  1  0.11729818  0.12118360  -0.00343649  1
  V  V20  1  0.37566702  -0.01068978  0.87242138  1
  V  V21  1  0.24786413  0.25310551  0.49748757  1
  V  V22  1  0.62888844  -0.00440292  0.63206487  1
  V  V23  1  -0.00169503  0.24720508  0.74924179  1
  V  V24  1  0.74959378  0.24422726  -0.00005903  1
  V  V25  1  0.50283979  0.25319755  0.75914943  1
  V  V26  1  0.49638703  0.75156134  0.23978787  1
  V  V27  1  0.00354660  0.50182017  0.50105613  1
  V  V28  1  0.80454565  0.70196020  0.06115940  1
  V  V29  1  0.00241089  0.87328086  0.88219846  1
  V  V30  1  0.12618444  0.87134657  0.25046788  1
  V  V31  1  0.76210578  0.12720864  0.35973393  1
  V  V32  1  0.74633886  0.37044604  0.12503479  1
  V  V33  1  0.00280795  0.12861984  0.13789264  1
  V  V34  1  0.49974273  0.12614290  0.62305478  1
  V  V35  1  0.74996495  0.24148355  0.50379368  1
  V  V36  1  0.12063921  0.86907924  0.74941571  1
  V  V37  1  0.37552065  0.37736420  0.50080960  1
  V  V38  1  0.00062274  0.12426127  0.62251068  1
  V  V39  1  -0.01688885  0.75267049  0.74843706  1
  V  V40  1  0.61610524  0.62699637  0.00534537  1
  V  V41  1  0.61378919  0.50046804  0.12733192  1
  V  V42  1  0.87191090  0.11428940  0.74984462  1
  V  V43  1  0.74644950  0.39010396  0.62906678  1
  V  V44  1  0.88131951  0.24920833  0.13742448  1
  V  V45  1  0.62401843  0.25039513  0.37680684  1
  V  V46  1  0.50064518  0.87229355  0.37423825  1
  V  V47  1  0.87895968  0.00029453  0.88970265  1
  V  V48  1  0.49509276  0.12489820  0.12486375  1
  V  V49  1  0.74975885  0.62461924  0.86716417  1
  V  V50  1  0.12724202  0.12672529  0.49646898  1
  V  V51  1  0.87672444  0.50418201  0.37655295  1
  V  V52  1  0.25496376  0.86850879  0.12328646  1
  V  V53  1  0.62400364  -0.00469413  0.13977732  1
  V  V54  1  0.87402882  0.87652136  0.01010877  1
  V  V55  1  0.12362594  -0.00308186  0.11831211  1
  V  V56  1  0.37478083  0.25096881  0.62484052  1
  V  V57  1  0.74819586  0.50103132  0.25220222  1
  V  V58  1  0.37270145  -0.00018268  0.37299952  1
  V  V59  1  0.62803124  0.62467954  0.51162281  1
  V  V60  1  0.62163138  0.75891871  0.88748616  1
  V  V61  1  0.00344694  0.37428448  0.36075397  1
  V  V62  1  0.37763852  0.62752295  0.23798146  1
  V  V63  1  0.24546466  0.75040310  -0.00802721  1
  V  V64  1  0.24056944  0.62247576  0.87595722  1
  V  V65  1  0.12096340  0.37391185  0.74698713  1
  V  V66  1  0.50520089  0.76010725  0.74749162  1
  V  V67  1  -0.00711230  0.00030351  0.48264202  1
  V  V68  1  -0.00225481  0.37436465  0.87253072  1
  V  V69  1  0.12079503  0.62677442  0.00765221  1
  V  V70  1  0.87612565  0.37524598  0.50047727  1
  V  V71  1  0.37521183  0.37493940  -0.00334086  1
  V  V72  1  0.24909555  0.12269134  0.87480839  1
  V  V73  1  0.50529045  0.50106073  0.51315642  1
  V  V74  1  0.37922833  0.86432220  -0.00160300  1
  V  V75  1  0.24916261  0.24904794  -0.00000297  1
  V  V76  1  0.12676250  0.75251858  0.38259414  1
  V  V77  1  0.74777613  0.87783230  0.13458426  1
  V  V78  1  0.50161807  -0.00586164  -0.00598434  1
  V  V79  1  0.49751198  -0.00604620  0.50150768  1
  V  V80  1  0.24193121  0.37691713  0.12941865  1
  V  V81  1  -0.00740593  0.63319841  0.62228418  1
  V  V82  1  0.25555752  0.63156197  0.38590460  1
  V  V83  1  0.24837042  -0.00317709  0.74199514  1
  V  V84  1  0.62425669  0.39076715  0.75331856  1
  Zn  Zn85  1  0.82456090  -0.02940803  0.30412977  1
  Zn  Zn86  1  0.37619438  0.50482112  0.37667056  1
  Zn  Zn87  1  0.86571785  0.49571350  0.86775750  1
  Zn  Zn88  1  0.87720586  0.62416643  0.23686433  1
  Zn  Zn89  1  0.62458456  0.12385491  0.49895242  1
  Zn  Zn90  1  0.63110760  0.88549803  0.76324984  1
  Zn  Zn91  1  0.12398339  0.50515285  0.62576223  1
  Zn  Zn92  1  0.12965194  0.63262539  0.50492142  1
  Zn  Zn93  1  0.62459241  0.25323118  0.87467862  1
  Zn  Zn94  1  0.49605476  0.25094524  0.24934500  1
  Zn  Zn95  1  0.86569828  0.61813273  0.73965268  1
  Zn  Zn96  1  0.37495971  0.25223118  0.12757048  1
  Zn  Zn97  1  0.25147877  0.12603630  0.36821712  1
  Zn  Zn98  1  0.49939666  0.62808431  0.63187906  1
  Zn  Zn99  1  0.24673595  0.37623648  0.62213487  1
  Zn  Zn100  1  0.78667063  -0.14292702  0.65819912  1
  Zn  Zn101  1  0.85337323  0.86646153  0.48730366  1
  Zn  Zn102  1  0.12436891  0.24713187  0.87217835  1
  Zn  Zn103  1  0.11596353  0.49955559  0.13246022  1
  Zn  Zn104  1  0.37379442  0.12766484  0.25064226  1
  Zn  Zn105  1  0.25286863  -0.00084924  0.24732046  1
  Zn  Zn106  1  -0.01311992  0.87323434  0.36744100  1
  Zn  Zn107  1  0.19241606  0.18496895  0.18457951  1
  Zn  Zn108  1  0.18669204  0.18596520  0.68380204  1
  Zn  Zn109  1  0.19158905  0.68872574  0.18718191  1
  Zn  Zn110  1  0.18139442  0.68771533  0.68959368  1
  Zn  Zn111  1  0.67926649  0.18956739  0.18537928  1
  Zn  Zn112  1  0.68554125  0.18445081  0.68972841  1
  Zn  Zn113  1  0.67772235  0.68234041  0.19649025  1
  Zn  Zn114  1  0.68280255  0.69404445  0.69358819  1
  Zn  Zn115  1  0.31365155  0.31370113  0.31164613  1
  Zn  Zn116  1  0.31275268  0.31208739  0.81454673  1
  Zn  Zn117  1  0.31524237  0.81170830  0.31539980  1
  Zn  Zn118  1  0.30237303  0.80942874  0.80063200  1
  Zn  Zn119  1  0.81082744  0.31488772  0.31516860  1
  Zn  Zn120  1  0.80813366  0.30928582  0.80868867  1
  Zn  Zn121  1  0.81671877  0.80149681  0.31102573  1
  Zn  Zn122  1  0.80564884  0.81179990  0.82759534  1
  Zn  Zn123  1  0.18643892  0.43933566  0.43328724  1
  Zn  Zn124  1  0.18417348  0.43640825  0.93691603  1
  Zn  Zn125  1  0.19073408  0.93544943  0.43610648  1
  Zn  Zn126  1  0.18810789  0.93697127  0.93344444  1
  Zn  Zn127  1  0.68982134  0.43929672  0.44514849  1
  Zn  Zn128  1  0.68373221  0.43759644  0.93564202  1
  Zn  Zn129  1  0.68146439  0.94740590  0.43172852  1
  Zn  Zn130  1  0.69603357  0.93759679  0.95000805  1
  Zn  Zn131  1  0.31151292  0.05686983  0.06013495  1
  Zn  Zn132  1  0.31263573  0.06003814  0.55872240  1
  Zn  Zn133  1  0.30888003  0.56177930  0.06351454  1
  Zn  Zn134  1  0.31437386  0.56106265  0.56564325  1
  Zn  Zn135  1  0.83356552  0.04229032  0.11123412  1
  Zn  Zn136  1  0.82480070  0.02737733  0.57460624  1
  Zn  Zn137  1  0.80336569  0.54033591  0.05436865  1
  Zn  Zn138  1  0.81671076  0.69422280  0.55602100  1
  Zn  Zn139  1  0.43032551  0.43815553  0.18817565  1
  Zn  Zn140  1  0.43914926  0.43481830  0.68851807  1
  Zn  Zn141  1  0.43813212  0.93480240  0.18530052  1
  Zn  Zn142  1  0.44422108  0.93077330  0.68730603  1
  Zn  Zn143  1  0.93333044  0.43847755  0.18521388  1
  Zn  Zn144  1  0.93162089  0.44185076  0.68424840  1
  Zn  Zn145  1  0.94924754  0.93345248  0.18206493  1
  Zn  Zn146  1  0.94221801  0.94204480  0.68586243  1
  Zn  Zn147  1  0.07297911  0.06297854  0.30836778  1
  Zn  Zn148  1  0.05974726  0.05677649  0.81251569  1
  Zn  Zn149  1  0.06557137  0.56811437  0.31611679  1
  Zn  Zn150  1  0.05577550  0.56149791  0.81150359  1
  Zn  Zn151  1  0.55926108  0.06618245  0.31421765  1
  Zn  Zn152  1  0.55946772  0.06607594  0.81398659  1
  Zn  Zn153  1  0.55946304  0.56587025  0.31699203  1
  Zn  Zn154  1  0.55577091  0.57199030  0.81552317  1
  Zn  Zn155  1  0.43649665  0.18732145  0.43693827  1
  Zn  Zn156  1  0.43456400  0.18334432  0.93817717  1
  Zn  Zn157  1  0.43899122  0.68858894  0.44165662  1
  Zn  Zn158  1  0.43400907  0.68313282  0.92881728  1
  Zn  Zn159  1  0.93969512  0.18921104  0.43279097  1
  Zn  Zn160  1  0.93687431  0.18811135  0.93901159  1
  Zn  Zn161  1  0.94467440  0.68939855  0.43053689  1
  Zn  Zn162  1  0.94232458  0.68757376  0.93035629  1
  Zn  Zn163  1  0.06425202  0.30998992  0.06272936  1
  Zn  Zn164  1  0.06031710  0.31375010  0.55969019  1
  Zn  Zn165  1  0.06512831  0.81014669  0.05945958  1
  Zn  Zn166  1  0.04781674  0.81609655  0.55872894  1
  Zn  Zn167  1  0.55953398  0.31286709  0.05930707  1
  Zn  Zn168  1  0.56585053  0.31407058  0.56759085  1
  Zn  Zn169  1  0.56415393  0.81547549  0.06441106  1
  Zn  Zn170  1  0.66569796  0.81754176  0.55087137  1
  O  O171  1  0.12015567  0.12030396  0.11687211  1
  O  O172  1  0.11940620  0.11870467  0.61490190  1
  O  O173  1  0.13311111  0.62089270  0.11045741  1
  O  O174  1  0.11507076  0.62583396  0.62246962  1
  O  O175  1  0.61415151  0.11764515  0.11911648  1
  O  O176  1  0.60897374  0.12343340  0.62443744  1
  O  O177  1  0.62781320  0.61422155  0.11451703  1
  O  O178  1  0.62414175  0.63052463  0.61424898  1
  O  O179  1  0.38438274  0.37768007  0.38296085  1
  O  O180  1  0.36781235  0.38299655  0.88851727  1
  O  O181  1  0.38340814  0.88034162  0.38179848  1
  O  O182  1  0.36496005  0.88608372  0.87987666  1
  O  O183  1  0.88019560  0.38455312  0.37894164  1
  O  O184  1  0.87787773  0.37098533  0.88095451  1
  O  O185  1  0.87053357  0.88433213  0.36895014  1
  O  O186  1  0.87867644  0.88194319  0.88937412  1
  O  O187  1  0.25969503  0.00165719  0.37160663  1
  O  O188  1  0.25675542  0.00599855  0.86646635  1
  O  O189  1  0.25248874  0.50974304  0.36830079  1
  O  O190  1  0.25758210  0.50241538  0.87195432  1
  O  O191  1  0.74362163  0.02208492  0.36925782  1
  O  O192  1  0.76096474  0.01255508  0.88595731  1
  O  O193  1  0.75852223  0.50427564  0.37331379  1
  O  O194  1  0.74888106  0.52029170  0.89058757  1
  O  O195  1  0.24785790  0.49317157  0.13334693  1
  O  O196  1  0.24608390  0.49585822  0.63558244  1
  O  O197  1  0.24181609  0.98714795  0.12249001  1
  O  O198  1  0.23926347  1.00743532  0.63096125  1
  O  O199  1  0.73497266  0.48920282  0.12991514  1
  O  O200  1  0.75332349  0.48433209  0.62066425  1
  O  O201  1  0.73318738  0.99132461  0.11787447  1
  O  O202  1  0.72536951  1.02019258  0.62612910  1
  O  O203  1  -0.00242119  0.38248786  0.26161806  1
  O  O204  1  0.00404462  0.36853387  0.75268337  1
  O  O205  1  0.01191104  0.86400203  0.24813394  1
  O  O206  1  0.00140967  0.87163232  0.75541684  1
  O  O207  1  0.50322460  0.37744926  0.26031346  1
  O  O208  1  0.51567381  0.36646265  0.74239959  1
  O  O209  1  0.49069620  0.85945587  0.25758480  1
  O  O210  1  0.50832752  0.86570007  0.75742295  1
  O  O211  1  0.49712687  0.12811022  0.23889310  1
  O  O212  1  0.49134817  0.13290830  0.74328188  1
  O  O213  1  0.48548200  0.63301388  0.25564942  1
  O  O214  1  0.48863225  0.63745882  0.75152621  1
  O  O215  1  1.01006849  0.12769713  0.23628377  1
  O  O216  1  0.99377785  0.12859871  0.74494559  1
  O  O217  1  1.00057419  0.63322903  0.24681456  1
  O  O218  1  1.00041176  0.63785900  0.74368784  1
  O  O219  1  0.36541359  0.25687211  -0.00112084  1
  O  O220  1  0.36659653  0.25582917  0.50312188  1
  O  O221  1  0.36925102  0.75961416  -0.00988263  1
  O  O222  1  0.37798146  0.76262131  0.50269607  1
  O  O223  1  0.86864371  0.25728843  0.00600911  1
  O  O224  1  0.86867815  0.25440780  0.50519350  1
  O  O225  1  0.87263160  0.75265208  0.00218890  1
  O  O226  1  0.88774277  0.75783848  0.49750149  1
  O  O227  1  0.13216215  0.24398606  0.49757763  1
  O  O228  1  0.13651089  0.24303889  0.99625711  1
  O  O229  1  0.11774919  0.75632380  0.48601953  1
  O  O230  1  0.13291049  0.74037621  0.99706599  1
  O  O231  1  0.63250860  0.25025737  0.49450978  1
  O  O232  1  0.63242908  0.24509774  0.99703418  1
  O  O233  1  0.61640175  0.73874662  0.48469628  1
  O  O234  1  0.61985699  0.74011730  0.99744296  1
  O  O235  1  0.49705657  0.23922435  0.12201480  1
  O  O236  1  0.49432871  0.24347963  0.63117896  1
  O  O237  1  0.50385971  0.75246708  0.14116896  1
  O  O238  1  0.50377534  0.75096086  0.64884884  1
  O  O239  1  0.99617098  0.24044155  0.12314171  1
  O  O240  1  0.99184676  0.24299882  0.62757846  1
  O  O241  1  1.00898271  0.74792826  0.13758169  1
  O  O242  1  1.00151771  0.74606578  0.63538026  1
  O  O243  1  0.01170144  0.26077165  0.37804641  1
  O  O244  1  0.00062038  0.25679694  0.86821170  1
  O  O245  1  0.01291599  0.75282662  0.36006542  1
  O  O246  1  -0.00239711  0.76335058  0.86390802  1
  O  O247  1  0.50686547  0.26291759  0.37898755  1
  O  O248  1  0.49802423  0.24513296  0.86232619  1
  O  O249  1  0.50245297  0.75708244  0.36956417  1
  O  O250  1  0.51954920  0.74215975  0.87858410  1
  O  O251  1  0.24007345  0.13271706  0.49767951  1
  O  O252  1  0.24442793  0.13175239  0.99640675  1
  O  O253  1  0.24994994  0.62088589  0.49044951  1
  O  O254  1  0.24564333  0.63075077  0.99351078  1
  O  O255  1  0.74780392  0.13783660  0.48936652  1
  O  O256  1  0.74497673  0.13622526  0.99607699  1
  O  O257  1  0.74358517  0.62717852  0.48869676  1
  O  O258  1  0.74485353  0.63469547  1.00474515  1
  O  O259  1  0.25332197  0.36718833  0.00406693  1
  O  O260  1  0.25491255  0.36935869  0.50010525  1
  O  O261  1  0.25445438  0.86660675  0.00086228  1
  O  O262  1  0.26421520  0.87601387  0.49849409  1
  O  O263  1  0.75493433  0.36514435  0.00238372  1
  O  O264  1  0.75430544  0.36558789  0.51058683  1
  O  O265  1  0.76177045  0.86847411  0.01505330  1
  O  O266  1  0.74206829  0.88623817  0.50206982  1
  O  O267  1  0.13955238  0.50914516  0.24897177  1
  O  O268  1  0.13011323  0.48985014  0.75035467  1
  O  O269  1  0.12926402  0.98773116  0.23946180  1
  O  O270  1  0.12901498  0.99635427  0.73789522  1
  O  O271  1  0.62552986  0.49798837  0.24442471  1
  O  O272  1  0.61664646  0.48925510  0.75672449  1
  O  O273  1  0.61717384  1.00146894  0.23853747  1
  O  O274  1  0.61301105  1.00230452  0.73703994  1
  O  O275  1  0.37761496  -0.00288577  0.26256771  1
  O  O276  1  0.36812479  0.00099155  0.75388778  1
  O  O277  1  0.36879289  0.51311236  0.25342479  1
  O  O278  1  0.36482518  0.48760822  0.75886233  1
  O  O279  1  0.87657981  0.01058003  0.21573042  1
  O  O280  1  0.88033718  0.01155972  0.76241873  1
  O  O281  1  0.86746610  0.50482377  0.25485184  1
  O  O282  1  0.88271417  0.50722577  0.75775533  1
  O  O283  1  0.11615604  0.36585619  0.37827887  1
  O  O284  1  0.11745738  0.37138647  0.86335570  1
  O  O285  1  0.12862942  0.86997331  0.36137091  1
  O  O286  1  0.11130404  0.88730359  0.86356366  1
  O  O287  1  0.62058779  0.36782296  0.37404035  1
  O  O288  1  0.63288996  0.37077986  0.85830687  1
  O  O289  1  0.60920440  0.86801189  0.37899895  1
  O  O290  1  0.63093439  0.86159778  0.88809886  1
  O  O291  1  0.38681243  0.12114641  0.12077751  1
  O  O292  1  0.38211931  0.12900195  0.62946566  1
  O  O293  1  0.37096255  0.62421694  0.13909816  1
  O  O294  1  0.37706525  0.61900813  0.64264156  1
  O  O295  1  0.89642871  0.13691778  0.11400034  1
  O  O296  1  0.88010382  0.12205226  0.63332786  1
  O  O297  1  0.85593499  0.63117381  0.11441018  1
  O  O298  1  0.88820310  0.62851181  0.62375039  1
  O  O299  1  0.25265862  0.25712417  0.11570782  1
  O  O300  1  0.25442618  0.25090989  0.61296281  1
  O  O301  1  0.24554206  0.76118692  0.11096696  1
  O  O302  1  0.28315769  0.73483509  0.70299593  1
  O  O303  1  0.75492756  0.25201586  0.11747950  1
  O  O304  1  0.75459800  0.24777739  0.61822444  1
  O  O305  1  0.74491049  0.75301528  0.12848855  1
  O  O306  1  0.74273429  0.75627052  0.62008132  1
  O  O307  1  0.24272149  0.25235652  0.38505492  1
  O  O308  1  0.24853860  0.24121893  0.88166982  1
  O  O309  1  0.24116369  0.74114790  0.36814285  1
  O  O310  1  0.24986681  0.73886833  0.88348040  1
  O  O311  1  0.74176725  0.24821550  0.38224909  1
  O  O312  1  0.75206095  0.23827525  0.88366796  1
  O  O313  1  0.73696860  0.73983263  0.36529678  1
  O  O314  1  0.73445885  0.73484731  0.88136597  1
  O  O315  1  0.01536964  0.13139188  0.00234723  1
  O  O316  1  0.01266757  0.12156455  0.49895614  1
  O  O317  1  0.00857481  0.61502890  -0.00916531  1
  O  O318  1  0.00473016  0.61826113  0.50512607  1
  O  O319  1  0.50369522  0.11617851  0.00464294  1
  O  O320  1  0.49754896  0.11740922  0.50809454  1
  O  O321  1  0.50309166  0.61142185  -0.00265365  1
  O  O322  1  0.50702351  0.61656666  0.50449596  1
  O  O323  1  0.49851354  0.38146473  0.49687250  1
  O  O324  1  0.48995488  0.38702434  1.00169657  1
  O  O325  1  0.48855450  0.88836126  0.49155281  1
  O  O326  1  0.49068485  0.88231331  1.00320549  1
  O  O327  1  0.99319470  0.38195913  0.49437219  1
  O  O328  1  0.99300542  0.37513595  0.99269912  1
  O  O329  1  0.99694497  0.89419072  0.49094670  1
  O  O330  1  0.99275047  0.86726246  0.99083416  1
  O  O331  1  0.50096945  0.48894852  0.38406409  1
  O  O332  1  0.48432552  0.50425064  0.88145959  1
  O  O333  1  0.49547035  0.99439969  0.38143621  1
  O  O334  1  0.49035841  1.00492591  0.88540501  1
  O  O335  1  0.99529122  0.49706909  0.37901796  1
  O  O336  1  0.99865347  0.48857337  0.88522086  1
  O  O337  1  1.01021234  1.00038181  0.38069009  1
  O  O338  1  0.98693782  0.99040094  0.87507011  1
  O  O339  1  0.01671417  0.01307273  0.12151536  1
  O  O340  1  0.00951464  0.00875185  0.61045537  1
  O  O341  1  -0.00125638  0.49331772  0.10869949  1
  O  O342  1  0.00134988  0.50838529  0.61526358  1
  O  O343  1  0.50559595  0.00374073  0.11525120  1
  O  O344  1  0.50216608  0.00824811  0.61840512  1
  O  O345  1  0.50788798  0.49482287  0.11975275  1
  O  O346  1  0.50034313  0.50082511  0.61606198  1
  O  O347  1  0.25863179  0.38841524  0.24124738  1
  O  O348  1  0.24003423  0.37924289  0.75080443  1
  O  O349  1  0.24555036  0.87155983  0.23879634  1
  O  O350  1  0.23596860  0.89097925  0.75500521  1
  O  O351  1  0.74111690  0.38142072  0.24641115  1
  O  O352  1  0.73951521  0.37173981  0.73862550  1
  O  O353  1  0.76166442  0.87507926  0.23643794  1
  O  O354  1  0.74477376  0.87510613  0.75878381  1
  O  O355  1  0.25526151  0.11757629  0.24926525  1
  O  O356  1  0.25372846  0.11604399  0.75283056  1
  O  O357  1  0.26143911  0.62204402  0.25604261  1
  O  O358  1  0.24800762  0.60519004  0.75856458  1
  O  O359  1  0.74594613  0.13788915  0.26140916  1
  O  O360  1  0.75935111  0.12974782  0.76215142  1
  O  O361  1  0.75037338  0.61688941  0.26146358  1
  O  O362  1  0.74609509  0.62600022  0.76387488  1
  O  O363  1  0.37402812  0.11515782  0.37393489  1
  O  O364  1  0.36862392  0.11412147  0.86873365  1
  O  O365  1  0.36817276  0.62574678  0.37021957  1
  O  O366  1  0.36010225  0.61715885  0.86181308  1
  O  O367  1  0.86117042  0.13656602  0.36866026  1
  O  O368  1  0.87114672  0.11750934  0.87314119  1
  O  O369  1  0.86869459  0.61456424  0.37488690  1
  O  O370  1  0.85635759  0.62810973  0.87807111  1
  O  O371  1  0.13809442  0.37751777  0.11998560  1
  O  O372  1  0.12369557  0.37517985  0.63706347  1
  O  O373  1  0.13077509  0.88105744  0.12808469  1
  O  O374  1  0.11576352  0.88741279  0.62919502  1
  O  O375  1  0.62724268  0.37938404  0.13018874  1
  O  O376  1  0.63798653  0.37332674  0.63607026  1
  O  O377  1  0.63294037  0.88454497  0.12368460  1
  O  O378  1  0.62053374  0.89274647  0.62881098  1
  O  O379  1  0.13353509  0.25033689  0.26076520  1
  O  O380  1  0.11786798  0.25470263  0.74924853  1
  O  O381  1  0.12063189  0.75434717  0.25361751  1
  O  O382  1  0.11490100  0.76705734  0.74636266  1
  O  O383  1  0.61889274  0.25964837  0.25863717  1
  O  O384  1  0.61545971  0.25277264  0.75241989  1
  O  O385  1  0.60537643  0.74001171  0.26318632  1
  O  O386  1  0.61648757  0.75131711  0.76924755  1
  O  O387  1  0.37837306  0.24797904  0.24570514  1
  O  O388  1  0.38004797  0.24659893  0.74457524  1
  O  O389  1  0.38440201  0.73874121  0.25259314  1
  O  O390  1  0.40088334  0.75164549  0.78229126  1
  O  O391  1  0.87136096  0.25873826  0.23584235  1
  O  O392  1  0.87974444  0.23884329  0.74464261  1
  O  O393  1  0.89373670  0.74165988  0.24933853  1
  O  O394  1  0.88045126  0.74906822  0.75446949  1
  O  O395  1  0.38488031  0.49372416  0.49951719  1
  O  O396  1  0.37780335  0.49581391  0.99425374  1
  O  O397  1  0.37996732  0.99772997  0.48901144  1
  O  O398  1  0.38047765  0.98982515  0.99082784  1
  O  O399  1  0.88876679  0.49242795  0.48850172  1
  O  O400  1  0.88034726  0.48395730  0.99401017  1
  O  O401  1  0.89455086  1.01981588  0.48466980  1
  O  O402  1  0.87357374  0.99096948  0.99954915  1
  O  O403  1  0.13327819  0.00919041  0.00585953  1
  O  O404  1  0.12190190  0.00801257  0.50175839  1
  O  O405  1  0.11637133  0.50554430  0.00188843  1
  O  O406  1  0.11300334  0.49950156  0.50036789  1
  O  O407  1  0.61522855  0.00494525  0.00279913  1
  O  O408  1  0.61134341  0.00614566  0.50925965  1
  O  O409  1  0.61459705  0.50253768  0.00670647  1
  O  O410  1  0.61705246  0.51133309  0.49591978  1
  O  O411  1  0.36408778  0.37675226  0.11183854  1
  O  O412  1  0.37293972  0.36730935  0.61808382  1
  O  O413  1  0.36566020  0.87992500  0.11138242  1
  O  O414  1  0.37572319  0.88233009  0.61143350  1
  O  O415  1  0.86759256  0.36882938  0.11553401  1
  O  O416  1  0.86407399  0.36649452  0.62215605  1
  O  O417  1  0.87299782  0.87226531  0.11526267  1
  O  O418  1  0.86510394  0.91748364  0.60732323  1
  O  O419  1  0.12833388  0.13648337  0.38068941  1
  O  O420  1  0.13034801  0.12227035  0.87999679  1
  O  O421  1  0.13526726  0.63565406  0.37961159  1
  O  O422  1  0.13614930  0.61486950  0.88270968  1
  O  O423  1  0.62491731  0.14082598  0.37649700  1
  O  O424  1  0.63367849  0.12604073  0.88123715  1
  O  O425  1  0.63170963  0.62956256  0.38253559  1
  O  O426  1  0.63251785  0.62688930  0.89041245  1
