# generated using pymatgen
data_V85Zn86O256
_symmetry_space_group_name_H-M   'P 1'
_cell_length_a   16.92262224
_cell_length_b   16.93074099
_cell_length_c   16.93299491
_cell_angle_alpha   90.04604048
_cell_angle_beta   89.97296876
_cell_angle_gamma   90.06337041
_symmetry_Int_Tables_number   1
_chemical_formula_structural   V85Zn86O256
_chemical_formula_sum   'V85 Zn86 O256'
_cell_volume   4851.51021064
_cell_formula_units_Z   1
loop_
 _symmetry_equiv_pos_site_id
 _symmetry_equiv_pos_as_xyz
  1  'x, y, z'
loop_
 _atom_site_type_symbol
 _atom_site_label
 _atom_site_symmetry_multiplicity
 _atom_site_fract_x
 _atom_site_fract_y
 _atom_site_fract_z
 _atom_site_occupancy
  V  V0  1  0.74350282  0.12458769  0.88316075  1
  V  V1  1  0.63317765  0.24920279  0.36939519  1
  V  V2  1  0.37512874  0.12682774  0.25237020  1
  V  V3  1  0.62039823  0.50397104  0.62567787  1
  V  V4  1  0.24909288  0.13913397  0.37724388  1
  V  V5  1  0.75733989  0.25211904  0.49944273  1
  V  V6  1  0.50515738  0.50227499  0.00141776  1
  V  V7  1  0.87536590  0.24872280  0.12591459  1
  V  V8  1  0.00349477  0.13185833  0.62938901  1
  V  V9  1  0.87463335  0.00162087  0.87695363  1
  V  V10  1  0.37485382  0.87228611  -0.00356668  1
  V  V11  1  0.62470623  0.87172775  0.75230153  1
  V  V12  1  0.12275051  0.87501184  0.24893212  1
  V  V13  1  0.24560108  0.38993143  0.12389528  1
  V  V14  1  -0.00239603  0.87215472  0.37498619  1
  V  V15  1  0.23673678  0.74770610  0.00205640  1
  V  V16  1  -0.00598846  0.76046964  0.74339977  1
  V  V17  1  0.13074356  0.50005277  0.62848437  1
  V  V18  1  0.37820584  -0.01127419  0.37520069  1
  V  V19  1  0.13485120  0.00189343  0.62370881  1
  V  V20  1  0.00267013  0.37063353  0.37765920  1
  V  V21  1  0.37585536  0.62350586  0.24571462  1
  V  V22  1  0.37199829  0.24932985  0.61954341  1
  V  V23  1  0.13121688  0.12951743  0.00147318  1
  V  V24  1  0.24620191  0.62069163  0.36662335  1
  V  V25  1  0.37113326  -0.00507943  0.86885268  1
  V  V26  1  -0.00436119  0.49669356  0.50153795  1
  V  V27  1  0.87628055  0.86948118  0.50812688  1
  V  V28  1  0.87652716  0.63044588  0.74753507  1
  V  V29  1  0.00011990  0.12349448  0.12649936  1
  V  V30  1  0.62712837  0.00334412  0.62512159  1
  V  V31  1  0.75098869  0.74675524  0.50617047  1
  V  V32  1  0.62554541  0.74658212  0.89266906  1
  V  V33  1  0.74890927  0.86593079  0.12694098  1
  V  V34  1  0.11653981  0.24424069  0.86849331  1
  V  V35  1  0.37131722  0.12106159  0.74675101  1
  V  V36  1  0.25537852  0.37758119  0.63130638  1
  V  V37  1  0.36999878  0.49701488  0.36808713  1
  V  V38  1  0.49972326  0.50088997  0.50438103  1
  V  V39  1  0.36313338  0.25000112  0.12080554  1
  V  V40  1  0.25386273  0.13041100  0.87591611  1
  V  V41  1  0.14025448  0.88251379  0.75008095  1
  V  V42  1  0.50242060  0.00305848  -0.00299808  1
  V  V43  1  0.00999804  0.24819072  0.25259189  1
  V  V44  1  0.87872253  0.13525609  0.75164186  1
  V  V45  1  0.75337899  0.62999035  0.89153115  1
  V  V46  1  0.36658607  0.37042258  0.49665904  1
  V  V47  1  0.75467698  0.50060485  0.75667660  1
  V  V48  1  0.36968539  0.37679023  -0.00424724  1
  V  V49  1  0.74518998  0.62608702  0.37971345  1
  V  V50  1  0.14559884  0.72498750  0.84804896  1
  V  V51  1  0.12969278  0.13771332  0.49540183  1
  V  V52  1  0.24856779  0.87780644  0.12665036  1
  V  V53  1  0.75890728  0.37592458  0.62270098  1
  V  V54  1  0.74151797  0.37410888  0.13024617  1
  V  V55  1  0.37752614  0.74983162  0.12805401  1
  V  V56  1  0.63079379  0.12693518  0.49515575  1
  V  V57  1  0.13399646  0.58366389  -0.01341731  1
  V  V58  1  0.61187377  0.87305899  0.25366052  1
  V  V59  1  0.62224666  0.24830909  0.88259082  1
  V  V60  1  0.87627021  0.62649345  0.24973060  1
  V  V61  1  0.49993094  -0.00747123  0.49422549  1
  V  V62  1  0.00121789  -0.00051312  0.00108351  1
  V  V63  1  0.75033537  0.00230513  0.74947466  1
  V  V64  1  0.87155291  0.86586819  -0.00018279  1
  V  V65  1  0.86699879  0.00464324  0.37595997  1
  V  V66  1  0.25605186  0.76190508  0.49706248  1
  V  V67  1  0.62674576  0.00413347  0.12362117  1
  V  V68  1  0.11872735  0.36849731  0.74645037  1
  V  V69  1  0.88314754  0.37997153  0.00172570  1
  V  V70  1  0.00270827  0.00053208  0.50044788  1
  V  V71  1  0.62588259  0.37397465  0.75191561  1
  V  V72  1  0.87314144  0.49544377  0.37746264  1
  V  V73  1  0.61330747  0.75046120  0.37499440  1
  V  V74  1  0.01026272  0.61298616  0.11680275  1
  V  V75  1  0.50477407  0.25593583  0.24673250  1
  V  V76  1  0.50744385  0.37733036  0.37184633  1
  V  V77  1  0.00315974  0.87529984  0.87375708  1
  V  V78  1  0.12675612  0.62592528  0.49706695  1
  V  V79  1  0.12986445  0.38839610  0.25187580  1
  V  V80  1  0.50826731  0.62854051  0.12413487  1
  V  V81  1  0.50095651  0.12653277  0.62312203  1
  V  V82  1  0.49438626  0.38058235  0.87434524  1
  V  V83  1  0.50114823  0.12692895  0.11998068  1
  V  V84  1  0.00116866  0.62995775  0.62589083  1
  Zn  Zn85  1  0.39131918  0.75405697  0.62113986  1
  Zn  Zn86  1  0.74596778  0.00336368  0.25373102  1
  Zn  Zn87  1  0.12566124  0.00066574  0.12478768  1
  Zn  Zn88  1  0.57117639  0.66587808  0.55262151  1
  Zn  Zn89  1  0.24846935  0.00267328  0.25214848  1
  Zn  Zn90  1  0.87387789  0.74317784  0.11765170  1
  Zn  Zn91  1  0.26572420  0.88030572  0.62352400  1
  Zn  Zn92  1  0.49762109  0.25283716  0.74847155  1
  Zn  Zn93  1  0.28356467  0.55994652  0.83634738  1
  Zn  Zn94  1  -0.00023409  0.37371460  0.87383306  1
  Zn  Zn95  1  0.51472801  0.72485921  0.73627247  1
  Zn  Zn96  1  0.12379313  0.74992328  0.37147611  1
  Zn  Zn97  1  0.39534253  0.61614844  0.73890780  1
  Zn  Zn98  1  0.73919789  0.49421033  0.25718764  1
  Zn  Zn99  1  0.75684926  0.86748729  0.63049354  1
  Zn  Zn100  1  0.62251595  0.49982807  0.13292208  1
  Zn  Zn101  1  0.87052859  0.12818968  0.25698688  1
  Zn  Zn102  1  -0.00170849  0.74904499  0.24435431  1
  Zn  Zn103  1  0.74720184  0.24745806  0.00333166  1
  Zn  Zn104  1  0.88165041  0.25662054  0.62505502  1
  Zn  Zn105  1  0.88882826  0.50794796  0.88380950  1
  Zn  Zn106  1  0.49596827  0.86503097  0.87033506  1
  Zn  Zn107  1  0.18693074  0.18900497  0.19043677  1
  Zn  Zn108  1  0.19336972  0.18812853  0.68608025  1
  Zn  Zn109  1  0.18418872  0.68564047  0.18465923  1
  Zn  Zn110  1  0.22306517  0.67042600  0.66995385  1
  Zn  Zn111  1  0.69095747  0.18276331  0.19054096  1
  Zn  Zn112  1  0.68983353  0.18994616  0.68931950  1
  Zn  Zn113  1  0.68863586  0.68770864  0.19559422  1
  Zn  Zn114  1  0.69254686  0.68651242  0.69389402  1
  Zn  Zn115  1  0.31291595  0.31441448  0.30717578  1
  Zn  Zn116  1  0.31034736  0.31001526  0.80954481  1
  Zn  Zn117  1  0.31005116  0.80952468  0.31040275  1
  Zn  Zn118  1  0.32088703  0.74636034  0.81613495  1
  Zn  Zn119  1  0.81695188  0.31170266  0.31136890  1
  Zn  Zn120  1  0.81120958  0.31204540  0.81708726  1
  Zn  Zn121  1  0.80728056  0.81330000  0.31353266  1
  Zn  Zn122  1  0.81149849  0.81176264  0.81690970  1
  Zn  Zn123  1  0.18633490  0.43618996  0.43810191  1
  Zn  Zn124  1  0.17946409  0.42450371  0.94299110  1
  Zn  Zn125  1  0.18715112  0.94614203  0.43112996  1
  Zn  Zn126  1  0.19047511  0.93924627  0.93555027  1
  Zn  Zn127  1  0.68609388  0.43649199  0.44115825  1
  Zn  Zn128  1  0.69068878  0.43751593  0.94409881  1
  Zn  Zn129  1  0.68657651  0.93133437  0.44006694  1
  Zn  Zn130  1  0.68753092  0.93383706  0.93982876  1
  Zn  Zn131  1  0.31398342  0.06121210  0.06055277  1
  Zn  Zn132  1  0.31357924  0.06166224  0.55529155  1
  Zn  Zn133  1  0.31520596  0.56301388  0.05407260  1
  Zn  Zn134  1  0.31571134  0.56383704  0.55888348  1
  Zn  Zn135  1  0.81256289  0.05925911  0.06593527  1
  Zn  Zn136  1  0.81483480  0.06475153  0.56224253  1
  Zn  Zn137  1  0.81546944  0.55610326  0.06982199  1
  Zn  Zn138  1  0.81228199  0.56296363  0.56511130  1
  Zn  Zn139  1  0.43636911  0.43858287  0.18600524  1
  Zn  Zn140  1  0.43183301  0.45389429  0.70181551  1
  Zn  Zn141  1  0.43714189  0.93893830  0.18714521  1
  Zn  Zn142  1  0.43739177  0.93163211  0.68551243  1
  Zn  Zn143  1  0.93423669  0.43714231  0.19194252  1
  Zn  Zn144  1  0.93968249  0.44211071  0.69172002  1
  Zn  Zn145  1  0.93487330  0.93655069  0.18790916  1
  Zn  Zn146  1  0.93953033  0.94746538  0.68630558  1
  Zn  Zn147  1  0.06181288  0.05998748  0.31424268  1
  Zn  Zn148  1  0.06380621  0.06039150  0.81120273  1
  Zn  Zn149  1  0.05772850  0.56124952  0.31006535  1
  Zn  Zn150  1  0.06548765  0.55597405  0.80996658  1
  Zn  Zn151  1  0.56328831  0.06579348  0.30986263  1
  Zn  Zn152  1  0.55843132  0.06252296  0.81164608  1
  Zn  Zn153  1  0.56174985  0.56520955  0.30979231  1
  Zn  Zn154  1  0.56917483  0.56192756  0.82041683  1
  Zn  Zn155  1  0.44227102  0.18668458  0.43551138  1
  Zn  Zn156  1  0.43733543  0.19078676  0.93722518  1
  Zn  Zn157  1  0.43134633  0.68516546  0.43389068  1
  Zn  Zn158  1  0.43579077  0.68089947  0.93610219  1
  Zn  Zn159  1  0.94203475  0.18751242  0.44078995  1
  Zn  Zn160  1  0.93754409  0.18847855  0.94103062  1
  Zn  Zn161  1  0.93592798  0.68718492  0.43757547  1
  Zn  Zn162  1  0.95303018  0.68511540  0.93390478  1
  Zn  Zn163  1  0.06675910  0.31050962  0.06406256  1
  Zn  Zn164  1  0.06448990  0.31283761  0.56138145  1
  Zn  Zn165  1  0.05827807  0.80720208  0.06374894  1
  Zn  Zn166  1  0.06968765  0.81199262  0.56349825  1
  Zn  Zn167  1  0.55887996  0.31248627  0.05988654  1
  Zn  Zn168  1  0.56256636  0.31590226  0.56127738  1
  Zn  Zn169  1  0.55980143  0.81633223  0.06622062  1
  Zn  Zn170  1  0.56498576  0.82534403  0.56461653  1
  O  O171  1  0.12134837  0.12410441  0.11776559  1
  O  O172  1  0.12297020  0.12034470  0.62012075  1
  O  O173  1  0.11584069  0.62293517  0.11672887  1
  O  O174  1  0.12733826  0.61665943  0.61582127  1
  O  O175  1  0.61958964  0.11135386  0.12685448  1
  O  O176  1  0.62117291  0.12257996  0.62039849  1
  O  O177  1  0.61095934  0.63023355  0.13138741  1
  O  O178  1  0.63854220  0.60743135  0.62564940  1
  O  O179  1  0.38102305  0.37952078  0.37845684  1
  O  O180  1  0.38099137  0.36752130  0.88256533  1
  O  O181  1  0.37421330  0.89031388  0.36457686  1
  O  O182  1  0.37695019  0.88095730  0.88320270  1
  O  O183  1  0.88418063  0.38823846  0.36986021  1
  O  O184  1  0.87510973  0.36916516  0.89248772  1
  O  O185  1  0.88043401  0.88173257  0.38443142  1
  O  O186  1  0.87969158  0.88248845  0.88171274  1
  O  O187  1  0.26563209  0.00975405  0.37252675  1
  O  O188  1  0.26514376  0.00983033  0.87887903  1
  O  O189  1  0.25860681  0.50706050  0.37958444  1
  O  O190  1  0.20076765  0.52865993  0.90518869  1
  O  O191  1  0.76469107  -0.00540004  0.37997549  1
  O  O192  1  0.75120590  0.00586073  0.86730366  1
  O  O193  1  0.75658129  0.50487026  0.37999495  1
  O  O194  1  0.75240776  0.51109999  0.87201736  1
  O  O195  1  0.25485455  0.48791071  0.12454461  1
  O  O196  1  0.24045322  0.48721503  0.60947503  1
  O  O197  1  0.25102796  0.98839032  0.12751693  1
  O  O198  1  0.23929923  0.99793754  0.61699663  1
  O  O199  1  0.74611774  0.48521179  0.12703245  1
  O  O200  1  0.74575507  0.49258529  0.63352415  1
  O  O201  1  0.73980182  0.99030507  0.12399664  1
  O  O202  1  0.74727919  1.00383209  0.63802583  1
  O  O203  1  0.01023811  0.37043820  0.25513995  1
  O  O204  1  0.01514236  0.37202280  0.74291994  1
  O  O205  1  0.00479998  0.87263208  0.25658262  1
  O  O206  1  -0.00268841  0.87349652  0.75430288  1
  O  O207  1  0.49264617  0.36380454  0.25680072  1
  O  O208  1  0.50699979  0.37884590  0.75825032  1
  O  O209  1  0.51236198  0.87435872  0.24379156  1
  O  O210  1  0.51949500  0.88278120  0.75403234  1
  O  O211  1  0.49259613  0.13552962  0.24271953  1
  O  O212  1  0.48984248  0.12743062  0.74136157  1
  O  O213  1  0.48321090  0.62368394  0.24170512  1
  O  O214  1  0.50980622  0.60884892  0.74064429  1
  O  O215  1  0.99840533  0.13209640  0.24681082  1
  O  O216  1  0.99136694  0.11905434  0.74218450  1
  O  O217  1  0.99378463  0.62801960  0.24300526  1
  O  O218  1  0.99549816  0.63518000  0.74474837  1
  O  O219  1  0.38105765  0.26267552  0.01014454  1
  O  O220  1  0.38389737  0.25849457  0.50635686  1
  O  O221  1  0.36383520  0.75651780  0.00750127  1
  O  O222  1  0.35859866  0.74499820  0.49921274  1
  O  O223  1  0.87320709  0.25491012  0.01318551  1
  O  O224  1  0.86100810  0.24354889  0.50171913  1
  O  O225  1  0.88480347  0.76336330  -0.00501121  1
  O  O226  1  0.86693233  0.75902878  0.49585826  1
  O  O227  1  0.12390144  0.23708454  0.49978449  1
  O  O228  1  0.12247890  0.23582371  0.99108607  1
  O  O229  1  0.12793069  0.73773187  0.49285958  1
  O  O230  1  0.13401870  0.75781337  0.99123613  1
  O  O231  1  0.63225108  0.24539933  0.49263630  1
  O  O232  1  0.62502161  0.25169657  0.98669560  1
  O  O233  1  0.63238908  0.75032337  0.49125262  1
  O  O234  1  0.62749979  0.75722315  0.99077755  1
  O  O235  1  0.49354316  0.24719810  0.13084692  1
  O  O236  1  0.49146560  0.24603136  0.62536928  1
  O  O237  1  0.48754243  0.74261994  0.11683394  1
  O  O238  1  0.51106505  0.74111109  0.61553737  1
  O  O239  1  0.99570387  0.24357993  0.13250254  1
  O  O240  1  0.99892760  0.23700804  0.61940457  1
  O  O241  1  0.99453940  0.73593638  0.12582075  1
  O  O242  1  1.00509226  0.74492121  0.63392658  1
  O  O243  1  -0.00771321  0.26285862  0.36860693  1
  O  O244  1  0.01230086  0.24936436  0.87560642  1
  O  O245  1  0.00007364  0.76239934  0.37368443  1
  O  O246  1  0.00950303  0.76102833  0.86201690  1
  O  O247  1  0.50854563  0.25697638  0.36641274  1
  O  O248  1  0.50576866  0.26084377  0.87148424  1
  O  O249  1  0.51418102  0.74473900  0.38264794  1
  O  O250  1  0.51770067  0.74624703  0.87739465  1
  O  O251  1  0.24251402  0.12376654  0.48974549  1
  O  O252  1  0.24331047  0.12079359  0.99111446  1
  O  O253  1  0.24151113  0.63044166  0.48585259  1
  O  O254  1  0.23598284  0.63621878  1.01147922  1
  O  O255  1  0.73822731  0.13360680  0.50625796  1
  O  O256  1  0.75386387  0.12366251  0.98664184  1
  O  O257  1  0.75754099  0.63054296  0.48884701  1
  O  O258  1  0.76157664  0.62191979  0.98970067  1
  O  O259  1  0.25502538  0.37354450  0.01393037  1
  O  O260  1  0.26178211  0.37399474  0.50363641  1
  O  O261  1  0.25814958  0.87381688  0.00859403  1
  O  O262  1  0.24427519  0.86315652  0.48832439  1
  O  O263  1  0.76054858  0.37007077  0.01201746  1
  O  O264  1  0.74582646  0.36634088  0.51197188  1
  O  O265  1  0.76159341  0.88001859  0.00957039  1
  O  O266  1  0.75910141  0.86550504  0.50368319  1
  O  O267  1  0.12269569  0.48678280  0.24885066  1
  O  O268  1  0.12826297  0.49231062  0.73410999  1
  O  O269  1  0.12599337  0.98829352  0.24698177  1
  O  O270  1  0.12405457  0.99097041  0.74050953  1
  O  O271  1  0.62578092  0.49954808  0.24759125  1
  O  O272  1  0.63823002  0.48958577  0.74868940  1
  O  O273  1  0.62302365  0.99281597  0.24268488  1
  O  O274  1  0.63415155  0.99642313  0.74853075  1
  O  O275  1  0.37697881  0.01065944  0.25751644  1
  O  O276  1  0.38331110  0.00729394  0.75848863  1
  O  O277  1  0.37592739  0.50512997  0.26054340  1
  O  O278  1  0.35089481  0.50879779  0.75461040  1
  O  O279  1  0.87653962  -0.00298021  0.26801113  1
  O  O280  1  0.86689992  0.00889365  0.75710264  1
  O  O281  1  0.87082706  0.50985554  0.26042816  1
  O  O282  1  0.86537071  0.50662449  0.75453762  1
  O  O283  1  0.11884026  0.37807329  0.36243888  1
  O  O284  1  0.12767529  0.36034794  0.86390098  1
  O  O285  1  0.11574683  0.87706970  0.36659230  1
  O  O286  1  0.12116333  0.88307041  0.85981195  1
  O  O287  1  0.61281220  0.36713570  0.37979255  1
  O  O288  1  0.62057848  0.36953004  0.86984493  1
  O  O289  1  0.62917045  0.86187134  0.36789333  1
  O  O290  1  0.62781175  0.86117110  0.87088467  1
  O  O291  1  0.37788172  0.13166907  0.13214626  1
  O  O292  1  0.37780364  0.13014150  0.62766998  1
  O  O293  1  0.37751008  0.63136788  0.12909859  1
  O  O294  1  0.33398827  0.64115078  0.63789696  1
  O  O295  1  0.88271979  0.13242550  0.12479592  1
  O  O296  1  0.88503934  0.12501291  0.63412724  1
  O  O297  1  0.88035976  0.62531080  0.13340467  1
  O  O298  1  0.88086766  0.62003809  0.64059998  1
  O  O299  1  0.26101215  0.25493776  0.12965304  1
  O  O300  1  0.26445217  0.25747575  0.62356441  1
  O  O301  1  0.25300142  0.76118176  0.11918696  1
  O  O302  1  0.23379061  0.76347674  0.60100887  1
  O  O303  1  0.75828341  0.25616484  0.12493369  1
  O  O304  1  0.75129360  0.25890517  0.61809069  1
  O  O305  1  0.75148754  0.76154880  0.12931723  1
  O  O306  1  0.74566429  0.74767592  0.61151401  1
  O  O307  1  0.25519989  0.23869249  0.37025529  1
  O  O308  1  0.24217451  0.23557804  0.87137735  1
  O  O309  1  0.24645517  0.74170790  0.38111569  1
  O  O310  1  0.23872323  0.77033608  0.88949345  1
  O  O311  1  0.74065833  0.26033693  0.38197954  1
  O  O312  1  0.74061516  0.24137759  0.87723537  1
  O  O313  1  0.74366703  0.74283514  0.38522003  1
  O  O314  1  0.74320593  0.73762098  0.87516811  1
  O  O315  1  0.00696489  0.11776732  0.00527401  1
  O  O316  1  0.00898362  0.11937027  0.50645549  1
  O  O317  1  0.01103415  0.62001819  0.00999403  1
  O  O318  1  0.00739804  0.62027102  0.50498929  1
  O  O319  1  0.49235588  0.11510859  0.00627000  1
  O  O320  1  0.51284064  0.12207822  0.50503054  1
  O  O321  1  0.49153603  0.61339949  0.00987773  1
  O  O322  1  0.49157194  0.60659100  0.49550497  1
  O  O323  1  0.49068024  0.38148586  0.49062858  1
  O  O324  1  0.49082971  0.37986200  0.99381849  1
  O  O325  1  0.51046460  0.89363084  0.49297173  1
  O  O326  1  0.48718499  0.88067875  0.99923911  1
  O  O327  1  1.00745024  0.38400990  0.49064928  1
  O  O328  1  0.98595774  0.36595267  1.00307094  1
  O  O329  1  0.99582037  0.87792940  0.49438464  1
  O  O330  1  0.99685267  0.88273712  0.99449219  1
  O  O331  1  0.49283707  0.49182844  0.37986271  1
  O  O332  1  0.50633635  0.48718741  0.88450023  1
  O  O333  1  0.48717117  1.01036906  0.37942577  1
  O  O334  1  0.49023878  0.99893781  0.88242556  1
  O  O335  1  0.99381965  0.49236843  0.38199156  1
  O  O336  1  0.99851957  0.48748066  0.86673018  1
  O  O337  1  0.99322849  0.98853564  0.38109582  1
  O  O338  1  0.99495623  0.99528034  0.88114191  1
  O  O339  1  0.00039862  0.00573694  0.11890621  1
  O  O340  1  0.01061410  0.01216835  0.61932030  1
  O  O341  1  -0.00615147  0.51549296  0.13234175  1
  O  O342  1  0.00822761  0.50621045  0.61838740  1
  O  O343  1  0.50465202  0.00557475  0.11708220  1
  O  O344  1  0.50788098  0.00808191  0.61522302  1
  O  O345  1  0.49863834  0.50884258  0.11930045  1
  O  O346  1  0.50827460  0.48801740  0.61707105  1
  O  O347  1  0.23855553  0.37317099  0.24128405  1
  O  O348  1  0.24116083  0.36942294  0.73629834  1
  O  O349  1  0.24205949  0.87713821  0.24295851  1
  O  O350  1  0.23811024  0.87174190  0.74582366  1
  O  O351  1  0.75884863  0.37493251  0.23400861  1
  O  O352  1  0.74511037  0.38157155  0.74854095  1
  O  O353  1  0.74228612  0.88088654  0.24249863  1
  O  O354  1  0.74434007  0.88327698  0.75126630  1
  O  O355  1  0.25842227  0.12350350  0.25464669  1
  O  O356  1  0.26389348  0.12413508  0.75534674  1
  O  O357  1  0.25583417  0.62908978  0.25887767  1
  O  O358  1  0.21574121  0.66469845  0.78375269  1
  O  O359  1  0.75789159  0.11675823  0.24874428  1
  O  O360  1  0.75671647  0.11950220  0.75879663  1
  O  O361  1  0.75761627  0.62259299  0.26406911  1
  O  O362  1  0.75917197  0.61849863  0.75990943  1
  O  O363  1  0.37170167  0.12456096  0.36445970  1
  O  O364  1  0.37120224  0.12184514  0.86710320  1
  O  O365  1  0.36715145  0.61726852  0.36497435  1
  O  O366  1  0.36213964  0.64170380  0.86182929  1
  O  O367  1  0.88366734  0.10762400  0.37880764  1
  O  O368  1  0.86906251  0.12120156  0.86999544  1
  O  O369  1  0.87155748  0.61434207  0.37061058  1
  O  O370  1  0.86978467  0.62740893  0.86790787  1
  O  O371  1  0.13876009  0.36896325  0.13417704  1
  O  O372  1  0.13371820  0.37892246  0.62717241  1
  O  O373  1  0.13138063  0.87607137  0.13008589  1
  O  O374  1  0.12314292  0.88681379  0.63519727  1
  O  O375  1  0.63962881  0.36735260  0.12202866  1
  O  O376  1  0.63347237  0.38100599  0.63480616  1
  O  O377  1  0.63033334  0.88179878  0.13196562  1
  O  O378  1  0.63463201  0.88600964  0.63454495  1
  O  O379  1  0.11347644  0.25834113  0.24806739  1
  O  O380  1  0.12907965  0.25439231  0.75559814  1
  O  O381  1  0.12336321  0.76251597  0.25079589  1
  O  O382  1  0.11216714  0.77097034  0.75030155  1
  O  O383  1  0.61710016  0.24603341  0.25753791  1
  O  O384  1  0.62415170  0.26233024  0.75667281  1
  O  O385  1  0.62788070  0.75769911  0.26577278  1
  O  O386  1  0.62783189  0.75758821  0.75807877  1
  O  O387  1  0.38282652  0.24381969  0.24203145  1
  O  O388  1  0.37730253  0.24165504  0.73975346  1
  O  O389  1  0.36801246  0.74205503  0.23582158  1
  O  O390  1  0.40040959  0.74834823  0.73978672  1
  O  O391  1  0.88747314  0.25091294  0.24026475  1
  O  O392  1  0.87008790  0.23832839  0.74876640  1
  O  O393  1  0.87370021  0.73646159  0.25333362  1
  O  O394  1  0.88360644  0.74510924  0.75342566  1
  O  O395  1  0.37946155  0.49164856  0.49080636  1
  O  O396  1  0.38363327  0.48495991  1.00210370  1
  O  O397  1  0.38497815  1.00571268  0.48384205  1
  O  O398  1  0.38276477  0.99154035  0.99477272  1
  O  O399  1  0.88851605  0.50529749  0.49551170  1
  O  O400  1  0.87414983  0.48347896  1.00089184  1
  O  O401  1  0.88125503  0.99442026  0.49275024  1
  O  O402  1  0.88271207  0.99324132  0.99503994  1
  O  O403  1  0.11915300  0.00993474  -0.00026032  1
  O  O404  1  0.11965185  0.00597536  0.50661315  1
  O  O405  1  0.11367550  0.49187445  0.01820730  1
  O  O406  1  0.11572922  0.50840266  0.50393543  1
  O  O407  1  0.61063083  -0.00857533  0.00672144  1
  O  O408  1  0.62360808  0.00935164  0.50205819  1
  O  O409  1  0.61009581  0.49156005  0.00905653  1
  O  O410  1  0.61374965  0.49311813  0.51190497  1
  O  O411  1  0.36329462  0.36934273  0.12187455  1
  O  O412  1  0.37014895  0.37014770  0.61836348  1
  O  O413  1  0.36849155  0.86881584  0.12039762  1
  O  O414  1  0.37747626  0.87081012  0.61684920  1
  O  O415  1  0.87035419  0.36851109  0.11849199  1
  O  O416  1  0.86357222  0.37528853  0.63307724  1
  O  O417  1  0.86738055  0.87260710  0.11766444  1
  O  O418  1  0.87543886  0.88421678  0.61218942  1
  O  O419  1  0.13581454  0.11775315  0.38300503  1
  O  O420  1  0.13338270  0.12655500  0.87840423  1
  O  O421  1  0.12949063  0.62308079  0.37865432  1
  O  O422  1  0.09790838  0.63852721  0.88801274  1
  O  O423  1  0.62132272  0.13732187  0.38289169  1
  O  O424  1  0.63187642  0.13507720  0.86585713  1
  O  O425  1  0.63281415  0.63724021  0.37272589  1
  O  O426  1  0.64106553  0.63510367  0.87909495  1
