# generated using pymatgen
data_V85Zn86O256
_symmetry_space_group_name_H-M   'P 1'
_cell_length_a   16.92603767
_cell_length_b   16.92402774
_cell_length_c   16.92307054
_cell_angle_alpha   90.03102346
_cell_angle_beta   90.01098812
_cell_angle_gamma   90.04595491
_symmetry_Int_Tables_number   1
_chemical_formula_structural   V85Zn86O256
_chemical_formula_sum   'V85 Zn86 O256'
_cell_volume   4847.72510917
_cell_formula_units_Z   1
loop_
 _symmetry_equiv_pos_site_id
 _symmetry_equiv_pos_as_xyz
  1  'x, y, z'
loop_
 _atom_site_type_symbol
 _atom_site_label
 _atom_site_symmetry_multiplicity
 _atom_site_fract_x
 _atom_site_fract_y
 _atom_site_fract_z
 _atom_site_occupancy
  V  V0  1  0.74998381  0.37223944  0.12504731  1
  V  V1  1  -0.00369221  0.50574032  0.00207948  1
  V  V2  1  0.62161203  -0.00745302  0.12826143  1
  V  V3  1  0.62186057  0.12309559  -0.00177104  1
  V  V4  1  0.49871934  0.25320124  0.75740759  1
  V  V5  1  0.37220645  0.62701481  0.75463468  1
  V  V6  1  0.12383679  0.37706381  0.24820050  1
  V  V7  1  0.24635963  -0.00172238  0.74754388  1
  V  V8  1  0.87385495  0.37527726  0.50096628  1
  V  V9  1  0.61237923  0.49713740  0.12119079  1
  V  V10  1  0.75003889  0.50281425  0.24814063  1
  V  V11  1  0.63631328  0.75027103  0.87921154  1
  V  V12  1  0.00473537  0.12557772  0.62365544  1
  V  V13  1  0.24198588  0.24130578  0.50532155  1
  V  V14  1  0.00083230  0.76105196  0.25029244  1
  V  V15  1  0.50167772  -0.00193368  -0.00256633  1
  V  V16  1  0.12766779  0.00147900  0.61064948  1
  V  V17  1  0.75132196  0.25144553  0.50047172  1
  V  V18  1  0.02517767  0.12046665  0.12030712  1
  V  V19  1  0.87364567  0.24440783  0.63518784  1
  V  V20  1  0.37104603  0.12284173  0.75285609  1
  V  V21  1  0.88181876  0.62710844  0.24776828  1
  V  V22  1  0.37107211  0.00692179  0.37027529  1
  V  V23  1  0.12129740  0.51053550  0.12409641  1
  V  V24  1  0.12012725  0.73771540  0.37708335  1
  V  V25  1  0.49854531  0.50242584  0.50599853  1
  V  V26  1  0.86459180  0.61978641  0.74884007  1
  V  V27  1  0.87758887  0.75314598  0.62453458  1
  V  V28  1  0.88060496  0.74562116  0.11772731  1
  V  V29  1  0.24824919  0.37605460  0.12085529  1
  V  V30  1  0.61135806  0.63087432  0.50159168  1
  V  V31  1  0.24702773  0.50464558  0.75856230  1
  V  V32  1  0.24402055  0.73545908  0.49555590  1
  V  V33  1  0.62654693  0.62638612  0.00186599  1
  V  V34  1  0.87637208  0.87597211  -0.00507321  1
  V  V35  1  0.01288345  -0.00290055  -0.00194217  1
  V  V36  1  0.88219074  -0.00424479  0.37147718  1
  V  V37  1  0.62711860  0.38512648  0.75101864  1
  V  V38  1  0.37865514  0.50408009  0.88042778  1
  V  V39  1  0.00429664  0.50426386  0.49893494  1
  V  V40  1  0.24804452  0.50969089  0.25398866  1
  V  V41  1  0.00167600  0.62851740  0.62405516  1
  V  V42  1  0.24827351  0.37635643  0.62759203  1
  V  V43  1  0.62917021  0.00282064  0.63181579  1
  V  V44  1  0.25639804  0.74227681  0.00390715  1
  V  V45  1  0.13351616  0.88668619  0.25509522  1
  V  V46  1  0.62878992  0.87587095  0.74800897  1
  V  V47  1  0.50191027  0.74319581  0.74400454  1
  V  V48  1  0.87590139  0.37437001  0.00027300  1
  V  V49  1  0.37003414  -0.00551431  0.87269115  1
  V  V50  1  0.74640048  -0.00808992  0.24865383  1
  V  V51  1  0.74823463  0.75041907  0.49777697  1
  V  V52  1  0.75295652  0.88279884  0.62552162  1
  V  V53  1  0.74994878  0.38665439  0.62807293  1
  V  V54  1  0.12947680  0.23161407  0.87862294  1
  V  V55  1  -0.00279882  0.37538062  0.37464854  1
  V  V56  1  0.36871046  0.50008065  0.37634614  1
  V  V57  1  0.75094226  0.12409249  0.37314865  1
  V  V58  1  0.74912365  0.86679690  0.12049578  1
  V  V59  1  0.49601177  0.12273431  0.13463981  1
  V  V60  1  0.75055200  0.24538975  -0.00019217  1
  V  V61  1  0.62470799  0.25017867  0.87450994  1
  V  V62  1  0.38418165  0.37934764  0.00198745  1
  V  V63  1  0.49838067  0.37446103  0.37440765  1
  V  V64  1  0.75357674  0.12166458  0.86154132  1
  V  V65  1  0.12558022  0.62460190  -0.01242646  1
  V  V66  1  0.12624057  0.76275733  0.87269519  1
  V  V67  1  0.50052389  0.87071049  0.87142837  1
  V  V68  1  0.37469522  0.24799656  0.12984619  1
  V  V69  1  0.88469748  0.87665361  0.49504063  1
  V  V70  1  0.12305593  0.24386713  0.38296277  1
  V  V71  1  0.12557914  0.50545618  0.62502052  1
  V  V72  1  -0.00106494  0.24877207  0.24779320  1
  V  V73  1  0.50151049  0.87748049  0.35573198  1
  V  V74  1  0.00381027  0.37406920  0.87483962  1
  V  V75  1  0.37611248  0.87502145  0.49995296  1
  V  V76  1  0.49489465  0.63955809  0.13093439  1
  V  V77  1  0.87579625  0.00140988  0.86617185  1
  V  V78  1  0.62407034  0.75707868  0.36154564  1
  V  V79  1  0.37753541  0.86749055  0.01045082  1
  V  V80  1  0.50122594  0.12589594  0.62703697  1
  V  V81  1  0.37749234  0.74252500  0.61900363  1
  V  V82  1  0.87343360  0.12122595  0.23984985  1
  V  V83  1  0.62612309  0.12522483  0.49988384  1
  V  V84  1  0.37301335  0.25162550  0.62875647  1
  Zn  Zn85  1  0.62398086  0.51149643  0.62896545  1
  Zn  Zn86  1  -0.00262780  0.24376115  0.75526306  1
  Zn  Zn87  1  0.75037257  0.62013418  0.87932276  1
  Zn  Zn88  1  0.87322773  0.50367934  0.37471079  1
  Zn  Zn89  1  0.11477230  0.87991718  0.74780219  1
  Zn  Zn90  1  0.00675839  0.00482802  0.49261757  1
  Zn  Zn91  1  -0.00465031  0.75357730  0.75966934  1
  Zn  Zn92  1  0.87797090  0.24531628  0.12145244  1
  Zn  Zn93  1  0.49947224  -0.00173745  0.50216920  1
  Zn  Zn94  1  0.23873697  0.88113257  0.12462810  1
  Zn  Zn95  1  0.24827047  0.87158998  0.62397883  1
  Zn  Zn96  1  0.50291070  0.24590716  0.25412224  1
  Zn  Zn97  1  0.12236245  0.37222273  0.75253685  1
  Zn  Zn98  1  0.86882284  0.49547333  0.86864946  1
  Zn  Zn99  1  0.37301519  0.37298834  0.49904139  1
  Zn  Zn100  1  0.62437388  0.25077531  0.37352391  1
  Zn  Zn101  1  0.50263042  0.38084113  0.87982302  1
  Zn  Zn102  1  0.74754572  0.62577771  0.37356568  1
  Zn  Zn103  1  0.37259064  0.63556256  0.24720339  1
  Zn  Zn104  1  0.24283246  0.23197048  0.00211062  1
  Zn  Zn105  1  0.62594871  0.37289647  0.25270208  1
  Zn  Zn106  1  0.24583897  0.11446998  0.36881017  1
  Zn  Zn107  1  0.19430848  0.19038925  0.19712592  1
  Zn  Zn108  1  0.18294966  0.18440712  0.69452506  1
  Zn  Zn109  1  0.18392014  0.69110639  0.18377230  1
  Zn  Zn110  1  0.18969095  0.68713202  0.68700850  1
  Zn  Zn111  1  0.68281793  0.18464546  0.18740543  1
  Zn  Zn112  1  0.68736451  0.19466456  0.68698112  1
  Zn  Zn113  1  0.68906848  0.68470305  0.18431043  1
  Zn  Zn114  1  0.68798561  0.69133455  0.68291691  1
  Zn  Zn115  1  0.30368363  0.29154736  0.30704216  1
  Zn  Zn116  1  0.30889353  0.31512719  0.81718739  1
  Zn  Zn117  1  0.30923856  0.81212795  0.31455177  1
  Zn  Zn118  1  0.30750202  0.80995558  0.81377189  1
  Zn  Zn119  1  0.81263475  0.31029216  0.31063400  1
  Zn  Zn120  1  0.81041342  0.31535390  0.81402870  1
  Zn  Zn121  1  0.81254654  0.81274793  0.31032700  1
  Zn  Zn122  1  0.81669305  0.81468379  0.80950258  1
  Zn  Zn123  1  0.18524294  0.43313676  0.43926254  1
  Zn  Zn124  1  0.18870808  0.43591526  0.93902648  1
  Zn  Zn125  1  0.19048441  0.92668329  0.43237436  1
  Zn  Zn126  1  0.19395956  0.93535222  0.93878935  1
  Zn  Zn127  1  0.68398717  0.44053890  0.43793266  1
  Zn  Zn128  1  0.68897913  0.44085068  0.93831426  1
  Zn  Zn129  1  0.68731018  0.93799816  0.43785707  1
  Zn  Zn130  1  0.69228800  0.93698972  0.93703534  1
  Zn  Zn131  1  0.30304278  0.05920303  0.06843481  1
  Zn  Zn132  1  0.31258961  0.06316864  0.56008713  1
  Zn  Zn133  1  0.31333156  0.56424380  0.06592096  1
  Zn  Zn134  1  0.31581451  0.56196576  0.56464831  1
  Zn  Zn135  1  0.81056000  0.05679893  0.05647917  1
  Zn  Zn136  1  0.81640831  0.06333410  0.56256693  1
  Zn  Zn137  1  0.80851204  0.56284473  0.06123921  1
  Zn  Zn138  1  0.81377330  0.56589694  0.55874316  1
  Zn  Zn139  1  0.43318159  0.43600708  0.19411073  1
  Zn  Zn140  1  0.43704209  0.43959998  0.68949122  1
  Zn  Zn141  1  0.40944282  0.94644715  0.17802309  1
  Zn  Zn142  1  0.43848315  0.93330986  0.68315378  1
  Zn  Zn143  1  0.93610654  0.43878543  0.18468104  1
  Zn  Zn144  1  0.93836639  0.43640783  0.68788266  1
  Zn  Zn145  1  0.94199003  0.93636733  0.18091001  1
  Zn  Zn146  1  0.94337877  0.93799384  0.68590115  1
  Zn  Zn147  1  0.06194093  0.06440331  0.30940087  1
  Zn  Zn148  1  0.05689884  0.05992969  0.80710542  1
  Zn  Zn149  1  0.05920356  0.56515162  0.31059043  1
  Zn  Zn150  1  0.05623543  0.56357806  0.81132305  1
  Zn  Zn151  1  0.56210186  0.05678741  0.31448839  1
  Zn  Zn152  1  0.56150821  0.06249432  0.81181455  1
  Zn  Zn153  1  0.56182106  0.56290699  0.31473166  1
  Zn  Zn154  1  0.56041324  0.56501897  0.81523313  1
  Zn  Zn155  1  0.43699525  0.19108820  0.44323711  1
  Zn  Zn156  1  0.40024541  0.16545397  0.95896808  1
  Zn  Zn157  1  0.42182290  0.70329416  0.40424813  1
  Zn  Zn158  1  0.44437837  0.68252223  0.93985202  1
  Zn  Zn159  1  0.93592892  0.18505214  0.43933198  1
  Zn  Zn160  1  0.94041019  0.18342105  0.93916153  1
  Zn  Zn161  1  0.93750024  0.68734482  0.43502031  1
  Zn  Zn162  1  0.93941707  0.68707140  0.93589825  1
  Zn  Zn163  1  0.06473156  0.31125889  0.05875179  1
  Zn  Zn164  1  0.06020885  0.31535694  0.56608552  1
  Zn  Zn165  1  0.06319992  0.81349269  0.06599790  1
  Zn  Zn166  1  0.06506426  0.81492593  0.56278935  1
  Zn  Zn167  1  0.56142731  0.31054452  0.06294139  1
  Zn  Zn168  1  0.56228076  0.31493932  0.56384428  1
  Zn  Zn169  1  0.56146259  0.81140478  0.06247221  1
  Zn  Zn170  1  0.56118679  0.81251363  0.55993028  1
  O  O171  1  0.12413758  0.12544186  0.13063196  1
  O  O172  1  0.11435327  0.11944162  0.62448976  1
  O  O173  1  0.12666098  0.61448169  0.11400168  1
  O  O174  1  0.11695132  0.61438626  0.62886677  1
  O  O175  1  0.61935679  0.11208933  0.11692406  1
  O  O176  1  0.62387836  0.11997110  0.62164292  1
  O  O177  1  0.61927406  0.61396606  0.12234390  1
  O  O178  1  0.62828132  0.62755908  0.60963412  1
  O  O179  1  0.38208532  0.38068181  0.37701389  1
  O  O180  1  0.37539949  0.38314445  0.88482690  1
  O  O181  1  0.38533892  0.88503646  0.38224350  1
  O  O182  1  0.38440067  0.87673218  0.87546727  1
  O  O183  1  0.88438244  0.37607937  0.37832082  1
  O  O184  1  0.88533172  0.37315276  0.88243609  1
  O  O185  1  0.86852189  0.88453178  0.38204202  1
  O  O186  1  0.86839446  0.88591886  0.88482445  1
  O  O187  1  0.26446375  -0.00013753  0.38037468  1
  O  O188  1  0.26384156  -0.00625635  0.86676569  1
  O  O189  1  0.25349294  0.48813884  0.36456900  1
  O  O190  1  0.25779741  0.49424581  0.86335805  1
  O  O191  1  0.75645192  0.00405715  0.36574208  1
  O  O192  1  0.76381270  0.00824541  0.87859936  1
  O  O193  1  0.75084268  0.49824692  0.35966304  1
  O  O194  1  0.75650459  0.50545151  0.87939219  1
  O  O195  1  0.24134789  0.49461509  0.13173415  1
  O  O196  1  0.24315483  0.49598667  0.63291401  1
  O  O197  1  0.30270058  0.97384671  0.13353970  1
  O  O198  1  0.24291981  1.00085342  0.62974193  1
  O  O199  1  0.74322912  0.49197705  0.13235772  1
  O  O200  1  0.74849542  0.48930097  0.61906619  1
  O  O201  1  0.74181601  0.99193145  0.12983165  1
  O  O202  1  0.74363651  0.99347964  0.62129286  1
  O  O203  1  0.00126882  0.37042369  0.25595239  1
  O  O204  1  -0.00007652  0.37159081  0.76053365  1
  O  O205  1  0.00455020  0.86555742  0.25007034  1
  O  O206  1  0.00172242  0.86539414  0.74525039  1
  O  O207  1  0.50462169  0.38003857  0.26530926  1
  O  O208  1  0.50631839  0.36816535  0.75143365  1
  O  O209  1  0.49285643  0.88359682  0.25901436  1
  O  O210  1  0.50654508  0.86521185  0.75371440  1
  O  O211  1  0.50707979  0.12359859  0.23794804  1
  O  O212  1  0.49634433  0.13338616  0.74381875  1
  O  O213  1  0.49942424  0.61437763  0.23341529  1
  O  O214  1  0.49352876  0.63732811  0.75159448  1
  O  O215  1  0.99451419  0.12651682  0.23536128  1
  O  O216  1  0.99760166  0.12591530  0.73157376  1
  O  O217  1  0.98705969  0.63384347  0.25062485  1
  O  O218  1  0.99142158  0.62979669  0.73794307  1
  O  O219  1  0.37508733  0.26538313  0.01375355  1
  O  O220  1  0.36393872  0.25336636  0.51187941  1
  O  O221  1  0.36218559  0.75150237  -0.01317418  1
  O  O222  1  0.36588983  0.75116678  0.50210140  1
  O  O223  1  0.86879630  0.25457279  0.00136729  1
  O  O224  1  0.86942661  0.25716414  0.50702144  1
  O  O225  1  0.88533333  0.76109976  0.00580684  1
  O  O226  1  0.86809288  0.75786784  0.50218521  1
  O  O227  1  0.12793688  0.25502908  0.49574514  1
  O  O228  1  0.12639099  0.24830848  0.98578599  1
  O  O229  1  0.13366613  0.75308925  0.49106538  1
  O  O230  1  0.13113998  0.74416588  0.99320183  1
  O  O231  1  0.63181711  0.23875745  0.50301921  1
  O  O232  1  0.62922740  0.24451764  0.99302386  1
  O  O233  1  0.63179747  0.74732654  0.49397930  1
  O  O234  1  0.62079877  0.74307904  0.98915980  1
  O  O235  1  0.49621880  0.23843301  0.12440223  1
  O  O236  1  0.49458721  0.24693407  0.63602317  1
  O  O237  1  0.51085201  0.73711878  0.13345043  1
  O  O238  1  0.49129529  0.75403460  0.63263175  1
  O  O239  1  1.00171029  0.23540450  0.12718302  1
  O  O240  1  0.99226964  0.24251082  0.62641749  1
  O  O241  1  0.99085862  0.75158965  0.13451048  1
  O  O242  1  0.99468687  0.74164267  0.61997757  1
  O  O243  1  0.00334982  0.25597453  0.37130257  1
  O  O244  1  0.00875674  0.25452159  0.87669413  1
  O  O245  1  0.01125731  0.74834856  0.36953556  1
  O  O246  1  0.02170437  0.74236682  0.87685735  1
  O  O247  1  0.50017156  0.25915761  0.37636284  1
  O  O248  1  0.50327016  0.25123180  0.86321777  1
  O  O249  1  0.51332791  0.77098886  0.38195532  1
  O  O250  1  0.50693890  0.75776108  0.86673075  1
  O  O251  1  0.25007352  0.13926864  0.49545071  1
  O  O252  1  0.29080660  0.12968292  0.98773747  1
  O  O253  1  0.25087855  0.63676413  0.50399753  1
  O  O254  1  0.24314431  0.63502216  1.00288118  1
  O  O255  1  0.74539321  0.13027421  0.49493910  1
  O  O256  1  0.74168824  0.12940654  0.99442667  1
  O  O257  1  0.74551965  0.63619457  0.49533344  1
  O  O258  1  0.73313007  0.62644432  1.00305794  1
  O  O259  1  0.25571029  0.37627335  0.01224615  1
  O  O260  1  0.24849759  0.37395278  0.51871203  1
  O  O261  1  0.26054524  0.86460969  0.00304478  1
  O  O262  1  0.26283652  0.86352065  0.50043091  1
  O  O263  1  0.75392101  0.36856092  0.01004158  1
  O  O264  1  0.75360102  0.37131468  0.50602438  1
  O  O265  1  0.76195610  0.87983611  0.00968966  1
  O  O266  1  0.75509470  0.87018552  0.50801469  1
  O  O267  1  0.12674224  0.49708740  0.24243638  1
  O  O268  1  0.13143468  0.50088765  0.74468186  1
  O  O269  1  0.12671996  0.98652037  0.25895170  1
  O  O270  1  0.13280152  1.00100900  0.74164108  1
  O  O271  1  0.63389087  0.49915273  0.23928716  1
  O  O272  1  0.61652483  0.48951610  0.74752258  1
  O  O273  1  0.63468357  1.00294819  0.24012167  1
  O  O274  1  0.62272898  0.99419345  0.73909925  1
  O  O275  1  0.38276991  0.00632700  0.27255971  1
  O  O276  1  0.37078763  0.00367151  0.75131132  1
  O  O277  1  0.36274209  0.50128801  0.25795207  1
  O  O278  1  0.36817729  0.50886544  0.75433151  1
  O  O279  1  0.87058526  0.00346873  0.25239891  1
  O  O280  1  0.88111935  -0.00409080  0.76744416  1
  O  O281  1  0.86910800  0.50947020  0.24710435  1
  O  O282  1  0.87935658  0.51603515  0.74743035  1
  O  O283  1  0.10949243  0.37194224  0.37075525  1
  O  O284  1  0.11203708  0.37515412  0.87630568  1
  O  O285  1  0.12486166  0.86177668  0.36233720  1
  O  O286  1  0.12685293  0.86529144  0.87367676  1
  O  O287  1  0.61503074  0.37311310  0.37588087  1
  O  O288  1  0.62358540  0.36930247  0.86934266  1
  O  O289  1  0.61232181  0.87448888  0.37589721  1
  O  O290  1  0.62177748  0.86937362  0.86922265  1
  O  O291  1  0.38518228  0.13645767  0.12626384  1
  O  O292  1  0.38010100  0.12997322  0.63501810  1
  O  O293  1  0.38949240  0.62612052  0.12630737  1
  O  O294  1  0.37383291  0.63589977  0.63493837  1
  O  O295  1  0.87180267  0.12231444  0.13384355  1
  O  O296  1  0.88220853  0.13514284  0.62244085  1
  O  O297  1  0.86693039  0.63912378  0.12945952  1
  O  O298  1  0.88011884  0.63033516  0.63195909  1
  O  O299  1  0.25630813  0.25855415  0.12117440  1
  O  O300  1  0.24912797  0.25682213  0.62398690  1
  O  O301  1  0.24580840  0.75410493  0.10764950  1
  O  O302  1  0.25499712  0.75015273  0.61322736  1
  O  O303  1  0.74870716  0.25654553  0.11880321  1
  O  O304  1  0.75723164  0.25761348  0.61842784  1
  O  O305  1  0.75679884  0.76231673  0.12949164  1
  O  O306  1  0.75628202  0.75892624  0.61286434  1
  O  O307  1  0.23210954  0.27619773  0.39769585  1
  O  O308  1  0.23289960  0.25433746  0.87736912  1
  O  O309  1  0.23660501  0.74948062  0.38868577  1
  O  O310  1  0.23685128  0.75177513  0.88829353  1
  O  O311  1  0.75008212  0.24308461  0.38231084  1
  O  O312  1  0.74587670  0.24297484  0.88153880  1
  O  O313  1  0.74275987  0.75614564  0.38530660  1
  O  O314  1  0.73862255  0.74691109  0.86816045  1
  O  O315  1  0.00050347  0.11523932  0.01468731  1
  O  O316  1  -0.00616424  0.12229351  0.51503944  1
  O  O317  1  0.00672417  0.61209274  -0.00348637  1
  O  O318  1  -0.00833901  0.61616059  0.51215914  1
  O  O319  1  0.50123342  0.11550475  0.00707862  1
  O  O320  1  0.51053537  0.12586774  0.50950711  1
  O  O321  1  0.51152214  0.62710766  0.01641682  1
  O  O322  1  0.50788182  0.61972603  0.49108967  1
  O  O323  1  0.49934165  0.38217660  0.49251947  1
  O  O324  1  0.48852488  0.37642396  1.00061932  1
  O  O325  1  0.48656555  0.87564332  0.50046711  1
  O  O326  1  0.49977795  0.87670077  0.98661108  1
  O  O327  1  0.99364646  0.38191512  0.49362420  1
  O  O328  1  0.99500169  0.38309054  0.99537299  1
  O  O329  1  0.98733939  0.87995026  0.50272478  1
  O  O330  1  0.99431063  0.89031424  1.00753127  1
  O  O331  1  0.49378789  0.49290193  0.38498758  1
  O  O332  1  0.48393050  0.49833614  0.87047962  1
  O  O333  1  0.49738244  0.98937180  0.38234549  1
  O  O334  1  0.49550278  0.98598492  0.87292123  1
  O  O335  1  0.99825996  0.49414774  0.38194151  1
  O  O336  1  0.99398386  0.49223597  0.88276384  1
  O  O337  1  0.98623980  1.00728433  0.37472898  1
  O  O338  1  0.98926669  1.00923467  0.88932161  1
  O  O339  1  0.00134461  0.01288915  0.11507875  1
  O  O340  1  0.00813532  0.01014478  0.61948094  1
  O  O341  1  0.01018738  0.49395539  0.11534607  1
  O  O342  1  0.00686993  0.50526015  0.61926704  1
  O  O343  1  0.50429354  0.00337689  0.11998080  1
  O  O344  1  0.50980682  0.00695244  0.62488639  1
  O  O345  1  0.51192981  0.49622397  0.12820302  1
  O  O346  1  0.50039284  0.49583108  0.61046741  1
  O  O347  1  0.24134963  0.37979097  0.23791261  1
  O  O348  1  0.24757987  0.38340500  0.74190332  1
  O  O349  1  0.23707796  0.86890517  0.24939241  1
  O  O350  1  0.24963728  0.88738694  0.74653643  1
  O  O351  1  0.75220907  0.38032458  0.23808490  1
  O  O352  1  0.73944672  0.37081138  0.74091260  1
  O  O353  1  0.75639666  0.88646785  0.23969817  1
  O  O354  1  0.74471902  0.86856796  0.73381289  1
  O  O355  1  0.26632920  0.17955943  0.27977645  1
  O  O356  1  0.26037242  0.11263876  0.74704041  1
  O  O357  1  0.24913207  0.61282557  0.24228834  1
  O  O358  1  0.25987964  0.61676316  0.74711923  1
  O  O359  1  0.75658692  0.11449470  0.25135304  1
  O  O360  1  0.74475922  0.13006159  0.76248425  1
  O  O361  1  0.75961366  0.61764846  0.24935921  1
  O  O362  1  0.76228387  0.62756985  0.74545782  1
  O  O363  1  0.37912340  0.10820766  0.39094103  1
  O  O364  1  0.39102670  0.10794160  0.85779841  1
  O  O365  1  0.37424872  0.60133800  0.38050630  1
  O  O366  1  0.37930730  0.62016887  0.86424239  1
  O  O367  1  0.86963215  0.11878991  0.36219245  1
  O  O368  1  0.86721925  0.11222709  0.88070662  1
  O  O369  1  0.86952471  0.62464736  0.36415271  1
  O  O370  1  0.87454204  0.62873708  0.85876844  1
  O  O371  1  0.13032062  0.38305345  0.12655712  1
  O  O372  1  0.12843416  0.38731172  0.63051979  1
  O  O373  1  0.12339613  0.87035206  0.14615281  1
  O  O374  1  0.12910726  0.88625401  0.62608062  1
  O  O375  1  0.63137901  0.38356987  0.12485654  1
  O  O376  1  0.63382685  0.37678315  0.63294841  1
  O  O377  1  0.63239380  0.88519998  0.11746936  1
  O  O378  1  0.63207734  0.88405952  0.62573437  1
  O  O379  1  0.11460439  0.26020806  0.25810614  1
  O  O380  1  0.12066014  0.25209976  0.76397229  1
  O  O381  1  0.11731292  0.74871377  0.25994296  1
  O  O382  1  0.13172568  0.74958465  0.76542750  1
  O  O383  1  0.62206466  0.25347847  0.25358736  1
  O  O384  1  0.61682358  0.26016256  0.75475300  1
  O  O385  1  0.63507920  0.74899287  0.26284672  1
  O  O386  1  0.61793990  0.75458235  0.75359218  1
  O  O387  1  0.38866911  0.27159751  0.23097316  1
  O  O388  1  0.37866171  0.24252206  0.75045934  1
  O  O389  1  0.38477072  0.73525600  0.29715738  1
  O  O390  1  0.37891996  0.74437146  0.74367730  1
  O  O391  1  0.88107690  0.23872579  0.24656264  1
  O  O392  1  0.87444741  0.25434874  0.73817020  1
  O  O393  1  0.88206693  0.74663354  0.24384354  1
  O  O394  1  0.87521504  0.74078344  0.74074922  1
  O  O395  1  0.37996974  0.49405888  0.49724256  1
  O  O396  1  0.36652894  0.49449460  0.99074159  1
  O  O397  1  0.37756120  0.98942206  0.49986706  1
  O  O398  1  0.38562515  0.98463875  0.98587316  1
  O  O399  1  0.88505987  0.49363719  0.49846198  1
  O  O400  1  0.88267839  0.49383378  1.00377951  1
  O  O401  1  0.87249551  0.99254976  0.48811452  1
  O  O402  1  0.88420524  0.99141249  0.99528729  1
  O  O403  1  0.11274827  -0.00488619  -0.00608300  1
  O  O404  1  0.12784671  -0.00483148  0.50661562  1
  O  O405  1  0.12007252  0.50664822  0.00451635  1
  O  O406  1  0.11235110  0.49583308  0.50795142  1
  O  O407  1  0.61969556  0.00284430  0.00434917  1
  O  O408  1  0.62647136  0.01149199  0.51037103  1
  O  O409  1  0.62605286  0.50521534  0.01513093  1
  O  O410  1  0.61667854  0.51198319  0.50038987  1
  O  O411  1  0.36701065  0.37685721  0.11795272  1
  O  O412  1  0.36527737  0.36812513  0.62902403  1
  O  O413  1  0.40183457  0.85346723  0.10627296  1
  O  O414  1  0.37272746  0.86112867  0.61870064  1
  O  O415  1  0.86682822  0.37025652  0.11884030  1
  O  O416  1  0.86811657  0.36932091  0.62088411  1
  O  O417  1  0.86939170  0.86755559  0.11665137  1
  O  O418  1  0.86844671  0.87497226  0.61591233  1
  O  O419  1  0.12401212  0.13998725  0.37173384  1
  O  O420  1  0.12221537  0.13311457  0.87169966  1
  O  O421  1  0.12211426  0.63760979  0.37436810  1
  O  O422  1  0.12588015  0.62417183  0.88495675  1
  O  O423  1  0.63107687  0.12361821  0.38479639  1
  O  O424  1  0.63003535  0.12908179  0.87953459  1
  O  O425  1  0.62629144  0.63692956  0.38151500  1
  O  O426  1  0.62291819  0.63291933  0.88382332  1
