# generated using pymatgen
data_V85Zn86O256
_symmetry_space_group_name_H-M   'P 1'
_cell_length_a   16.95421170
_cell_length_b   16.94980958
_cell_length_c   16.96033146
_cell_angle_alpha   90.12210191
_cell_angle_beta   89.96330371
_cell_angle_gamma   90.04754610
_symmetry_Int_Tables_number   1
_chemical_formula_structural   V85Zn86O256
_chemical_formula_sum   'V85 Zn86 O256'
_cell_volume   4873.88790447
_cell_formula_units_Z   1
loop_
 _symmetry_equiv_pos_site_id
 _symmetry_equiv_pos_as_xyz
  1  'x, y, z'
loop_
 _atom_site_type_symbol
 _atom_site_label
 _atom_site_symmetry_multiplicity
 _atom_site_fract_x
 _atom_site_fract_y
 _atom_site_fract_z
 _atom_site_occupancy
  V  V0  1  0.50309493  0.74649536  0.74283449  1
  V  V1  1  -0.00102624  0.12433303  0.63302180  1
  V  V2  1  0.24951173  0.50123724  0.75058681  1
  V  V3  1  0.88533266  0.62544939  0.74610704  1
  V  V4  1  0.62476115  0.74781092  0.37510915  1
  V  V5  1  0.62473924  0.75298286  0.87493154  1
  V  V6  1  0.62409100  0.25105950  0.37205101  1
  V  V7  1  0.12123262  0.37259496  0.75144065  1
  V  V8  1  0.37217136  0.12080778  0.24882136  1
  V  V9  1  0.87693829  0.37507163  0.50386323  1
  V  V10  1  0.12386166  0.63119729  0.50670116  1
  V  V11  1  0.37452192  0.25005726  0.12439776  1
  V  V12  1  0.00171832  0.50586904  0.51002731  1
  V  V13  1  -0.00317907  0.37764091  0.89329453  1
  V  V14  1  0.49613852  0.87595920  0.38011303  1
  V  V15  1  0.24667559  0.37474358  0.12334027  1
  V  V16  1  0.10514540  0.62132563  0.00361937  1
  V  V17  1  0.37703731  0.61689631  0.24903690  1
  V  V18  1  0.26104928  0.25192130  0.50052769  1
  V  V19  1  0.37155127  -0.00299739  0.38087613  1
  V  V20  1  0.75039218  0.24867756  0.49877395  1
  V  V21  1  0.75527210  0.63245369  0.87723557  1
  V  V22  1  0.35499172  0.77884134  0.14542073  1
  V  V23  1  0.12756130  0.74846009  0.87391949  1
  V  V24  1  0.25300037  0.62852743  0.88432506  1
  V  V25  1  0.74844203  0.76304177  0.00385207  1
  V  V26  1  0.75084090  0.37621823  0.62827376  1
  V  V27  1  0.50417619  0.74662494  0.24885712  1
  V  V28  1  0.87386675  0.49740304  0.37954499  1
  V  V29  1  0.61593980  0.50379802  0.62783992  1
  V  V30  1  0.49433249  0.00000312  -0.01063365  1
  V  V31  1  0.62043279  0.87893957  0.24683190  1
  V  V32  1  0.50181483  0.62274743  0.12530004  1
  V  V33  1  0.75932469  0.37053136  0.12899566  1
  V  V34  1  0.87928307  0.23241935  0.12490111  1
  V  V35  1  0.87992019  0.00192345  0.86782212  1
  V  V36  1  0.24810767  0.10411712  0.86939511  1
  V  V37  1  0.37185895  0.86798384  -0.01004498  1
  V  V38  1  0.24631119  0.49843634  0.24864534  1
  V  V39  1  0.86737952  0.74134016  0.12977787  1
  V  V40  1  0.62610264  0.25197569  0.87215545  1
  V  V41  1  0.37176260  0.49210040  0.38311033  1
  V  V42  1  -0.00185019  0.87452654  0.86667619  1
  V  V43  1  0.62497694  0.12448738  -0.00413831  1
  V  V44  1  0.74386185  0.48483440  0.25610653  1
  V  V45  1  0.25720987  0.75734207  0.49929020  1
  V  V46  1  -0.00018255  0.37554926  0.37889312  1
  V  V47  1  0.88094187  0.62078622  0.25017047  1
  V  V48  1  0.61549946  0.62310034  0.50458506  1
  V  V49  1  0.11321193  0.11598348  0.00865262  1
  V  V50  1  0.62702987  0.48900271  0.12885907  1
  V  V51  1  0.49510909  0.37165905  0.38626003  1
  V  V52  1  0.75681876  0.00257400  0.73733513  1
  V  V53  1  0.38083792  0.62553219  0.74136805  1
  V  V54  1  0.62671789  -0.00264069  0.62185275  1
  V  V55  1  0.63152811  0.87613638  0.74506199  1
  V  V56  1  0.00452810  0.86755474  0.37363946  1
  V  V57  1  0.62207232  0.36967553  0.75115058  1
  V  V58  1  0.37815932  0.50179152  0.87561589  1
  V  V59  1  0.50036243  0.36758442  0.87175934  1
  V  V60  1  0.50010965  0.13320414  0.62876926  1
  V  V61  1  0.74782534  0.62180721  0.37862871  1
  V  V62  1  0.87524888  0.23935888  0.63081317  1
  V  V63  1  0.74950215  0.50378652  0.75506763  1
  V  V64  1  0.12917932  -0.00381234  0.63276416  1
  V  V65  1  0.24871313  0.12014729  0.37232181  1
  V  V66  1  0.88603802  0.89071461  0.01533677  1
  V  V67  1  0.86583666  0.87989419  0.50229128  1
  V  V68  1  0.38062807  0.11991971  0.75822700  1
  V  V69  1  0.00008237  0.23818618  0.24651608  1
  V  V70  1  0.75725209  0.12701709  0.86570019  1
  V  V71  1  0.62565436  0.12267612  0.49561405  1
  V  V72  1  0.87608706  0.74886456  0.62285665  1
  V  V73  1  0.61751358  -0.00226667  0.12423465  1
  V  V74  1  0.26361252  0.87933397  0.63096879  1
  V  V75  1  0.12708121  0.12635561  0.50403031  1
  V  V76  1  0.50132577  0.25634282  0.24944011  1
  V  V77  1  0.75648285  0.25704407  -0.00230940  1
  V  V78  1  0.37518608  0.37538505  -0.00180411  1
  V  V79  1  -0.00070112  -0.00095404  0.49501456  1
  V  V80  1  0.12124355  0.37642803  0.24872213  1
  V  V81  1  0.25368014  0.37446597  0.62229033  1
  V  V82  1  0.50750654  0.49915681  0.00003070  1
  V  V83  1  0.24829276  0.24840027  -0.00935172  1
  V  V84  1  0.79292947  0.93364897  0.18637357  1
  Zn  Zn85  1  0.12182751  0.24620665  0.87445064  1
  Zn  Zn86  1  0.24908401  0.62463246  0.37705280  1
  Zn  Zn87  1  0.13104121  0.87437159  0.75089000  1
  Zn  Zn88  1  0.12816172  0.75001931  0.36965638  1
  Zn  Zn89  1  0.49916239  0.87983645  0.86846450  1
  Zn  Zn90  1  0.74554048  0.75316177  0.50677794  1
  Zn  Zn91  1  0.88628248  0.50358839  0.88133611  1
  Zn  Zn92  1  -0.00370734  0.24967496  0.75360080  1
  Zn  Zn93  1  0.49675747  -0.00435047  0.50361531  1
  Zn  Zn94  1  0.37965254  0.25283747  0.63137729  1
  Zn  Zn95  1  0.00793324  0.74484277  0.73993165  1
  Zn  Zn96  1  0.49003733  0.49829910  0.50821962  1
  Zn  Zn97  1  0.12657882  0.24960163  0.37511615  1
  Zn  Zn98  1  0.20196803  0.79672684  0.05208124  1
  Zn  Zn99  1  0.12133926  0.50535910  0.62924053  1
  Zn  Zn100  1  0.01036946  0.74941248  0.23954663  1
  Zn  Zn101  1  0.10075111  0.50051689  0.11835183  1
  Zn  Zn102  1  0.50048748  0.12700416  0.12306991  1
  Zn  Zn103  1  0.62669851  0.62914027  0.00474657  1
  Zn  Zn104  1  0.38471145  0.75133972  0.61794869  1
  Zn  Zn105  1  0.81164206  0.08020491  0.30617822  1
  Zn  Zn106  1  0.15093695  -0.01988483  0.13471312  1
  Zn  Zn107  1  0.18799798  0.18406472  0.18533400  1
  Zn  Zn108  1  0.19081792  0.18799095  0.69068126  1
  Zn  Zn109  1  0.18635961  0.68349788  0.18839296  1
  Zn  Zn110  1  0.19364637  0.68923165  0.68639763  1
  Zn  Zn111  1  0.68375059  0.18309519  0.18484923  1
  Zn  Zn112  1  0.68915716  0.18517947  0.68383417  1
  Zn  Zn113  1  0.69077244  0.67859574  0.18981582  1
  Zn  Zn114  1  0.69292182  0.68821464  0.68535415  1
  Zn  Zn115  1  0.31073501  0.31015417  0.31381393  1
  Zn  Zn116  1  0.31476665  0.30981949  0.80682119  1
  Zn  Zn117  1  0.31459290  0.80923935  0.31836472  1
  Zn  Zn118  1  0.31440829  0.81053615  0.81151014  1
  Zn  Zn119  1  0.79634391  0.27187155  0.29476660  1
  Zn  Zn120  1  0.81636915  0.31714807  0.81369015  1
  Zn  Zn121  1  0.81713618  0.80790610  0.32339472  1
  Zn  Zn122  1  0.81394760  0.81615600  0.80679556  1
  Zn  Zn123  1  0.18491305  0.43818865  0.44004474  1
  Zn  Zn124  1  0.18333241  0.43972535  0.93526915  1
  Zn  Zn125  1  0.18624177  0.93756589  0.44043856  1
  Zn  Zn126  1  0.18153949  0.93618413  0.94251394  1
  Zn  Zn127  1  0.68204196  0.43235133  0.44127754  1
  Zn  Zn128  1  0.73893812  0.47332751  0.97629024  1
  Zn  Zn129  1  0.68780935  0.93984295  0.42701454  1
  Zn  Zn130  1  0.69154494  0.94033389  0.93242169  1
  Zn  Zn131  1  0.31338095  0.06332749  0.05278398  1
  Zn  Zn132  1  0.31538764  0.06340749  0.56485102  1
  Zn  Zn133  1  0.31316976  0.56098428  0.06533584  1
  Zn  Zn134  1  0.30698822  0.56601665  0.56389160  1
  Zn  Zn135  1  0.81113025  0.06754117  0.05338978  1
  Zn  Zn136  1  0.81158922  0.06093870  0.46543307  1
  Zn  Zn137  1  0.91682675  0.55067978  0.06060768  1
  Zn  Zn138  1  0.80881206  0.56434912  0.56600592  1
  Zn  Zn139  1  0.43849265  0.43404751  0.19028353  1
  Zn  Zn140  1  0.43635425  0.43512912  0.69038872  1
  Zn  Zn141  1  0.32753875  0.94618536  0.18253444  1
  Zn  Zn142  1  0.44125527  0.94295882  0.69097403  1
  Zn  Zn143  1  0.93189437  0.43004757  0.19255185  1
  Zn  Zn144  1  0.93514747  0.43706986  0.69145774  1
  Zn  Zn145  1  0.97484181  0.96500667  0.19965576  1
  Zn  Zn146  1  0.93878482  0.93523814  0.68254315  1
  Zn  Zn147  1  0.06756513  0.05706666  0.31402166  1
  Zn  Zn148  1  0.06386585  0.06172306  0.81414056  1
  Zn  Zn149  1  0.06468686  0.56497041  0.31921218  1
  Zn  Zn150  1  0.06448123  0.55952817  0.81637658  1
  Zn  Zn151  1  0.55949128  0.06409387  0.31114191  1
  Zn  Zn152  1  0.56570549  0.06504058  0.80859572  1
  Zn  Zn153  1  0.56226763  0.55529670  0.31602943  1
  Zn  Zn154  1  0.56463516  0.56370946  0.81500174  1
  Zn  Zn155  1  0.43901200  0.18253539  0.43917785  1
  Zn  Zn156  1  0.43550469  0.18552482  0.93462599  1
  Zn  Zn157  1  0.43573291  0.68315594  0.43450115  1
  Zn  Zn158  1  0.43979851  0.69086978  0.93674592  1
  Zn  Zn159  1  0.94290794  0.19113646  0.43816178  1
  Zn  Zn160  1  0.93727264  0.19058550  0.93576739  1
  Zn  Zn161  1  0.93668811  0.68688245  0.44176750  1
  Zn  Zn162  1  0.93597601  0.70194209  0.93549974  1
  Zn  Zn163  1  0.06535814  0.30504689  0.06506037  1
  Zn  Zn164  1  0.06724560  0.31181860  0.56648331  1
  Zn  Zn165  1  0.03298943  0.84704733  0.07964770  1
  Zn  Zn166  1  0.06305597  0.81298485  0.56307000  1
  Zn  Zn167  1  0.56591855  0.31292384  0.05983135  1
  Zn  Zn168  1  0.56330228  0.31338859  0.56297847  1
  Zn  Zn169  1  0.55472766  0.81645345  0.06400040  1
  Zn  Zn170  1  0.56532941  0.81323190  0.56216052  1
  O  O171  1  0.12589826  0.13063549  0.10836862  1
  O  O172  1  0.12390373  0.11853674  0.61990421  1
  O  O173  1  0.12598312  0.62353066  0.10509782  1
  O  O174  1  0.13196689  0.62354353  0.61344360  1
  O  O175  1  0.62283361  0.11720352  0.11565381  1
  O  O176  1  0.61812382  0.11722334  0.62081683  1
  O  O177  1  0.61787600  0.61165912  0.12816807  1
  O  O178  1  0.63071377  0.61593231  0.61725198  1
  O  O179  1  0.38048349  0.38075000  0.37292859  1
  O  O180  1  0.38238702  0.38074533  0.87630746  1
  O  O181  1  0.38326639  0.88539756  0.36937496  1
  O  O182  1  0.38147978  0.86917550  0.88448179  1
  O  O183  1  0.88870036  0.37937737  0.38423048  1
  O  O184  1  0.89273898  0.37846073  0.87229310  1
  O  O185  1  0.88485695  0.86824127  0.39587788  1
  O  O186  1  0.88061092  0.88412533  0.87455574  1
  O  O187  1  0.25582011  0.00749087  0.37737808  1
  O  O188  1  0.24745377  0.00638723  0.87438366  1
  O  O189  1  0.25517453  0.49599852  0.36466617  1
  O  O190  1  0.25611361  0.50386033  0.86456688  1
  O  O191  1  0.75030594  0.01539765  0.37903476  1
  O  O192  1  0.75551275  0.01007748  0.86123758  1
  O  O193  1  0.75103368  0.49909206  0.37316762  1
  O  O194  1  0.74265276  0.51457640  0.86271567  1
  O  O195  1  0.25250411  0.49163518  0.13821079  1
  O  O196  1  0.25074901  0.49405619  0.63696194  1
  O  O197  1  0.25683218  1.01885529  0.13731677  1
  O  O198  1  0.24515966  0.98529551  0.61428641  1
  O  O199  1  0.74284894  0.48546079  0.13910880  1
  O  O200  1  0.74138821  0.49762954  0.63848042  1
  O  O201  1  0.74011287  0.99925336  0.12453167  1
  O  O202  1  0.74085622  1.00904414  0.63636314  1
  O  O203  1  0.01021100  0.37330929  0.25975411  1
  O  O204  1  0.01391433  0.37497923  0.74756943  1
  O  O205  1  -0.01797459  0.86735293  0.27322643  1
  O  O206  1  0.00422581  0.87144306  0.75608438  1
  O  O207  1  0.49367213  0.36148492  0.26160447  1
  O  O208  1  0.50953892  0.37873083  0.75949661  1
  O  O209  1  0.50954580  0.86092002  0.26153965  1
  O  O210  1  0.51331460  0.87085580  0.75007412  1
  O  O211  1  0.48932425  0.13758397  0.24798760  1
  O  O212  1  0.49022824  0.12497411  0.74582224  1
  O  O213  1  0.49675653  0.62655191  0.24805035  1
  O  O214  1  0.49287953  0.63307704  0.75574746  1
  O  O215  1  1.00092733  0.14143852  0.26042113  1
  O  O216  1  1.00638846  0.12747863  0.73679403  1
  O  O217  1  0.98291974  0.62639304  0.26413746  1
  O  O218  1  0.98826083  0.62074138  0.75237961  1
  O  O219  1  0.36989924  0.25476581  0.00619738  1
  O  O220  1  0.36345484  0.24381525  0.50444528  1
  O  O221  1  0.38507890  0.76550846  0.00864226  1
  O  O222  1  0.36279685  0.74310921  0.50106824  1
  O  O223  1  0.86689528  0.24590157  0.00922199  1
  O  O224  1  0.86753247  0.25754295  0.50752437  1
  O  O225  1  0.86582893  0.76164061  0.00969653  1
  O  O226  1  0.87063149  0.75519831  0.50903246  1
  O  O227  1  0.13135339  0.23692396  0.50078758  1
  O  O228  1  0.13490162  0.24074357  0.99636003  1
  O  O229  1  0.13662529  0.74557775  0.50030275  1
  O  O230  1  0.12856553  0.73239728  0.98495396  1
  O  O231  1  0.63080356  0.24411099  0.49650821  1
  O  O232  1  0.63215244  0.24376840  0.99215542  1
  O  O233  1  0.62686786  0.74061097  0.49546111  1
  O  O234  1  0.62865967  0.75465847  0.99219752  1
  O  O235  1  0.49299613  0.25277696  0.13131550  1
  O  O236  1  0.50134084  0.23786799  0.62309733  1
  O  O237  1  0.49268307  0.74563252  0.13832103  1
  O  O238  1  0.50225917  0.75331094  0.63729786  1
  O  O239  1  0.99466688  0.25059348  0.13698757  1
  O  O240  1  0.99361387  0.24220806  0.62469546  1
  O  O241  1  0.97214333  0.76028334  0.12929499  1
  O  O242  1  0.98490369  0.75095999  0.62413759  1
  O  O243  1  0.00515866  0.26024824  0.36785407  1
  O  O244  1  0.00141778  0.26269950  0.87166129  1
  O  O245  1  0.00275408  0.76098015  0.38285449  1
  O  O246  1  0.00970164  0.75366118  0.86288805  1
  O  O247  1  0.50176403  0.25469164  0.37063547  1
  O  O248  1  0.50415419  0.26186465  0.88026262  1
  O  O249  1  0.50407716  0.75185616  0.36658263  1
  O  O250  1  0.51035696  0.75207182  0.86314050  1
  O  O251  1  0.24517871  0.13059446  0.49333517  1
  O  O252  1  0.24908865  0.13157524  0.98368791  1
  O  O253  1  0.24407067  0.63805993  0.50010345  1
  O  O254  1  0.25401900  0.61645630  0.98529619  1
  O  O255  1  0.73358926  0.13650324  0.50918077  1
  O  O256  1  0.74339731  0.13539224  0.98628980  1
  O  O257  1  0.73904703  0.61963263  0.48968036  1
  O  O258  1  0.74469152  0.64355101  0.98173960  1
  O  O259  1  0.25441979  0.36979340  0.00267764  1
  O  O260  1  0.24272521  0.36535870  0.50996986  1
  O  O261  1  0.26713793  0.87467739  -0.00739696  1
  O  O262  1  0.24816223  0.86242489  0.50776659  1
  O  O263  1  0.74434748  0.36168501  0.00982775  1
  O  O264  1  0.75371041  0.36954451  0.51054684  1
  O  O265  1  0.75919004  0.86716494  -0.00807914  1
  O  O266  1  0.76282455  0.87475181  0.49517734  1
  O  O267  1  0.13100695  0.49521975  0.24825243  1
  O  O268  1  0.13463404  0.49478051  0.74913958  1
  O  O269  1  0.07794824  1.00125149  0.21930831  1
  O  O270  1  0.12397546  0.99866177  0.73575889  1
  O  O271  1  0.63596360  0.49844817  0.24676501  1
  O  O272  1  0.62987896  0.49374583  0.74544465  1
  O  O273  1  0.61603664  0.99185203  0.23914079  1
  O  O274  1  0.63098616  0.99403166  0.74193319  1
  O  O275  1  0.37993138  0.01652720  0.26079387  1
  O  O276  1  0.37413664  0.01909351  0.74499664  1
  O  O277  1  0.36818360  0.49929274  0.25896672  1
  O  O278  1  0.37105152  0.50678067  0.75723565  1
  O  O279  1  0.86358596  -0.00889703  0.23316142  1
  O  O280  1  0.86716116  -0.00552964  0.75348298  1
  O  O281  1  0.86273359  0.50184650  0.26143390  1
  O  O282  1  0.86605105  0.50828032  0.75379338  1
  O  O283  1  0.11580638  0.37509558  0.36863392  1
  O  O284  1  0.11545368  0.37304345  0.86849141  1
  O  O285  1  0.10950377  0.87376575  0.38116645  1
  O  O286  1  0.11916277  0.86650059  0.87370228  1
  O  O287  1  0.61260542  0.36055634  0.38077000  1
  O  O288  1  0.61668660  0.36830390  0.86626497  1
  O  O289  1  0.61911543  0.86801741  0.36579509  1
  O  O290  1  0.62668894  0.86617685  0.86502824  1
  O  O291  1  0.37738075  0.13787688  0.12970891  1
  O  O292  1  0.38427151  0.12660907  0.63263209  1
  O  O293  1  0.38621499  0.61175631  0.13962790  1
  O  O294  1  0.37288233  0.62622614  0.63843239  1
  O  O295  1  0.87496963  0.13248743  0.12150824  1
  O  O296  1  0.88672244  0.13673444  0.61691806  1
  O  O297  1  0.86911239  0.62946320  0.13898753  1
  O  O298  1  0.87168411  0.63442478  0.63270085  1
  O  O299  1  0.25689131  0.25451966  0.11424639  1
  O  O300  1  0.24963080  0.25703928  0.61724158  1
  O  O301  1  0.26930909  0.72520486  0.11442110  1
  O  O302  1  0.25682172  0.76233249  0.61664900  1
  O  O303  1  0.75545957  0.25339256  0.11512940  1
  O  O304  1  0.75682135  0.25401105  0.61727057  1
  O  O305  1  0.75147797  0.73723457  0.11157373  1
  O  O306  1  0.76634879  0.74892048  0.62269558  1
  O  O307  1  0.24671909  0.24351567  0.38458046  1
  O  O308  1  0.25003582  0.25203327  0.88542688  1
  O  O309  1  0.24992213  0.74925173  0.38782378  1
  O  O310  1  0.24339377  0.73919061  0.86918324  1
  O  O311  1  0.73855541  0.26134310  0.39272070  1
  O  O312  1  0.75013862  0.24620657  0.87885902  1
  O  O313  1  0.74203864  0.73746722  0.37968192  1
  O  O314  1  0.74449265  0.74999332  0.87664032  1
  O  O315  1  0.01555786  0.12708827  -0.00830759  1
  O  O316  1  0.01109596  0.11919442  0.51014400  1
  O  O317  1  0.00276043  0.62592222  -0.00387859  1
  O  O318  1  0.00863093  0.61645911  0.49754037  1
  O  O319  1  0.50557306  0.11876949  -0.00135636  1
  O  O320  1  0.51068867  0.12327568  0.50890965  1
  O  O321  1  0.50356061  0.61833388  0.00609657  1
  O  O322  1  0.51169318  0.61972507  0.49482093  1
  O  O323  1  0.49787180  0.37572201  0.49102042  1
  O  O324  1  0.49522833  0.38036451  0.99294135  1
  O  O325  1  0.50557006  0.87377274  0.48468453  1
  O  O326  1  0.49528793  0.88421724  0.99207670  1
  O  O327  1  0.99985044  0.37932170  0.49530478  1
  O  O328  1  1.00580449  0.37204601  0.99155347  1
  O  O329  1  0.99325538  0.88182276  0.49705105  1
  O  O330  1  0.98579006  0.85575840  0.97358308  1
  O  O331  1  0.49047158  0.48755965  0.37636167  1
  O  O332  1  0.49955575  0.49166858  0.88239578  1
  O  O333  1  0.49291174  0.99128264  0.37553987  1
  O  O334  1  0.51059885  1.00013137  0.88550335  1
  O  O335  1  0.99577032  0.49301987  0.38663645  1
  O  O336  1  1.00193223  0.48340952  0.87423189  1
  O  O337  1  1.00473231  0.98968344  0.39054981  1
  O  O338  1  0.98900353  0.99238385  0.86788932  1
  O  O339  1  -0.04631846  -0.06410247  0.08978736  1
  O  O340  1  0.00878986  0.00565311  0.61725037  1
  O  O341  1  -0.01117167  0.50053766  0.12889159  1
  O  O342  1  -0.00044094  0.49422943  0.61314152  1
  O  O343  1  0.51388146  0.00435236  0.10816621  1
  O  O344  1  0.50930496  0.01031774  0.62311427  1
  O  O345  1  0.50873891  0.49833638  0.12058580  1
  O  O346  1  0.51127774  0.49482748  0.62615092  1
  O  O347  1  0.23735833  0.37673000  0.24715254  1
  O  O348  1  0.24088367  0.38220948  0.74813168  1
  O  O349  1  0.29214525  0.84293232  0.21421491  1
  O  O350  1  0.25141514  0.87142405  0.73409710  1
  O  O351  1  0.75298837  0.37539114  0.24574806  1
  O  O352  1  0.74364051  0.38559403  0.74878704  1
  O  O353  1  0.74198580  0.87817500  0.25828147  1
  O  O354  1  0.73865672  0.88551078  0.75093004  1
  O  O355  1  0.25677418  0.13704032  0.26510730  1
  O  O356  1  0.25445657  0.12463708  0.76525744  1
  O  O357  1  0.25968169  0.61301242  0.25205622  1
  O  O358  1  0.25847751  0.61708455  0.75711447  1
  O  O359  1  0.76695242  0.16691731  0.25370148  1
  O  O360  1  0.74753161  0.11973564  0.75860945  1
  O  O361  1  0.75303622  0.61051897  0.26507549  1
  O  O362  1  0.75768049  0.62150800  0.75734921  1
  O  O363  1  0.36805840  0.12109782  0.36822518  1
  O  O364  1  0.36402566  0.12480320  0.86698494  1
  O  O365  1  0.37396387  0.61331674  0.36324486  1
  O  O366  1  0.37082892  0.62103428  0.86888959  1
  O  O367  1  0.87948204  0.11545682  0.39182020  1
  O  O368  1  0.86776907  0.11695597  0.87651890  1
  O  O369  1  0.86460526  0.61711814  0.37582589  1
  O  O370  1  0.86871457  0.63222505  0.86437082  1
  O  O371  1  0.12893758  0.37968551  0.13196776  1
  O  O372  1  0.13623392  0.37832565  0.63423590  1
  O  O373  1  0.13604295  0.86937733  0.10534305  1
  O  O374  1  0.13581873  0.88129347  0.62586338  1
  O  O375  1  0.63256927  0.38308647  0.12344113  1
  O  O376  1  0.63070849  0.38165237  0.63236699  1
  O  O377  1  0.62143320  0.88038640  0.13729920  1
  O  O378  1  0.62367726  0.88843134  0.62878333  1
  O  O379  1  0.11560986  0.25819859  0.24906970  1
  O  O380  1  0.12436851  0.25898069  0.75394166  1
  O  O381  1  0.12081967  0.73877828  0.25621781  1
  O  O382  1  0.12654863  0.74825173  0.75929359  1
  O  O383  1  0.61282708  0.24520541  0.25977622  1
  O  O384  1  0.63363531  0.26340012  0.75235868  1
  O  O385  1  0.62080747  0.75273489  0.25345378  1
  O  O386  1  0.62357565  0.75730483  0.75252813  1
  O  O387  1  0.37805480  0.24387778  0.24218068  1
  O  O388  1  0.36811560  0.23053972  0.74602792  1
  O  O389  1  0.38650483  0.73361140  0.24901392  1
  O  O390  1  0.38646934  0.74244015  0.74796158  1
  O  O391  1  0.89576945  0.26137587  0.23962568  1
  O  O392  1  0.87592614  0.25643459  0.73550382  1
  O  O393  1  0.86320435  0.73541542  0.24528224  1
  O  O394  1  0.87677550  0.74387035  0.73885739  1
  O  O395  1  0.37168325  0.50710483  0.48735828  1
  O  O396  1  0.38275018  0.49269334  0.99468622  1
  O  O397  1  0.37934842  1.00834827  0.48509590  1
  O  O398  1  0.38654358  0.98914798  0.99983975  1
  O  O399  1  0.88027385  0.49562548  0.49867549  1
  O  O400  1  0.84588327  0.51006830  0.98702210  1
  O  O401  1  0.88426646  0.98503803  0.51433857  1
  O  O402  1  0.85918863  0.99185011  0.98141998  1
  O  O403  1  0.12831104  0.01262079  0.00752449  1
  O  O404  1  0.11978281  0.00896721  0.50894949  1
  O  O405  1  0.12635743  0.51721093  -0.00117378  1
  O  O406  1  0.11764911  0.50769169  0.50470280  1
  O  O407  1  0.62422741  0.00545854  0.00315605  1
  O  O408  1  0.62328223  0.00691874  0.50617101  1
  O  O409  1  0.63005685  0.50538520  0.01289134  1
  O  O410  1  0.62208165  0.50458774  0.51145726  1
  O  O411  1  0.36929558  0.36560454  0.12106895  1
  O  O412  1  0.35968208  0.37186302  0.63404741  1
  O  O413  1  0.38825448  0.87474955  0.10745724  1
  O  O414  1  0.36688869  0.87671403  0.62602014  1
  O  O415  1  0.86195477  0.36367142  0.12610689  1
  O  O416  1  0.86852741  0.37026246  0.62089516  1
  O  O417  1  0.83620384  0.86202146  0.12794630  1
  O  O418  1  0.87749650  0.86350347  0.61282167  1
  O  O419  1  0.13294311  0.12321599  0.38347619  1
  O  O420  1  0.13715194  0.12387174  0.88063690  1
  O  O421  1  0.13070441  0.62474702  0.39142471  1
  O  O422  1  0.13240455  0.62796389  0.88175798  1
  O  O423  1  0.61432967  0.13845742  0.38459561  1
  O  O424  1  0.63376766  0.13374408  0.87538878  1
  O  O425  1  0.62957071  0.62665933  0.38141109  1
  O  O426  1  0.63256138  0.64062174  0.87237829  1
