# generated using pymatgen
data_V85Zn86O256
_symmetry_space_group_name_H-M   'P 1'
_cell_length_a   16.95855723
_cell_length_b   16.95984708
_cell_length_c   16.94419518
_cell_angle_alpha   89.93237328
_cell_angle_beta   90.06714684
_cell_angle_gamma   89.93133047
_symmetry_Int_Tables_number   1
_chemical_formula_structural   V85Zn86O256
_chemical_formula_sum   'V85 Zn86 O256'
_cell_volume   4873.38660757
_cell_formula_units_Z   1
loop_
 _symmetry_equiv_pos_site_id
 _symmetry_equiv_pos_as_xyz
  1  'x, y, z'
loop_
 _atom_site_type_symbol
 _atom_site_label
 _atom_site_symmetry_multiplicity
 _atom_site_fract_x
 _atom_site_fract_y
 _atom_site_fract_z
 _atom_site_occupancy
  V  V0  1  0.25308378  0.87921074  0.62721072  1
  V  V1  1  0.75483724  0.12116857  0.87601064  1
  V  V2  1  0.24186170  0.25306862  0.49383369  1
  V  V3  1  0.50405602  0.62467505  0.62677619  1
  V  V4  1  -0.00325616  0.00603839  -0.00523828  1
  V  V5  1  0.87732365  0.12887811  0.74520890  1
  V  V6  1  0.24205075  0.13422266  0.87576622  1
  V  V7  1  0.50254805  0.50001722  0.49384551  1
  V  V8  1  0.24565505  0.00297209  0.75026007  1
  V  V9  1  0.49808935  0.75299242  0.24318065  1
  V  V10  1  0.37325550  0.00384232  0.37235498  1
  V  V11  1  0.26172953  0.36998242  0.12783093  1
  V  V12  1  0.01264103  0.24725938  0.74821252  1
  V  V13  1  0.24093949  0.12812982  0.37368986  1
  V  V14  1  0.75263221  0.62434830  0.87504384  1
  V  V15  1  0.25269209  0.74979436  0.50079925  1
  V  V16  1  0.37557358  0.37217214  0.49983089  1
  V  V17  1  -0.01586335  0.00885524  0.50155448  1
  V  V18  1  0.37623876  0.12970866  0.75139043  1
  V  V19  1  -0.01800281  0.87883669  0.37330253  1
  V  V20  1  0.63035661  0.50120954  0.61942415  1
  V  V21  1  0.23904043  0.74121767  -0.01144441  1
  V  V22  1  0.01571857  0.36653454  0.87579839  1
  V  V23  1  0.37896146  0.74919652  0.63133707  1
  V  V24  1  0.37432371  0.62994754  0.24844742  1
  V  V25  1  0.12338223  0.37114034  0.25849209  1
  V  V26  1  0.91821876  0.81933401  0.55106587  1
  V  V27  1  0.75633194  -0.00191828  0.75242330  1
  V  V28  1  0.74712626  0.86505857  0.62236363  1
  V  V29  1  0.62517388  0.87327854  0.25216539  1
  V  V30  1  0.62629728  0.62474446  0.47208896  1
  V  V31  1  0.26745273  0.25410932  0.00380074  1
  V  V32  1  0.12148243  0.75335214  0.37857893  1
  V  V33  1  0.00797871  0.86958984  0.87587996  1
  V  V34  1  0.12528454  0.49794422  0.12063192  1
  V  V35  1  0.00517852  0.62318876  0.12102745  1
  V  V36  1  0.24688609  0.00166939  0.24854932  1
  V  V37  1  0.12249094  0.87718052  0.25208283  1
  V  V38  1  0.50289577  0.87240338  0.37506303  1
  V  V39  1  0.48763993  0.38539149  0.88607987  1
  V  V40  1  0.24582993  0.62669000  0.37950589  1
  V  V41  1  0.88119052  0.63208450  0.73582361  1
  V  V42  1  0.88177794  0.24420203  0.12554068  1
  V  V43  1  0.62376963  0.12415038  0.00106585  1
  V  V44  1  -0.00026219  0.74821809  0.24980779  1
  V  V45  1  0.62190329  0.61598861  0.00874165  1
  V  V46  1  0.62667636  0.00021838  0.62625020  1
  V  V47  1  0.49090254  0.12742562  0.12274920  1
  V  V48  1  0.50193537  0.12861844  0.62526177  1
  V  V49  1  0.37573630  0.87789104  0.49987862  1
  V  V50  1  0.62658940  0.24575027  0.37459260  1
  V  V51  1  0.11868740  0.62322349  0.50930046  1
  V  V52  1  0.11905711  0.13844280  0.00112220  1
  V  V53  1  0.76048608  0.25219254  0.49845741  1
  V  V54  1  0.87585654  0.37574579  0.00052366  1
  V  V55  1  0.76644608  0.37622019  0.62047462  1
  V  V56  1  0.87652315  0.74959514  0.12303908  1
  V  V57  1  0.24863239  0.87286072  0.12042649  1
  V  V58  1  0.74879256  0.38632804  0.12718141  1
  V  V59  1  0.23947261  0.37421185  0.63562081  1
  V  V60  1  0.73974927  0.75003839  0.48340770  1
  V  V61  1  0.49986731  0.87552825  0.87489558  1
  V  V62  1  0.74974139  0.75132142  -0.00046460  1
  V  V63  1  0.37329537  0.50249517  0.37843275  1
  V  V64  1  0.62834437  0.38176080  0.24559683  1
  V  V65  1  0.49773155  0.25083501  0.24522384  1
  V  V66  1  0.75006887  0.25011459  0.00151294  1
  V  V67  1  0.24573204  0.50074298  0.25259623  1
  V  V68  1  0.86165533  0.61965631  0.25093524  1
  V  V69  1  0.87931408  0.49924206  0.87554194  1
  V  V70  1  0.75343150  0.00024279  0.25730886  1
  V  V71  1  0.86399747  0.49481638  0.37206278  1
  V  V72  1  0.00393359  0.24471444  0.25486031  1
  V  V73  1  0.37575102  0.00226886  0.87757594  1
  V  V74  1  0.62667571  0.37419497  0.75015683  1
  V  V75  1  0.50079676  0.00210610  0.49985067  1
  V  V76  1  -0.00477313  0.49366948  0.50028847  1
  V  V77  1  0.87414903  0.88026971  -0.00834230  1
  V  V78  1  0.62321405  0.74766498  0.87485087  1
  V  V79  1  0.75600151  0.49957334  0.74662673  1
  V  V80  1  0.11860215  0.00733632  0.12284046  1
  V  V81  1  0.74912159  0.87814421  0.12326350  1
  V  V82  1  0.24347980  0.60655967  0.87058192  1
  V  V83  1  0.12186217  0.12404128  0.50687944  1
  V  V84  1  0.87970977  0.11919696  0.25195537  1
  Zn  Zn85  1  0.37283787  0.75132460  0.12120624  1
  Zn  Zn86  1  0.75432169  0.11981214  0.37912257  1
  Zn  Zn87  1  0.12638431  0.50269858  0.63515047  1
  Zn  Zn88  1  0.13065050  0.86913595  0.75762212  1
  Zn  Zn89  1  0.50035402  0.37286240  0.37207115  1
  Zn  Zn90  1  0.37084721  0.13138208  0.24466533  1
  Zn  Zn91  1  -0.00312385  0.37290218  0.37585682  1
  Zn  Zn92  1  0.62559988  0.87287516  0.75075431  1
  Zn  Zn93  1  0.37436656  0.24934945  0.62202990  1
  Zn  Zn94  1  0.38431688  0.58782812  0.77819014  1
  Zn  Zn95  1  0.50288169  0.25207318  0.75175884  1
  Zn  Zn96  1  0.49948167  0.74614251  0.75304284  1
  Zn  Zn97  1  0.37207389  0.87247052  -0.00173616  1
  Zn  Zn98  1  0.00482277  0.50298101  -0.00217639  1
  Zn  Zn99  1  0.88395668  0.25193553  0.62212632  1
  Zn  Zn100  1  0.47762356  0.57152384  0.08865992  1
  Zn  Zn101  1  0.62432007  0.25308375  0.87371932  1
  Zn  Zn102  1  0.62258607  0.00136789  0.12600470  1
  Zn  Zn103  1  0.11317819  0.00256992  0.62817642  1
  Zn  Zn104  1  0.62756606  0.12745740  0.49974439  1
  Zn  Zn105  1  0.49933504  -0.00020004  0.00124722  1
  Zn  Zn106  1  -0.00063922  0.74742962  0.75292020  1
  Zn  Zn107  1  0.18515577  0.18892849  0.18482487  1
  Zn  Zn108  1  0.18840225  0.19148378  0.68311835  1
  Zn  Zn109  1  0.18591903  0.68899857  0.18654206  1
  Zn  Zn110  1  0.19104362  0.68421707  0.69850824  1
  Zn  Zn111  1  0.68740773  0.18782760  0.18600780  1
  Zn  Zn112  1  0.69192690  0.19018006  0.68542261  1
  Zn  Zn113  1  0.68434831  0.69330329  0.18854828  1
  Zn  Zn114  1  0.68869103  0.68504630  0.68753064  1
  Zn  Zn115  1  0.31357570  0.31309789  0.31251400  1
  Zn  Zn116  1  0.31344816  0.31441440  0.81571300  1
  Zn  Zn117  1  0.31080211  0.81604916  0.31241632  1
  Zn  Zn118  1  0.31306810  0.81043243  0.81490853  1
  Zn  Zn119  1  0.81278688  0.30943732  0.31080154  1
  Zn  Zn120  1  0.81526331  0.31242923  0.81190002  1
  Zn  Zn121  1  0.81045398  0.80751019  0.30712836  1
  Zn  Zn122  1  0.81376565  0.81257361  0.81238265  1
  Zn  Zn123  1  0.18379184  0.43927636  0.44222125  1
  Zn  Zn124  1  0.19186327  0.43373316  0.94130496  1
  Zn  Zn125  1  0.18176074  0.93999228  0.44075280  1
  Zn  Zn126  1  0.18616115  0.94147113  0.93968524  1
  Zn  Zn127  1  0.68794292  0.43242238  0.43326751  1
  Zn  Zn128  1  0.68756919  0.43847205  0.93666718  1
  Zn  Zn129  1  0.68774084  0.93554635  0.43859626  1
  Zn  Zn130  1  0.68570527  0.93937626  0.93570542  1
  Zn  Zn131  1  0.30838795  0.06396347  0.06092383  1
  Zn  Zn132  1  0.31259422  0.06622897  0.56197216  1
  Zn  Zn133  1  0.30821540  0.55893928  0.05662149  1
  Zn  Zn134  1  0.33207605  0.54150444  0.59930057  1
  Zn  Zn135  1  0.81331063  0.06220395  0.06739547  1
  Zn  Zn136  1  0.80918279  0.06583000  0.56658385  1
  Zn  Zn137  1  0.81375469  0.56436489  0.06094641  1
  Zn  Zn138  1  0.81312584  0.56629835  0.55396680  1
  Zn  Zn139  1  0.43293769  0.44554770  0.16738658  1
  Zn  Zn140  1  0.44400726  0.43156645  0.68537661  1
  Zn  Zn141  1  0.43562162  0.94229601  0.18576813  1
  Zn  Zn142  1  0.43837312  0.94019337  0.69261487  1
  Zn  Zn143  1  0.93665795  0.43602722  0.18922538  1
  Zn  Zn144  1  0.96881812  0.45282525  0.70487599  1
  Zn  Zn145  1  0.93710107  0.93839873  0.18265244  1
  Zn  Zn146  1  0.93735768  0.94197430  0.69190366  1
  Zn  Zn147  1  0.05850437  0.06151092  0.31749358  1
  Zn  Zn148  1  0.06086253  0.06179132  0.81593043  1
  Zn  Zn149  1  0.05749399  0.56090053  0.31251616  1
  Zn  Zn150  1  0.06803815  0.56238604  0.81283117  1
  Zn  Zn151  1  0.56392345  0.06285376  0.30909662  1
  Zn  Zn152  1  0.56662809  0.06362212  0.81284143  1
  Zn  Zn153  1  0.55122789  0.55159953  0.28572263  1
  Zn  Zn154  1  0.56725405  0.55969718  0.81196244  1
  Zn  Zn155  1  0.43688479  0.18833818  0.43481336  1
  Zn  Zn156  1  0.44231639  0.19415219  0.93298080  1
  Zn  Zn157  1  0.43859443  0.68834610  0.43762623  1
  Zn  Zn158  1  0.43142993  0.68837619  0.93987832  1
  Zn  Zn159  1  0.93614681  0.18605966  0.43257024  1
  Zn  Zn160  1  0.93517939  0.18782968  0.93373060  1
  Zn  Zn161  1  0.93740642  0.67925066  0.43114265  1
  Zn  Zn162  1  0.93948819  0.68761793  0.93724854  1
  Zn  Zn163  1  0.06205464  0.31660702  0.06844635  1
  Zn  Zn164  1  0.06047170  0.31075193  0.56005838  1
  Zn  Zn165  1  0.06385174  0.81419790  0.06197233  1
  Zn  Zn166  1  0.09166334  0.78645187  0.60019578  1
  Zn  Zn167  1  0.56232212  0.31307595  0.06304047  1
  Zn  Zn168  1  0.56843060  0.31341991  0.56155962  1
  Zn  Zn169  1  0.56202326  0.81237330  0.06038744  1
  Zn  Zn170  1  0.56572561  0.81047983  0.55985837  1
  O  O171  1  0.12738047  0.11528213  0.11595923  1
  O  O172  1  0.13112448  0.12096431  0.61122656  1
  O  O173  1  0.11647373  0.61271359  0.13492991  1
  O  O174  1  0.13539363  0.62281802  0.61241522  1
  O  O175  1  0.61730312  0.12361113  0.11609759  1
  O  O176  1  0.61886641  0.11770056  0.62547856  1
  O  O177  1  0.63298854  0.63237027  0.10748949  1
  O  O178  1  0.61613937  0.62139475  0.61970986  1
  O  O179  1  0.37488448  0.38197002  0.38552726  1
  O  O180  1  0.38798153  0.37393704  0.87598316  1
  O  O181  1  0.37799492  0.88877003  0.37855086  1
  O  O182  1  0.38209660  0.88506413  0.87350247  1
  O  O183  1  0.87576365  0.39099284  0.36265530  1
  O  O184  1  0.87444334  0.38571825  0.88184218  1
  O  O185  1  0.88315113  0.87473528  0.36444880  1
  O  O186  1  0.88137395  0.87366837  0.88738121  1
  O  O187  1  0.25495811  0.00506093  0.37020623  1
  O  O188  1  0.25563051  0.00749451  0.86629043  1
  O  O189  1  0.25113489  0.50996003  0.37336986  1
  O  O190  1  0.25237511  0.50645873  0.88049293  1
  O  O191  1  0.74618371  -0.00155201  0.36170086  1
  O  O192  1  0.74435406  0.00783362  0.86395242  1
  O  O193  1  0.76531525  0.49990294  0.38160649  1
  O  O194  1  0.75925051  0.50482394  0.86819128  1
  O  O195  1  0.24102948  0.49125002  0.13441758  1
  O  O196  1  0.23870584  0.47798716  0.61094350  1
  O  O197  1  0.23919679  0.99552618  0.12783808  1
  O  O198  1  0.25798272  0.99677591  0.63901299  1
  O  O199  1  0.75728644  0.48532055  0.12187861  1
  O  O200  1  0.74841320  0.49519335  0.62387964  1
  O  O201  1  0.74781255  0.99146604  0.13440506  1
  O  O202  1  0.74255563  0.99082078  0.62891621  1
  O  O203  1  0.00756767  0.36577555  0.24963612  1
  O  O204  1  -0.00843670  0.35669500  0.76853489  1
  O  O205  1  0.00396742  0.87183275  0.25544894  1
  O  O206  1  -0.00402573  0.87684805  0.76707016  1
  O  O207  1  0.51469456  0.36541286  0.24945495  1
  O  O208  1  0.51216688  0.37122862  0.75028863  1
  O  O209  1  0.50495428  0.87430855  0.25569774  1
  O  O210  1  0.50313289  0.87404859  0.76255105  1
  O  O211  1  0.49924202  0.13090559  0.23960856  1
  O  O212  1  0.49332458  0.12598427  0.74408371  1
  O  O213  1  0.48521207  0.64698338  0.26965100  1
  O  O214  1  0.49847036  0.62544172  0.74062955  1
  O  O215  1  0.99388790  0.13001982  0.25181475  1
  O  O216  1  0.99074426  0.13715108  0.76317967  1
  O  O217  1  0.99247976  0.63120042  0.24052691  1
  O  O218  1  0.98423206  0.63020719  0.75513752  1
  O  O219  1  0.36521642  0.24484383  0.00326129  1
  O  O220  1  0.36651937  0.25635661  0.49795243  1
  O  O221  1  0.36007227  0.75485014  0.00414566  1
  O  O222  1  0.37123645  0.75991968  0.50658767  1
  O  O223  1  0.86986700  0.25372890  0.00701179  1
  O  O224  1  0.86577481  0.24631814  0.50168602  1
  O  O225  1  0.86923319  0.75751270  0.00453749  1
  O  O226  1  0.86445000  0.74978060  0.49519763  1
  O  O227  1  0.13233689  0.24102841  0.49879500  1
  O  O228  1  0.12517715  0.23973995  1.00738437  1
  O  O229  1  0.13247970  0.74297208  0.49990179  1
  O  O230  1  0.14111468  0.75123558  1.00677499  1
  O  O231  1  0.63408803  0.24901135  0.49086181  1
  O  O232  1  0.63445882  0.23968602  1.00001938  1
  O  O233  1  0.63169651  0.74165946  0.49391581  1
  O  O234  1  0.63116281  0.74711443  0.98952097  1
  O  O235  1  0.50507310  0.24119127  0.13358273  1
  O  O236  1  0.50076115  0.23769544  0.62472338  1
  O  O237  1  0.49377345  0.75957336  0.13796597  1
  O  O238  1  0.49714752  0.74474979  0.62685457  1
  O  O239  1  0.98770333  0.25463685  0.13418001  1
  O  O240  1  1.00039150  0.25552141  0.64291120  1
  O  O241  1  0.99668638  0.74492933  0.12973130  1
  O  O242  1  0.97883528  0.76436621  0.60882578  1
  O  O243  1  -0.00602921  0.25415941  0.35983341  1
  O  O244  1  -0.00144837  0.26076039  0.87162740  1
  O  O245  1  0.00282624  0.75840764  0.37052625  1
  O  O246  1  -0.00066419  0.76548398  0.87704559  1
  O  O247  1  0.51035524  0.24981246  0.36965890  1
  O  O248  1  0.50610071  0.26364968  0.87023824  1
  O  O249  1  0.48959071  0.76948598  0.36960767  1
  O  O250  1  0.50609559  0.75736113  0.87479335  1
  O  O251  1  0.24334689  0.13110173  0.49362480  1
  O  O252  1  0.24339364  0.13668532  0.99493206  1
  O  O253  1  0.24214139  0.62988411  0.48764476  1
  O  O254  1  0.25044219  0.63389444  0.99241041  1
  O  O255  1  0.74683174  0.13453431  0.49896876  1
  O  O256  1  0.74612679  0.12895303  0.99504046  1
  O  O257  1  0.73942354  0.64093926  0.50153684  1
  O  O258  1  0.74527133  0.63237505  0.99301745  1
  O  O259  1  0.24930144  0.36085596  0.01025647  1
  O  O260  1  0.25503421  0.36512560  0.49782995  1
  O  O261  1  0.24854179  0.87003406  0.00615428  1
  O  O262  1  0.25797859  0.87394625  0.50663413  1
  O  O263  1  0.75354037  0.36673912  0.00594970  1
  O  O264  1  0.74682286  0.36557478  0.50890396  1
  O  O265  1  0.75689412  0.87413359  0.00299682  1
  O  O266  1  0.74480931  0.86110556  0.50573262  1
  O  O267  1  0.12861773  0.49274002  0.24543108  1
  O  O268  1  0.07635873  0.48830019  0.73268428  1
  O  O269  1  0.12624790  0.99749303  0.24228699  1
  O  O270  1  0.13256091  0.99852375  0.74734122  1
  O  O271  1  0.64023679  0.47706814  0.26673930  1
  O  O272  1  0.63716035  0.49628442  0.73992186  1
  O  O273  1  0.63164067  0.98942061  0.24710089  1
  O  O274  1  0.63467148  0.99958401  0.73980170  1
  O  O275  1  0.36597711  0.00421420  0.25773900  1
  O  O276  1  0.36957383  0.01136586  0.75990876  1
  O  O277  1  0.36317685  0.51199808  0.26152373  1
  O  O278  1  0.37037618  0.50973604  0.70429170  1
  O  O279  1  0.86728600  0.00724892  0.24155611  1
  O  O280  1  0.86265646  0.00828317  0.74763589  1
  O  O281  1  0.87674921  0.51161245  0.25648765  1
  O  O282  1  0.87468908  0.50966290  0.75777487  1
  O  O283  1  0.12405972  0.37938738  0.36170286  1
  O  O284  1  0.11352489  0.37439376  0.87985447  1
  O  O285  1  0.11733573  0.86976241  0.37126879  1
  O  O286  1  0.11200374  0.87810194  0.87546788  1
  O  O287  1  0.62578778  0.36022560  0.36570091  1
  O  O288  1  0.62957542  0.37636061  0.85902207  1
  O  O289  1  0.61355805  0.88225777  0.36594920  1
  O  O290  1  0.61777125  0.86743408  0.87450598  1
  O  O291  1  0.38629513  0.12037785  0.12457114  1
  O  O292  1  0.38377044  0.12549057  0.63311796  1
  O  O293  1  0.36946027  0.63264656  0.14364524  1
  O  O294  1  0.39367998  0.63971689  0.60790846  1
  O  O295  1  0.87147246  0.13508667  0.13497352  1
  O  O296  1  0.87070340  0.12873923  0.64128883  1
  O  O297  1  0.88083633  0.62899109  0.13350135  1
  O  O298  1  0.86968713  0.62365713  0.63793539  1
  O  O299  1  0.24676035  0.25477356  0.11258701  1
  O  O300  1  0.25290301  0.25722765  0.61258384  1
  O  O301  1  0.24897640  0.75953195  0.12006878  1
  O  O302  1  0.26033646  0.75798146  0.62048125  1
  O  O303  1  0.75828048  0.25225493  0.11375851  1
  O  O304  1  0.75394963  0.25934974  0.61602168  1
  O  O305  1  0.75533937  0.75997486  0.11896366  1
  O  O306  1  0.74256172  0.76164616  0.61898196  1
  O  O307  1  0.25377912  0.23921090  0.38164437  1
  O  O308  1  0.25319546  0.24482829  0.88933308  1
  O  O309  1  0.24356181  0.74747536  0.38177917  1
  O  O310  1  0.24564014  0.75204617  0.88602845  1
  O  O311  1  0.74531315  0.24773682  0.38219585  1
  O  O312  1  0.75052062  0.24500006  0.88814666  1
  O  O313  1  0.74654818  0.75442752  0.38480055  1
  O  O314  1  0.74338973  0.74618549  0.88030611  1
  O  O315  1  0.00614057  0.11793363  -0.00798302  1
  O  O316  1  0.00606775  0.11587686  0.49325227  1
  O  O317  1  -0.00540218  0.62401323  0.01627400  1
  O  O318  1  0.01123906  0.61734434  0.49249072  1
  O  O319  1  0.50769358  0.12670427  0.00416215  1
  O  O320  1  0.50133400  0.11913952  0.50799965  1
  O  O321  1  0.51531652  0.63322644  0.00120170  1
  O  O322  1  0.51103539  0.62113177  0.50089829  1
  O  O323  1  0.49325942  0.37980743  0.49866988  1
  O  O324  1  0.51129307  0.37553453  0.98412964  1
  O  O325  1  0.49661543  0.88206097  0.49328794  1
  O  O326  1  0.49658675  0.87827326  0.98814683  1
  O  O327  1  1.00423585  0.38782751  0.49365086  1
  O  O328  1  0.99364171  0.37326056  0.99052789  1
  O  O329  1  0.98252107  0.87882013  0.49350730  1
  O  O330  1  0.99455162  0.88002060  0.99176314  1
  O  O331  1  0.49098920  0.49631234  0.37864875  1
  O  O332  1  0.50162834  0.48481689  0.86512415  1
  O  O333  1  0.49146580  0.99599698  0.37765752  1
  O  O334  1  0.49302119  0.99572736  0.87542342  1
  O  O335  1  0.99019633  0.49765872  0.38074799  1
  O  O336  1  0.99313651  0.48682098  0.87894980  1
  O  O337  1  1.00410702  0.98883234  0.39089610  1
  O  O338  1  1.00148500  0.98911394  0.88801298  1
  O  O339  1  0.01108763  -0.00807541  0.11091085  1
  O  O340  1  -0.00225280  -0.00818409  0.60705681  1
  O  O341  1  0.00684032  0.50611345  0.12592027  1
  O  O342  1  -0.01519350  0.50035230  0.59998298  1
  O  O343  1  0.50230705  0.00950200  0.12079871  1
  O  O344  1  0.50657658  0.00912342  0.62376876  1
  O  O345  1  0.51658269  0.51876635  0.17954175  1
  O  O346  1  0.51164618  0.50753376  0.61233257  1
  O  O347  1  0.24134892  0.37780828  0.24799589  1
  O  O348  1  0.25306643  0.36660987  0.73405341  1
  O  O349  1  0.24131977  0.88238060  0.24384433  1
  O  O350  1  0.25121072  0.88431843  0.74527062  1
  O  O351  1  0.73793923  0.35949713  0.23795356  1
  O  O352  1  0.74713995  0.38127940  0.74189207  1
  O  O353  1  0.74264389  0.87833359  0.24394361  1
  O  O354  1  0.75006026  0.88170574  0.74231922  1
  O  O355  1  0.24959893  0.12122780  0.25670392  1
  O  O356  1  0.25505833  0.12279086  0.75642465  1
  O  O357  1  0.25289487  0.62527755  0.26249295  1
  O  O358  1  0.25619033  0.62478946  0.76653710  1
  O  O359  1  0.75590895  0.11458402  0.24869638  1
  O  O360  1  0.75449895  0.11923370  0.75687069  1
  O  O361  1  0.76342749  0.63118907  0.24373027  1
  O  O362  1  0.75943491  0.61949455  0.75601876  1
  O  O363  1  0.36520700  0.11416910  0.37617933  1
  O  O364  1  0.36761150  0.12147350  0.86937982  1
  O  O365  1  0.36385240  0.62461155  0.37235869  1
  O  O366  1  0.35910155  0.62749678  0.87857753  1
  O  O367  1  0.87088714  0.12709330  0.35728736  1
  O  O368  1  0.86031433  0.12782815  0.86769284  1
  O  O369  1  0.87621102  0.61720918  0.35694939  1
  O  O370  1  0.87088107  0.61417155  0.87557150  1
  O  O371  1  0.13149752  0.38130280  0.13726408  1
  O  O372  1  0.13785588  0.36872536  0.62198302  1
  O  O373  1  0.13301408  0.88377186  0.13001661  1
  O  O374  1  0.14649884  0.88615945  0.62016874  1
  O  O375  1  0.63308311  0.37099099  0.13654493  1
  O  O376  1  0.63288615  0.38261683  0.63295141  1
  O  O377  1  0.63195330  0.87700193  0.13017599  1
  O  O378  1  0.62984016  0.88232355  0.62778911  1
  O  O379  1  0.11462472  0.25658442  0.24414708  1
  O  O380  1  0.11160711  0.23997952  0.75319001  1
  O  O381  1  0.11767086  0.75735611  0.25620193  1
  O  O382  1  0.10965743  0.76145275  0.71706312  1
  O  O383  1  0.61799927  0.25134266  0.25669618  1
  O  O384  1  0.62767324  0.26046237  0.74971887  1
  O  O385  1  0.61546853  0.76420281  0.24843132  1
  O  O386  1  0.62541930  0.74934944  0.76375781  1
  O  O387  1  0.39348131  0.24697771  0.26180101  1
  O  O388  1  0.37577538  0.23798815  0.74775578  1
  O  O389  1  0.37899218  0.74860424  0.24961945  1
  O  O390  1  0.37736103  0.75390240  0.73579589  1
  O  O391  1  0.88095473  0.24208076  0.24189733  1
  O  O392  1  0.88122868  0.24187531  0.74970606  1
  O  O393  1  0.88037925  0.74036678  0.24306533  1
  O  O394  1  0.87519265  0.73640776  0.75298532  1
  O  O395  1  0.38215221  0.49286381  0.49753196  1
  O  O396  1  0.39739332  0.49515904  1.06179461  1
  O  O397  1  0.38058561  0.99703691  0.49374816  1
  O  O398  1  0.37233692  1.00047484  0.98600747  1
  O  O399  1  0.88404945  0.51194195  0.48100638  1
  O  O400  1  0.87812026  0.49416649  0.99255930  1
  O  O401  1  0.88493250  1.01213035  0.49774047  1
  O  O402  1  0.88413718  0.99205125  1.00789275  1
  O  O403  1  0.11857512  0.01063813  0.00589766  1
  O  O404  1  0.11518252  0.00892661  0.50339121  1
  O  O405  1  0.12367039  0.49206929  0.01664326  1
  O  O406  1  0.11092036  0.50750626  0.50059135  1
  O  O407  1  0.62456947  0.01365028  0.00034867  1
  O  O408  1  0.62012102  0.00143428  0.51139427  1
  O  O409  1  0.63055902  0.51698327  -0.00265645  1
  O  O410  1  0.62256193  0.50686827  0.49921671  1
  O  O411  1  0.35897790  0.36248912  0.14746061  1
  O  O412  1  0.36721020  0.36988341  0.61010604  1
  O  O413  1  0.35846837  0.88019470  0.12429640  1
  O  O414  1  0.37076343  0.87236488  0.62176340  1
  O  O415  1  0.86872865  0.36677351  0.12017137  1
  O  O416  1  0.86624921  0.37614130  0.63142879  1
  O  O417  1  0.86979450  0.86832435  0.11552467  1
  O  O418  1  0.86508877  0.87767017  0.61930736  1
  O  O419  1  0.13688328  0.11774891  0.38398886  1
  O  O420  1  0.13769778  0.11939485  0.88421270  1
  O  O421  1  0.12927537  0.63353137  0.37911230  1
  O  O422  1  0.14089470  0.62104385  0.87465670  1
  O  O423  1  0.62847345  0.13430393  0.37496584  1
  O  O424  1  0.63564620  0.12909812  0.88113963  1
  O  O425  1  0.61728622  0.61582692  0.37463144  1
  O  O426  1  0.63177981  0.63179120  0.88111126  1
