# generated using pymatgen
data_V85Zn86O256
_symmetry_space_group_name_H-M   'P 1'
_cell_length_a   16.95037879
_cell_length_b   16.94516684
_cell_length_c   16.93312629
_cell_angle_alpha   90.00827834
_cell_angle_beta   90.00500552
_cell_angle_gamma   89.96438425
_symmetry_Int_Tables_number   1
_chemical_formula_structural   V85Zn86O256
_chemical_formula_sum   'V85 Zn86 O256'
_cell_volume   4863.64999717
_cell_formula_units_Z   1
loop_
 _symmetry_equiv_pos_site_id
 _symmetry_equiv_pos_as_xyz
  1  'x, y, z'
loop_
 _atom_site_type_symbol
 _atom_site_label
 _atom_site_symmetry_multiplicity
 _atom_site_fract_x
 _atom_site_fract_y
 _atom_site_fract_z
 _atom_site_occupancy
  V  V0  1  0.24809269  0.12436623  0.87229429  1
  V  V1  1  0.24734139  0.75090896  0.00596500  1
  V  V2  1  0.25664276  0.49569520  0.75430602  1
  V  V3  1  -0.00048391  0.87181296  0.37363773  1
  V  V4  1  0.12506537  0.12565368  0.49647291  1
  V  V5  1  0.12564210  0.12639348  0.00140782  1
  V  V6  1  0.62543464  0.37116519  0.24452668  1
  V  V7  1  0.24791415  0.12948166  0.37294800  1
  V  V8  1  0.24645621  0.74666155  0.50081728  1
  V  V9  1  0.24993934  0.61655034  0.37202707  1
  V  V10  1  0.37688157  0.49760085  0.38076438  1
  V  V11  1  0.75144409  0.75123388  -0.00012641  1
  V  V12  1  0.50001076  0.87303556  0.37599074  1
  V  V13  1  0.62919118  0.74831216  0.38852482  1
  V  V14  1  0.74874891  0.38753560  0.62111402  1
  V  V15  1  0.37173431  -0.00106482  0.37383436  1
  V  V16  1  0.37242293  0.61884563  0.24403173  1
  V  V17  1  0.49437676  0.00582596  0.50991876  1
  V  V18  1  0.12271557  0.24820471  0.87664382  1
  V  V19  1  0.49901205  0.87648479  0.87730386  1
  V  V20  1  0.24914820  0.25076195  0.50206070  1
  V  V21  1  0.50823170  0.37114177  0.37675842  1
  V  V22  1  0.74767729  0.24453967  0.48379382  1
  V  V23  1  0.37909275  0.12707316  0.23773807  1
  V  V24  1  -0.00012646  0.25003490  0.74767589  1
  V  V25  1  0.87645648  0.50034408  0.38148075  1
  V  V26  1  0.13229954  0.39337159  0.24650631  1
  V  V27  1  0.86278808  0.37081139  0.00504327  1
  V  V28  1  0.12442051  0.49842857  0.62599734  1
  V  V29  1  0.00346817  0.62085628  0.12647109  1
  V  V30  1  0.74797534  0.00287950  0.25353643  1
  V  V31  1  0.49996927  0.38884894  0.86917944  1
  V  V32  1  0.38192707  0.25098163  0.62760284  1
  V  V33  1  -0.00052666  0.12474309  0.62345632  1
  V  V34  1  0.74402076  0.13243264  0.88602780  1
  V  V35  1  0.62420960  0.87663804  0.75007732  1
  V  V36  1  0.38254368  0.12346399  0.74397131  1
  V  V37  1  0.49916180  0.00522676  0.00524184  1
  V  V38  1  0.12618860  0.62047216  0.00239302  1
  V  V39  1  0.63580403  0.39410521  0.74793745  1
  V  V40  1  0.86908592  0.25120438  0.62194791  1
  V  V41  1  0.50245822  0.74236240  0.25118049  1
  V  V42  1  0.12384911  0.74709665  0.37292663  1
  V  V43  1  0.74946790  0.00122531  0.74675067  1
  V  V44  1  -0.00490259  0.75037527  0.74119124  1
  V  V45  1  0.87380555  -0.00310798  0.87539961  1
  V  V46  1  0.56242924  0.17766477  0.06404329  1
  V  V47  1  0.00616688  0.37688956  0.38074447  1
  V  V48  1  0.12136471  -0.00796824  0.62721788  1
  V  V49  1  0.87315237  0.12873685  0.25348178  1
  V  V50  1  0.87621657  0.00494616  0.37544256  1
  V  V51  1  0.51599425  0.24656005  0.74609430  1
  V  V52  1  0.01033228  0.87379048  0.86806325  1
  V  V53  1  0.87313900  0.12584924  0.75025455  1
  V  V54  1  0.62490697  0.74963437  0.87797387  1
  V  V55  1  0.01178520  0.25159981  0.25245769  1
  V  V56  1  0.12731651  -0.00865392  0.12487072  1
  V  V57  1  0.74870622  0.87046090  0.61396402  1
  V  V58  1  0.00083712  0.12650317  0.12587051  1
  V  V59  1  0.00399555  0.49625193  0.00359138  1
  V  V60  1  0.51745873  0.50114887  0.50341451  1
  V  V61  1  0.11829871  0.61609674  0.50080144  1
  V  V62  1  0.74683989  0.62582069  0.38687176  1
  V  V63  1  0.25877878  0.61869930  0.87834899  1
  V  V64  1  0.86748057  0.86523967  0.49881126  1
  V  V65  1  0.50094794  0.24509670  0.25892886  1
  V  V66  1  0.60399946  0.50998819  0.12770105  1
  V  V67  1  0.86475890  0.25196852  0.12449662  1
  V  V68  1  0.37175789  0.74220860  0.62757032  1
  V  V69  1  -0.01270324  0.61976014  0.62714086  1
  V  V70  1  0.75246227  0.87516385  0.12672602  1
  V  V71  1  0.00031409  -0.00108936  -0.00068711  1
  V  V72  1  0.62164795  0.00031966  0.12147805  1
  V  V73  1  0.37815384  0.74880977  0.12599427  1
  V  V74  1  0.25041347  -0.00628559  0.24637346  1
  V  V75  1  -0.00195722  -0.00054660  0.49978283  1
  V  V76  1  0.87259677  0.62479662  0.24321119  1
  V  V77  1  0.75027199  0.49751840  0.23349634  1
  V  V78  1  0.24548975  -0.00605923  0.75053879  1
  V  V79  1  0.36924400  0.87124186  0.49959710  1
  V  V80  1  -0.00144951  0.37739955  0.87669687  1
  V  V81  1  0.24361260  0.87045116  0.62897029  1
  V  V82  1  0.37440494  -0.00067166  0.87555313  1
  V  V83  1  0.51372314  0.62353526  0.61979431  1
  V  V84  1  0.37025453  0.87707080  0.00887692  1
  Zn  Zn85  1  0.48687376  0.51634201  -0.01454982  1
  Zn  Zn86  1  0.49684314  0.75003756  0.74982207  1
  Zn  Zn87  1  0.37838933  0.37510316  0.50325562  1
  Zn  Zn88  1  0.25587195  0.37370780  0.12785480  1
  Zn  Zn89  1  0.87806097  0.37846332  0.49925888  1
  Zn  Zn90  1  0.61323364  0.00848979  0.63028548  1
  Zn  Zn91  1  0.61930628  0.62998370  0.00907156  1
  Zn  Zn92  1  0.12665646  0.74896072  0.86938949  1
  Zn  Zn93  1  0.62537131  0.87321853  0.25166707  1
  Zn  Zn94  1  0.87793023  0.75213789  0.12565261  1
  Zn  Zn95  1  0.62845489  0.25390928  0.88931360  1
  Zn  Zn96  1  -0.00062500  0.74879137  0.24798280  1
  Zn  Zn97  1  0.75442741  0.62210613  0.85376589  1
  Zn  Zn98  1  0.87758625  0.87496780  0.00104642  1
  Zn  Zn99  1  0.37825838  0.62205381  0.75276015  1
  Zn  Zn100  1  0.12833429  0.37385597  0.75066994  1
  Zn  Zn101  1  0.36545096  0.38465444  -0.00517267  1
  Zn  Zn102  1  0.87007322  0.50512845  0.85848892  1
  Zn  Zn103  1  0.12830751  0.86968065  0.24565739  1
  Zn  Zn104  1  0.25149010  0.37329790  0.62943146  1
  Zn  Zn105  1  0.62218903  0.13276874  0.49534967  1
  Zn  Zn106  1  0.26714178  0.25024956  0.01364492  1
  Zn  Zn107  1  0.19251524  0.18913738  0.18502644  1
  Zn  Zn108  1  0.18907409  0.18420686  0.68597670  1
  Zn  Zn109  1  0.18943420  0.68204676  0.18622369  1
  Zn  Zn110  1  0.18083363  0.68421250  0.69351788  1
  Zn  Zn111  1  0.68945697  0.18973629  0.19834075  1
  Zn  Zn112  1  0.68829216  0.18099835  0.67718911  1
  Zn  Zn113  1  0.68851930  0.68750699  0.19160852  1
  Zn  Zn114  1  0.68517439  0.69751428  0.68214589  1
  Zn  Zn115  1  0.31619686  0.31065748  0.31365889  1
  Zn  Zn116  1  0.31927443  0.30812991  0.82709576  1
  Zn  Zn117  1  0.31046058  0.80908110  0.31168544  1
  Zn  Zn118  1  0.31076241  0.80924154  0.81728184  1
  Zn  Zn119  1  0.81566399  0.31845576  0.30708905  1
  Zn  Zn120  1  0.81260364  0.31634132  0.81281057  1
  Zn  Zn121  1  0.81192310  0.81084575  0.31291805  1
  Zn  Zn122  1  0.81305063  0.80948398  0.80870795  1
  Zn  Zn123  1  0.18792569  0.43404886  0.43714054  1
  Zn  Zn124  1  0.18812525  0.43574025  0.94025060  1
  Zn  Zn125  1  0.18540067  0.93754281  0.43656162  1
  Zn  Zn126  1  0.18835417  0.93579919  0.93985448  1
  Zn  Zn127  1  0.69332272  0.43810043  0.43365508  1
  Zn  Zn128  1  0.68064407  0.43939094  0.94184061  1
  Zn  Zn129  1  0.67329472  0.96607136  0.42842559  1
  Zn  Zn130  1  0.68757904  0.93913264  0.93947907  1
  Zn  Zn131  1  0.30857405  0.06453860  0.06222340  1
  Zn  Zn132  1  0.31199987  0.06221972  0.56452702  1
  Zn  Zn133  1  0.31268025  0.54937521  0.06319705  1
  Zn  Zn134  1  0.31023376  0.55891440  0.56139699  1
  Zn  Zn135  1  0.81353267  0.06251463  0.06540438  1
  Zn  Zn136  1  0.80915405  0.06254123  0.56162009  1
  Zn  Zn137  1  0.80958290  0.56214794  0.00080448  1
  Zn  Zn138  1  0.81014537  0.56173326  0.68611211  1
  Zn  Zn139  1  0.40341794  0.44547626  0.17879423  1
  Zn  Zn140  1  0.44060213  0.43697955  0.68844117  1
  Zn  Zn141  1  0.43844077  0.93615674  0.18868391  1
  Zn  Zn142  1  0.43015902  0.93003954  0.68914991  1
  Zn  Zn143  1  0.93928305  0.43780630  0.18709680  1
  Zn  Zn144  1  0.94198273  0.43414436  0.68483862  1
  Zn  Zn145  1  0.93915217  0.93786563  0.18932185  1
  Zn  Zn146  1  0.93327332  0.93139663  0.68704258  1
  Zn  Zn147  1  0.06375002  0.06327582  0.31127929  1
  Zn  Zn148  1  0.06101979  0.06131702  0.81013216  1
  Zn  Zn149  1  0.06022478  0.56002993  0.31215027  1
  Zn  Zn150  1  0.06385135  0.56371805  0.81185822  1
  Zn  Zn151  1  0.56333503  0.06503384  0.31926038  1
  Zn  Zn152  1  0.56384772  0.06451280  0.81723588  1
  Zn  Zn153  1  0.56426531  0.56104502  0.31561244  1
  Zn  Zn154  1  0.57021960  0.57148593  0.80362050  1
  Zn  Zn155  1  0.43234809  0.18718212  0.43406393  1
  Zn  Zn156  1  0.43662482  0.19727816  0.92401352  1
  Zn  Zn157  1  0.43768663  0.68527460  0.43928544  1
  Zn  Zn158  1  0.43912856  0.68794185  0.93922151  1
  Zn  Zn159  1  0.93689551  0.19282303  0.43674164  1
  Zn  Zn160  1  0.93473385  0.18721511  0.93849526  1
  Zn  Zn161  1  0.93366011  0.68204955  0.43966914  1
  Zn  Zn162  1  0.93766267  0.69124335  0.93596254  1
  Zn  Zn163  1  0.06663942  0.31261188  0.06695398  1
  Zn  Zn164  1  0.06518889  0.31234270  0.56222041  1
  Zn  Zn165  1  0.06013580  0.80939104  0.05941323  1
  Zn  Zn166  1  0.05749419  0.80768004  0.56009406  1
  Zn  Zn167  1  0.51448469  0.34520934  0.08563077  1
  Zn  Zn168  1  0.56820423  0.31218661  0.56227361  1
  Zn  Zn169  1  0.56005857  0.81534054  0.06494980  1
  Zn  Zn170  1  0.55969179  0.81705188  0.56465236  1
  O  O171  1  0.11973572  0.11607442  0.11966360  1
  O  O172  1  0.11966471  0.11320351  0.61762477  1
  O  O173  1  0.12020266  0.62674710  0.11277093  1
  O  O174  1  0.12101848  0.61764629  0.61607591  1
  O  O175  1  0.63002817  0.12017353  0.12095180  1
  O  O176  1  0.62738829  0.11777912  0.60993291  1
  O  O177  1  0.62131457  0.61242982  0.13479464  1
  O  O178  1  0.61132417  0.63412039  0.62008688  1
  O  O179  1  0.38638714  0.38242050  0.37752778  1
  O  O180  1  0.40229668  0.38768658  0.84569991  1
  O  O181  1  0.37757750  0.87743397  0.38002205  1
  O  O182  1  0.37875243  0.88073871  0.88498064  1
  O  O183  1  0.88685505  0.38385540  0.37114647  1
  O  O184  1  0.88586088  0.36996854  0.88748491  1
  O  O185  1  0.88193976  0.88342934  0.37763081  1
  O  O186  1  0.88015429  0.88785635  0.87294616  1
  O  O187  1  0.25282430  0.00723171  0.36924899  1
  O  O188  1  0.25274237  0.00395697  0.86832620  1
  O  O189  1  0.26015877  0.50753536  0.38187598  1
  O  O190  1  0.24137753  0.50816136  0.86619629  1
  O  O191  1  0.76478550  -0.01121995  0.35888063  1
  O  O192  1  0.75574140  0.00488055  0.86599610  1
  O  O193  1  0.75600109  0.51043898  0.36526893  1
  O  O194  1  0.75566830  0.51315657  0.90282362  1
  O  O195  1  0.29323119  0.48014015  0.14908243  1
  O  O196  1  0.23938056  0.49815330  0.63123089  1
  O  O197  1  0.23954825  1.00423820  0.13385960  1
  O  O198  1  0.24170526  0.99256169  0.63116930  1
  O  O199  1  0.74078390  0.50014976  0.13462542  1
  O  O200  1  0.75444610  0.48499404  0.61468959  1
  O  O201  1  0.74573878  0.99385917  0.13243558  1
  O  O202  1  0.74988720  0.99670502  0.63817562  1
  O  O203  1  0.01181633  0.36948472  0.25553451  1
  O  O204  1  0.00299246  0.36586856  0.75929595  1
  O  O205  1  0.00317673  0.87268925  0.26238077  1
  O  O206  1  -0.00185952  0.86444001  0.75362896  1
  O  O207  1  0.50430509  0.36337178  0.26026680  1
  O  O208  1  0.52178185  0.37159380  0.74696419  1
  O  O209  1  0.49594792  0.86454803  0.26267093  1
  O  O210  1  0.50764226  0.87679421  0.75676795  1
  O  O211  1  0.49166493  0.13043153  0.26125462  1
  O  O212  1  0.49344998  0.13266853  0.75551869  1
  O  O213  1  0.48955562  0.63763491  0.26116237  1
  O  O214  1  0.49743639  0.62870493  0.73450619  1
  O  O215  1  0.99099001  0.13029533  0.24776513  1
  O  O216  1  0.99254827  0.12933908  0.74274442  1
  O  O217  1  0.99474756  0.62492087  0.24304180  1
  O  O218  1  1.00176196  0.63103155  0.73514829  1
  O  O219  1  0.35635472  0.27302880  -0.05650325  1
  O  O220  1  0.36697511  0.24653490  0.51054273  1
  O  O221  1  0.37000164  0.75729721  0.00858275  1
  O  O222  1  0.36525768  0.75256423  0.50570227  1
  O  O223  1  0.88295898  0.26151536  0.00976006  1
  O  O224  1  0.86833242  0.25579037  0.50619443  1
  O  O225  1  0.86570266  0.75662970  0.00509918  1
  O  O226  1  0.87296752  0.76635445  0.48962695  1
  O  O227  1  0.13978595  0.24052739  0.50872579  1
  O  O228  1  0.12084965  0.24050208  0.99052256  1
  O  O229  1  0.12744464  0.74056714  0.49030438  1
  O  O230  1  0.13365766  0.74286789  0.99872148  1
  O  O231  1  0.64218426  0.25056994  0.49776169  1
  O  O232  1  0.61058418  0.24531971  1.00892740  1
  O  O233  1  0.61955266  0.75702188  0.48716620  1
  O  O234  1  0.62996022  0.75883241  0.99195187  1
  O  O235  1  0.51094980  0.23324851  0.13282291  1
  O  O236  1  0.49051472  0.25372261  0.63016189  1
  O  O237  1  0.48708080  0.75629778  0.13572144  1
  O  O238  1  0.48947474  0.74159326  0.62304669  1
  O  O239  1  0.99512529  0.24310710  0.13425047  1
  O  O240  1  0.98995976  0.24669629  0.62739051  1
  O  O241  1  0.99956035  0.73707818  0.12579452  1
  O  O242  1  1.00050074  0.73868725  0.63247421  1
  O  O243  1  -0.00684546  0.26567096  0.36521886  1
  O  O244  1  0.00636533  0.25198696  0.86865889  1
  O  O245  1  0.00707269  0.75472061  0.37503755  1
  O  O246  1  0.00283941  0.75934473  0.86954858  1
  O  O247  1  0.49988036  0.25800203  0.37245034  1
  O  O248  1  0.51113529  0.26277092  0.85990123  1
  O  O249  1  0.50447652  0.75507813  0.37112756  1
  O  O250  1  0.50704986  0.76021082  0.87257039  1
  O  O251  1  0.24549981  0.12766319  0.49368357  1
  O  O252  1  0.24472765  0.12958209  0.98997506  1
  O  O253  1  0.24134729  0.62896653  0.49110383  1
  O  O254  1  0.24415604  0.62727681  0.99764141  1
  O  O255  1  0.75848385  0.14275038  0.49850694  1
  O  O256  1  0.75639195  0.11932197  0.98380861  1
  O  O257  1  0.75594873  0.62416670  0.48135408  1
  O  O258  1  0.73638315  0.64812631  1.01829202  1
  O  O259  1  0.24641294  0.36995235  0.00710261  1
  O  O260  1  0.25375255  0.36275010  0.50084826  1
  O  O261  1  0.25867263  0.86496470  -0.00360535  1
  O  O262  1  0.25091763  0.86759390  0.50587555  1
  O  O263  1  0.76494189  0.37270279  -0.00221217  1
  O  O264  1  0.75141157  0.36618347  0.50892409  1
  O  O265  1  0.75154185  0.87061483  0.00949411  1
  O  O266  1  0.75214246  0.89342437  0.50957307  1
  O  O267  1  0.12967098  0.49255338  0.25023895  1
  O  O268  1  0.13357459  0.49932672  0.74178479  1
  O  O269  1  0.13225773  0.99884545  0.24186875  1
  O  O270  1  0.13308313  1.00401394  0.73950407  1
  O  O271  1  0.62881675  0.49500786  0.24319593  1
  O  O272  1  0.63533191  0.49227074  0.74618006  1
  O  O273  1  0.63360596  1.00165682  0.23896641  1
  O  O274  1  0.63098638  0.99252064  0.75168013  1
  O  O275  1  0.36817342  0.00407393  0.25388896  1
  O  O276  1  0.36850288  0.00452672  0.75487207  1
  O  O277  1  0.39114240  0.51255616  0.27138720  1
  O  O278  1  0.35953411  0.50490202  0.73821497  1
  O  O279  1  0.87164564  0.00897406  0.25528325  1
  O  O280  1  0.86818163  0.00413671  0.75606098  1
  O  O281  1  0.86738543  0.50440132  0.25262466  1
  O  O282  1  0.87190424  0.49122475  0.74815676  1
  O  O283  1  0.11201890  0.38062128  0.36681615  1
  O  O284  1  0.11326506  0.36453281  0.87442314  1
  O  O285  1  0.11671773  0.86483699  0.37626632  1
  O  O286  1  0.11292563  0.87747720  0.87505830  1
  O  O287  1  0.61386045  0.38387856  0.36354340  1
  O  O288  1  0.62773931  0.37253538  0.85962219  1
  O  O289  1  0.61455083  0.87197554  0.37219899  1
  O  O290  1  0.62094175  0.87164636  0.86911133  1
  O  O291  1  0.37289685  0.12014447  0.13856568  1
  O  O292  1  0.37050524  0.12987351  0.63818737  1
  O  O293  1  0.37099465  0.63300089  0.13896319  1
  O  O294  1  0.37282934  0.63599716  0.62346226  1
  O  O295  1  0.88248922  0.12923573  0.13292668  1
  O  O296  1  0.88022701  0.13114647  0.62940648  1
  O  O297  1  0.88389965  0.62532276  0.13604554  1
  O  O298  1  0.89043932  0.61624420  0.61580738  1
  O  O299  1  0.25466832  0.25645693  0.12551655  1
  O  O300  1  0.26125228  0.24871086  0.62061101  1
  O  O301  1  0.26048933  0.74541622  0.11454776  1
  O  O302  1  0.25087147  0.75219601  0.62266309  1
  O  O303  1  0.76563179  0.24418231  0.13108653  1
  O  O304  1  0.76206205  0.25475606  0.62115108  1
  O  O305  1  0.74770746  0.76514871  0.12416301  1
  O  O306  1  0.74381618  0.77197206  0.61633591  1
  O  O307  1  0.25761134  0.23606033  0.38526167  1
  O  O308  1  0.22811454  0.23915082  0.85793128  1
  O  O309  1  0.24149579  0.74188439  0.38058883  1
  O  O310  1  0.24721826  0.74200503  0.88821729  1
  O  O311  1  0.75846105  0.25534269  0.38559890  1
  O  O312  1  0.74992483  0.23650962  0.87311597  1
  O  O313  1  0.74202892  0.73746107  0.36807836  1
  O  O314  1  0.74278668  0.75606188  0.88503172  1
  O  O315  1  0.00494977  0.11775404  0.00430787  1
  O  O316  1  0.00467939  0.12128757  0.50405587  1
  O  O317  1  0.00726795  0.61771991  0.00637840  1
  O  O318  1  0.00897120  0.63081334  0.51187824  1
  O  O319  1  0.49488089  0.12701303  -0.00021255  1
  O  O320  1  0.49469626  0.10754889  0.49327309  1
  O  O321  1  0.50760588  0.62701222  -0.00108891  1
  O  O322  1  0.49567435  0.61747580  0.51178690  1
  O  O323  1  0.50153651  0.38137138  0.49542529  1
  O  O324  1  0.50460228  0.38155722  0.97317390  1
  O  O325  1  0.48533809  0.87494092  0.49153312  1
  O  O326  1  0.49000732  0.88298167  0.99649498  1
  O  O327  1  1.00108086  0.36974357  0.48445539  1
  O  O328  1  1.00215947  0.38018144  0.99430682  1
  O  O329  1  0.99161262  0.87907027  0.49073445  1
  O  O330  1  0.99880239  0.88170137  0.98923952  1
  O  O331  1  0.49655856  0.49482659  0.38617818  1
  O  O332  1  0.51668226  0.49261535  0.86689733  1
  O  O333  1  0.48888839  0.98760617  0.38273206  1
  O  O334  1  0.49456499  0.99712002  0.88479840  1
  O  O335  1  0.99172469  0.48699877  0.36834310  1
  O  O336  1  0.99823559  0.49078608  0.88141680  1
  O  O337  1  0.99549234  0.99159819  0.37867011  1
  O  O338  1  0.99238235  0.99423282  0.87642186  1
  O  O339  1  0.00640415  0.00633019  0.12070482  1
  O  O340  1  0.00441611  0.00232010  0.62115618  1
  O  O341  1  -0.00033236  0.51169199  0.11920286  1
  O  O342  1  0.01258094  0.50984389  0.62782737  1
  O  O343  1  0.50868914  -0.00205130  0.12000706  1
  O  O344  1  0.48520887  -0.00337588  0.61311173  1
  O  O345  1  0.50428759  0.50400308  0.13372893  1
  O  O346  1  0.49645411  0.51460694  0.61840164  1
  O  O347  1  0.23078388  0.36589743  0.26212703  1
  O  O348  1  0.24854208  0.38148045  0.75406477  1
  O  O349  1  0.24757612  0.88904589  0.25614038  1
  O  O350  1  0.25392869  0.88640928  0.74746280  1
  O  O351  1  0.73756517  0.38406065  0.25462219  1
  O  O352  1  0.74177411  0.36966780  0.73804971  1
  O  O353  1  0.74953758  0.88370899  0.24280263  1
  O  O354  1  0.74451010  0.88168177  0.74145452  1
  O  O355  1  0.25582087  0.11675037  0.25807175  1
  O  O356  1  0.25613471  0.11165681  0.75267111  1
  O  O357  1  0.25820729  0.62911380  0.26332976  1
  O  O358  1  0.24866050  0.61767676  0.76210934  1
  O  O359  1  0.76444576  0.11758486  0.24935038  1
  O  O360  1  0.75548748  0.11743379  0.75673218  1
  O  O361  1  0.75910527  0.61696614  0.25152449  1
  O  O362  1  0.75198300  0.63635218  0.74290261  1
  O  O363  1  0.36492778  0.11571344  0.36882329  1
  O  O364  1  0.36920799  0.11711101  0.86243479  1
  O  O365  1  0.36569598  0.62059718  0.37186685  1
  O  O366  1  0.36164664  0.63354901  0.87198511  1
  O  O367  1  0.88385554  0.11316241  0.36847387  1
  O  O368  1  0.86946244  0.11523496  0.86956665  1
  O  O369  1  0.86978641  0.61933540  0.36394874  1
  O  O370  1  0.86397532  0.61524663  0.90313517  1
  O  O371  1  0.12523932  0.37328676  0.14425210  1
  O  O372  1  0.12697611  0.38393607  0.62743879  1
  O  O373  1  0.11792032  0.88720231  0.12541754  1
  O  O374  1  0.12618250  0.88476627  0.61772840  1
  O  O375  1  0.61100470  0.38618261  0.14010239  1
  O  O376  1  0.64054644  0.37154172  0.63453400  1
  O  O377  1  0.63191970  0.88447803  0.12993787  1
  O  O378  1  0.63106327  0.88124405  0.63455026  1
  O  O379  1  0.11186761  0.24027743  0.25274754  1
  O  O380  1  0.11313441  0.24599317  0.75200023  1
  O  O381  1  0.12575985  0.74899139  0.26133306  1
  O  O382  1  0.10660481  0.74592599  0.75445438  1
  O  O383  1  0.61476942  0.25686650  0.25067054  1
  O  O384  1  0.61891445  0.24747409  0.74454709  1
  O  O385  1  0.61487281  0.75210571  0.25729122  1
  O  O386  1  0.62193534  0.76515520  0.75712729  1
  O  O387  1  0.38984734  0.24044902  0.25650445  1
  O  O388  1  0.38482492  0.24098920  0.74488341  1
  O  O389  1  0.37848309  0.74356023  0.24395538  1
  O  O390  1  0.37516363  0.74915424  0.74108027  1
  O  O391  1  0.88299588  0.24424393  0.24458452  1
  O  O392  1  0.88087067  0.24613046  0.74295517  1
  O  O393  1  0.87752893  0.74022481  0.24783269  1
  O  O394  1  0.89432746  0.74917564  0.75663815  1
  O  O395  1  0.38247902  0.49862124  0.49230889  1
  O  O396  1  0.37508537  0.49870121  0.98514917  1
  O  O397  1  0.37709817  0.99203114  0.49570871  1
  O  O398  1  0.37624010  0.99414773  0.99714893  1
  O  O399  1  0.87296552  0.49698869  0.48047718  1
  O  O400  1  0.89016327  0.48025151  1.00836180  1
  O  O401  1  0.87991836  0.99620745  0.49124125  1
  O  O402  1  0.88196980  0.99924316  0.99168344  1
  O  O403  1  0.12184363  0.00599021  0.00653782  1
  O  O404  1  0.11743016  0.00435482  0.50670188  1
  O  O405  1  0.11265773  0.50583648  -0.00212543  1
  O  O406  1  0.13004851  0.50948135  0.50640073  1
  O  O407  1  0.61900506  -0.00161480  0.01261193  1
  O  O408  1  0.59531317  -0.02295361  0.51359216  1
  O  O409  1  0.61823610  0.50001986  0.02115839  1
  O  O410  1  0.61645540  0.49737252  0.49664470  1
  O  O411  1  0.40399636  0.36145524  0.10504680  1
  O  O412  1  0.37326076  0.36458129  0.62474258  1
  O  O413  1  0.37565391  0.86882893  0.11563261  1
  O  O414  1  0.36468005  0.86145349  0.61983850  1
  O  O415  1  0.88136059  0.36518793  0.11492463  1
  O  O416  1  0.86682582  0.36736837  0.62085472  1
  O  O417  1  0.86674544  0.87618444  0.12442156  1
  O  O418  1  0.85937551  0.88144903  0.61388841  1
  O  O419  1  0.13437852  0.11802868  0.38466439  1
  O  O420  1  0.12541077  0.12806743  0.88124690  1
  O  O421  1  0.12886738  0.62745571  0.38070304  1
  O  O422  1  0.13119839  0.62598310  0.88830203  1
  O  O423  1  0.63900721  0.07626885  0.39812630  1
  O  O424  1  0.63998920  0.12800080  0.87603389  1
  O  O425  1  0.63806027  0.63211949  0.37190337  1
  O  O426  1  0.62955110  0.64310810  0.87291217  1
