# generated using pymatgen
data_V85Zn86O256
_symmetry_space_group_name_H-M   'P 1'
_cell_length_a   16.93684088
_cell_length_b   16.94932904
_cell_length_c   16.95301747
_cell_angle_alpha   90.04419633
_cell_angle_beta   90.02879197
_cell_angle_gamma   89.98722640
_symmetry_Int_Tables_number   1
_chemical_formula_structural   V85Zn86O256
_chemical_formula_sum   'V85 Zn86 O256'
_cell_volume   4866.66814481
_cell_formula_units_Z   1
loop_
 _symmetry_equiv_pos_site_id
 _symmetry_equiv_pos_as_xyz
  1  'x, y, z'
loop_
 _atom_site_type_symbol
 _atom_site_label
 _atom_site_symmetry_multiplicity
 _atom_site_fract_x
 _atom_site_fract_y
 _atom_site_fract_z
 _atom_site_occupancy
  V  V0  1  0.49343747  0.00178551  0.50841825  1
  V  V1  1  0.62329350  0.24975091  0.85448519  1
  V  V2  1  0.24627189  0.24966278  0.49317432  1
  V  V3  1  0.12646207  0.12388426  -0.00155397  1
  V  V4  1  0.74578894  0.37215099  0.62790492  1
  V  V5  1  0.24781491  0.49160991  0.74590060  1
  V  V6  1  0.49725105  0.12120828  0.13165052  1
  V  V7  1  0.00405148  0.74545274  0.74801255  1
  V  V8  1  0.00191296  0.87274569  0.87588093  1
  V  V9  1  0.49657468  0.74889783  0.25102227  1
  V  V10  1  0.00295498  -0.00074758  0.00357106  1
  V  V11  1  0.76269794  0.25322163  0.49925296  1
  V  V12  1  0.87467261  -0.00117156  0.87017856  1
  V  V13  1  0.74386538  0.49950721  0.74711518  1
  V  V14  1  0.00306652  -0.00040002  0.50302934  1
  V  V15  1  0.62398106  0.62482134  -0.00737264  1
  V  V16  1  0.26060686  0.87513898  0.62337527  1
  V  V17  1  0.39129628  0.12943930  0.75438399  1
  V  V18  1  0.14058068  0.37892334  0.25320626  1
  V  V19  1  0.62525444  0.12069300  0.00644222  1
  V  V20  1  0.37572175  0.25771326  0.12749470  1
  V  V21  1  0.26150241  0.73600479  0.50882055  1
  V  V22  1  0.75245369  0.12873986  0.37288140  1
  V  V23  1  0.74413910  0.75276542  -0.00070825  1
  V  V24  1  0.87355444  0.37563214  -0.00094936  1
  V  V25  1  0.24730672  0.60823275  0.37054011  1
  V  V26  1  0.25107942  0.62239011  0.86980663  1
  V  V27  1  0.87462475  0.87475620  0.00212121  1
  V  V28  1  0.13030229  0.86761494  0.24572950  1
  V  V29  1  0.62039384  0.49852382  0.62397423  1
  V  V30  1  0.62276175  0.88688641  0.24529600  1
  V  V31  1  0.62207672  0.75076968  0.37313307  1
  V  V32  1  0.87362294  0.49977585  0.87278714  1
  V  V33  1  0.62587949  0.25221938  0.38000393  1
  V  V34  1  0.87647086  0.62495244  0.74653714  1
  V  V35  1  0.74587500  0.75249704  0.50205693  1
  V  V36  1  0.00366578  0.12949862  0.63347655  1
  V  V37  1  0.37733364  0.50071315  0.86811454  1
  V  V38  1  0.62835321  0.38124008  0.25544041  1
  V  V39  1  0.13703463  0.49164758  0.12406126  1
  V  V40  1  0.00187868  0.37963961  0.37843176  1
  V  V41  1  0.25527287  0.12807022  0.87361500  1
  V  V42  1  0.86896418  0.87443834  0.50192588  1
  V  V43  1  0.49878100  0.62279734  0.12502124  1
  V  V44  1  0.17619808  0.03829968  0.17202961  1
  V  V45  1  0.00455340  0.62226942  0.60948424  1
  V  V46  1  0.87679415  0.50086231  0.37285030  1
  V  V47  1  0.12220043  0.37044491  0.74291725  1
  V  V48  1  0.87381894  0.75103088  0.62395677  1
  V  V49  1  0.75074221  0.12207610  0.87486000  1
  V  V50  1  0.37111438  0.60957752  0.25220890  1
  V  V51  1  -0.00272409  0.37170451  0.86931609  1
  V  V52  1  0.50113480  -0.00664132  0.00429969  1
  V  V53  1  0.74634362  0.63361412  0.86843432  1
  V  V54  1  0.87646321  0.12604895  0.24803058  1
  V  V55  1  0.37504912  0.26314518  0.63335662  1
  V  V56  1  0.61745739  0.62700421  0.50523197  1
  V  V57  1  0.49012846  0.37634807  0.37634363  1
  V  V58  1  0.88155333  0.25337463  0.63598040  1
  V  V59  1  0.00119018  0.87056753  0.37332177  1
  V  V60  1  0.37673898  -0.01371082  0.87973415  1
  V  V61  1  0.12161958  0.49990038  0.61311654  1
  V  V62  1  0.49227591  0.50055825  0.49683959  1
  V  V63  1  0.12759740  0.87142225  0.74937964  1
  V  V64  1  0.87506731  -0.00049044  0.37128629  1
  V  V65  1  0.51127539  0.86446196  0.87586407  1
  V  V66  1  0.25395681  -0.00064346  0.75214214  1
  V  V67  1  -0.00052751  0.12342250  0.12735198  1
  V  V68  1  0.87532091  0.74895408  0.12782797  1
  V  V69  1  0.37277988  0.74995019  0.12106438  1
  V  V70  1  0.62756300  0.50022148  0.12725654  1
  V  V71  1  0.62859490  0.11625144  0.50217167  1
  V  V72  1  0.00292777  0.25773483  0.24977495  1
  V  V73  1  0.25010947  0.87215865  0.11784853  1
  V  V74  1  0.49134056  0.88253058  0.37544335  1
  V  V75  1  0.50562916  0.37193804  0.85793572  1
  V  V76  1  0.75088988  0.38032407  0.13053954  1
  V  V77  1  0.12674080  0.74659387  0.87328507  1
  V  V78  1  0.74394787  0.25339810  0.00065988  1
  V  V79  1  0.12957252  0.74346603  0.38323908  1
  V  V80  1  0.12286190  0.62278606  0.00111936  1
  V  V81  1  0.12616464  0.00317267  0.62631750  1
  V  V82  1  0.12018526  0.24884969  0.86883982  1
  V  V83  1  0.50083162  0.49281267  -0.00278305  1
  V  V84  1  0.74677398  0.61891162  0.36619070  1
  Zn  Zn85  1  0.87842446  0.12411356  0.75282728  1
  Zn  Zn86  1  0.87130298  0.61716017  0.24372437  1
  Zn  Zn87  1  0.25375040  0.75133257  -0.00519114  1
  Zn  Zn88  1  0.74139492  0.00773789  0.24161212  1
  Zn  Zn89  1  0.50328527  0.12968287  0.63035451  1
  Zn  Zn90  1  -0.00055259  0.49729292  0.00196826  1
  Zn  Zn91  1  0.49932783  0.24509762  0.25588844  1
  Zn  Zn92  1  0.00017947  0.62036996  0.12812690  1
  Zn  Zn93  1  0.88298567  0.38569501  0.50490200  1
  Zn  Zn94  1  0.16132480  0.10816483  0.45844437  1
  Zn  Zn95  1  0.50576230  0.73521725  0.74468733  1
  Zn  Zn96  1  0.87483903  0.25284039  0.12286216  1
  Zn  Zn97  1  0.74235586  0.88225380  0.12149735  1
  Zn  Zn98  1  -0.00092844  0.74464485  0.24943611  1
  Zn  Zn99  1  0.37541613  0.87502436  0.49829060  1
  Zn  Zn100  1  0.70353754  0.95925836  0.67315777  1
  Zn  Zn101  1  0.63698745  0.86056314  0.75133751  1
  Zn  Zn102  1  0.36742986  0.37545532  -0.00131924  1
  Zn  Zn103  1  0.29838761  0.06525583  0.32390121  1
  Zn  Zn104  1  0.41298958  0.67182331  0.65823653  1
  Zn  Zn105  1  0.37014299  0.37669374  0.50367048  1
  Zn  Zn106  1  0.25066430  0.25622569  0.00250319  1
  Zn  Zn107  1  0.19094202  0.20701304  0.19062946  1
  Zn  Zn108  1  0.19459601  0.18867558  0.68456636  1
  Zn  Zn109  1  0.18725448  0.68402841  0.18906297  1
  Zn  Zn110  1  0.21453509  0.67039452  0.67079874  1
  Zn  Zn111  1  0.68424915  0.19205723  0.18863330  1
  Zn  Zn112  1  0.70360468  0.15605318  0.67477588  1
  Zn  Zn113  1  0.68578842  0.69172020  0.18464474  1
  Zn  Zn114  1  0.67770265  0.69821231  0.68253751  1
  Zn  Zn115  1  0.31696098  0.29332224  0.31766542  1
  Zn  Zn116  1  0.31262370  0.31387136  0.81474919  1
  Zn  Zn117  1  0.31043747  0.80788725  0.30931482  1
  Zn  Zn118  1  0.31975571  0.80543363  0.80389597  1
  Zn  Zn119  1  0.81748782  0.31507401  0.31113293  1
  Zn  Zn120  1  0.80655277  0.31196986  0.81082070  1
  Zn  Zn121  1  0.80789893  0.81191445  0.31257641  1
  Zn  Zn122  1  0.81152416  0.81636502  0.80952451  1
  Zn  Zn123  1  0.19017659  0.42683424  0.43741508  1
  Zn  Zn124  1  0.18703594  0.43529558  0.93663117  1
  Zn  Zn125  1  0.19171860  0.93116008  0.43678309  1
  Zn  Zn126  1  0.18888813  0.93844176  0.93876165  1
  Zn  Zn127  1  0.68990645  0.43940113  0.44085648  1
  Zn  Zn128  1  0.68445885  0.43633459  0.93257169  1
  Zn  Zn129  1  0.68509167  0.93994218  0.43197859  1
  Zn  Zn130  1  0.68463592  0.94053707  0.92953141  1
  Zn  Zn131  1  0.32161189  0.07001913  0.05775715  1
  Zn  Zn132  1  0.31900068  0.06594158  0.56793334  1
  Zn  Zn133  1  0.31326935  0.56175926  0.05815049  1
  Zn  Zn134  1  0.29847157  0.55218059  0.55371274  1
  Zn  Zn135  1  0.81234191  0.05969503  0.06249344  1
  Zn  Zn136  1  0.82234754  0.06843464  0.55779053  1
  Zn  Zn137  1  0.81106867  0.56236883  0.05957195  1
  Zn  Zn138  1  0.81070827  0.56493120  0.55670643  1
  Zn  Zn139  1  0.44254440  0.43295084  0.18871184  1
  Zn  Zn140  1  0.43967604  0.44927522  0.68795888  1
  Zn  Zn141  1  0.42539111  0.93975395  0.19025939  1
  Zn  Zn142  1  0.44434098  0.93713138  0.69230670  1
  Zn  Zn143  1  0.93934399  0.44369374  0.18830175  1
  Zn  Zn144  1  0.93880729  0.43887804  0.68712573  1
  Zn  Zn145  1  0.93966430  0.93673245  0.18710738  1
  Zn  Zn146  1  0.93473112  0.93353799  0.68818977  1
  Zn  Zn147  1  0.09046563  0.05041376  0.32738837  1
  Zn  Zn148  1  0.06337893  0.05998184  0.81243077  1
  Zn  Zn149  1  0.06077994  0.56096312  0.30713311  1
  Zn  Zn150  1  0.06237985  0.55891482  0.80982731  1
  Zn  Zn151  1  0.46030184  0.06473797  0.31536393  1
  Zn  Zn152  1  0.57037581  0.05201919  0.81450933  1
  Zn  Zn153  1  0.56004909  0.56096208  0.31420069  1
  Zn  Zn154  1  0.55774412  0.57029944  0.80418098  1
  Zn  Zn155  1  0.43069651  0.18829997  0.44432965  1
  Zn  Zn156  1  0.44274116  0.19017524  0.93986040  1
  Zn  Zn157  1  0.43379696  0.68488181  0.43552335  1
  Zn  Zn158  1  0.43354491  0.68248240  0.93658348  1
  Zn  Zn159  1  0.97247289  0.17200244  0.42218448  1
  Zn  Zn160  1  0.93737332  0.18963650  0.93933892  1
  Zn  Zn161  1  0.93425923  0.68591392  0.43348202  1
  Zn  Zn162  1  0.93598074  0.68668624  0.93873780  1
  Zn  Zn163  1  0.06435888  0.31350318  0.06126705  1
  Zn  Zn164  1  0.06535085  0.31077620  0.55923540  1
  Zn  Zn165  1  0.06379444  0.80762579  0.06271421  1
  Zn  Zn166  1  0.06734215  0.81187533  0.56287574  1
  Zn  Zn167  1  0.56152933  0.31076777  0.06250564  1
  Zn  Zn168  1  0.56070142  0.30991008  0.56542095  1
  Zn  Zn169  1  0.55953909  0.81112031  0.06198670  1
  Zn  Zn170  1  0.55758368  0.81898647  0.57604630  1
  O  O171  1  0.12187711  0.12252102  0.11793287  1
  O  O172  1  0.12098536  0.11187427  0.63400181  1
  O  O173  1  0.12561738  0.61547221  0.11683536  1
  O  O174  1  0.11876909  0.60849326  0.62828866  1
  O  O175  1  0.61691497  0.13263488  0.11293513  1
  O  O176  1  0.61505880  0.14825352  0.60221911  1
  O  O177  1  0.62026610  0.62004892  0.11596316  1
  O  O178  1  0.63684622  0.61488475  0.60923048  1
  O  O179  1  0.38789541  0.36761246  0.37535685  1
  O  O180  1  0.38617391  0.38404648  0.87517227  1
  O  O181  1  0.38874797  0.86552405  0.37424534  1
  O  O182  1  0.37266370  0.88478964  0.87650855  1
  O  O183  1  0.88020515  0.38701676  0.37695479  1
  O  O184  1  0.87899200  0.37739005  0.87758803  1
  O  O185  1  0.88287500  0.87645545  0.38023655  1
  O  O186  1  0.88160859  0.87923150  0.88353473  1
  O  O187  1  0.20506451  0.02584378  0.37832512  1
  O  O188  1  0.25857249  0.00688678  0.87332204  1
  O  O189  1  0.24447212  0.50968342  0.37585057  1
  O  O190  1  0.25712810  0.50291609  0.86825943  1
  O  O191  1  0.75832694  0.00899283  0.36765050  1
  O  O192  1  0.76390460  0.01107725  0.88965170  1
  O  O193  1  0.75679576  0.50960455  0.37716972  1
  O  O194  1  0.75252078  0.50719835  0.86486185  1
  O  O195  1  0.23608733  0.50244823  0.12018380  1
  O  O196  1  0.23317332  0.49630855  0.63418564  1
  O  O197  1  0.25247721  0.99317022  0.11525045  1
  O  O198  1  0.24402967  0.99440513  0.63029753  1
  O  O199  1  0.74238713  0.48846911  0.11812414  1
  O  O200  1  0.74460787  0.49325300  0.62812827  1
  O  O201  1  0.75438596  0.99448131  0.13007178  1
  O  O202  1  0.74119009  1.05270366  0.63040218  1
  O  O203  1  0.00385831  0.37154448  0.25456618  1
  O  O204  1  0.00463429  0.37719953  0.76233594  1
  O  O205  1  0.00634852  0.86920786  0.25836543  1
  O  O206  1  0.00561479  0.86655023  0.75615152  1
  O  O207  1  0.51144154  0.37180444  0.25987868  1
  O  O208  1  0.50368773  0.38300088  0.75954626  1
  O  O209  1  0.50669214  0.86863558  0.25735503  1
  O  O210  1  0.50003450  0.87517684  0.77086377  1
  O  O211  1  0.51714268  0.12654710  0.23287211  1
  O  O212  1  0.49378328  0.11838900  0.75676579  1
  O  O213  1  0.49388090  0.62988259  0.24600758  1
  O  O214  1  0.48580641  0.61555450  0.73624907  1
  O  O215  1  0.99623236  0.13403593  0.23692858  1
  O  O216  1  0.99878380  0.11954882  0.73830623  1
  O  O217  1  0.99143811  0.62833640  0.24697279  1
  O  O218  1  0.99496192  0.62990022  0.74401581  1
  O  O219  1  0.37757771  0.25149370  0.01055248  1
  O  O220  1  0.36772402  0.25436998  0.51473401  1
  O  O221  1  0.37131676  0.73885188  0.01628511  1
  O  O222  1  0.36322559  0.75349888  0.49609650  1
  O  O223  1  0.86190070  0.25738760  -0.00028887  1
  O  O224  1  0.86648135  0.25178994  0.50754352  1
  O  O225  1  0.86555773  0.75350740  0.00708021  1
  O  O226  1  0.86623639  0.75667063  0.50046548  1
  O  O227  1  0.14542644  0.24565264  0.51478022  1
  O  O228  1  0.12532318  0.23784181  0.99289212  1
  O  O229  1  0.13231542  0.75322041  0.48709351  1
  O  O230  1  0.12800412  0.73948763  0.99160172  1
  O  O231  1  0.63829583  0.25421402  0.49015219  1
  O  O232  1  0.63462080  0.24507458  0.99635069  1
  O  O233  1  0.62898798  0.74467598  0.48948928  1
  O  O234  1  0.63619477  0.74010385  1.00543209  1
  O  O235  1  0.49562765  0.23891182  0.12505377  1
  O  O236  1  0.48249022  0.24734395  0.62086816  1
  O  O237  1  0.49299056  0.74169671  0.12929948  1
  O  O238  1  0.50296110  0.73474789  0.62103008  1
  O  O239  1  0.99829016  0.24491107  0.13100380  1
  O  O240  1  0.99416150  0.24038825  0.61869546  1
  O  O241  1  0.98890863  0.74453141  0.12383184  1
  O  O242  1  0.99732249  0.74342623  0.62958262  1
  O  O243  1  -0.01259053  0.26595435  0.35620573  1
  O  O244  1  0.01162163  0.25414633  0.87670670  1
  O  O245  1  0.00589231  0.75854147  0.37688724  1
  O  O246  1  0.00488606  0.75345993  0.86924563  1
  O  O247  1  0.51205027  0.25914538  0.37883070  1
  O  O248  1  0.51261557  0.25849318  0.87615672  1
  O  O249  1  0.50686279  0.75511172  0.37242110  1
  O  O250  1  0.49187093  0.76572245  0.88734859  1
  O  O251  1  0.25547548  0.13891788  0.51071102  1
  O  O252  1  0.24383246  0.12681379  0.98839932  1
  O  O253  1  0.24421634  0.62769047  0.47864126  1
  O  O254  1  0.23876657  0.62240180  0.98743248  1
  O  O255  1  0.74742041  0.13578018  0.48991406  1
  O  O256  1  0.74530034  0.13427366  0.99615379  1
  O  O257  1  0.74081901  0.63320677  0.48736807  1
  O  O258  1  0.74234558  0.63036956  0.99035499  1
  O  O259  1  0.25347226  0.36909512  -0.00640328  1
  O  O260  1  0.25521915  0.36033936  0.49996913  1
  O  O261  1  0.24290935  0.87022388  0.01298613  1
  O  O262  1  0.25540900  0.86907772  0.50703765  1
  O  O263  1  0.75228291  0.36955559  0.00441715  1
  O  O264  1  0.75500052  0.37002855  0.51139430  1
  O  O265  1  0.75401753  0.86597215  -0.00279509  1
  O  O266  1  0.75881165  0.86697138  0.48874660  1
  O  O267  1  0.12497793  0.48890138  0.23604274  1
  O  O268  1  0.12942948  0.48835107  0.74650493  1
  O  O269  1  0.11105644  0.98504522  0.23720034  1
  O  O270  1  0.13413650  0.99230263  0.74760539  1
  O  O271  1  0.62163783  0.48915115  0.24442586  1
  O  O272  1  0.63756411  0.50744548  0.73962309  1
  O  O273  1  0.62076277  0.98470602  0.25296016  1
  O  O274  1  0.63919404  0.97968356  0.77130632  1
  O  O275  1  0.37765649  0.00247952  0.26622454  1
  O  O276  1  0.37227628  0.00797588  0.76053438  1
  O  O277  1  0.38173334  0.51058550  0.24480514  1
  O  O278  1  0.36117714  0.49499654  0.75687291  1
  O  O279  1  0.88076812  0.01348969  0.25456293  1
  O  O280  1  0.88174986  -0.00081179  0.76639976  1
  O  O281  1  0.87078370  0.49962268  0.26484082  1
  O  O282  1  0.86433044  0.50629057  0.75189198  1
  O  O283  1  0.11604501  0.38546217  0.35954382  1
  O  O284  1  0.11511029  0.36733887  0.86724765  1
  O  O285  1  0.11906395  0.86547510  0.36678755  1
  O  O286  1  0.12218610  0.86817254  0.86988855  1
  O  O287  1  0.62423269  0.37237402  0.36990490  1
  O  O288  1  0.62044623  0.36163320  0.87283611  1
  O  O289  1  0.61570431  0.86656737  0.36800903  1
  O  O290  1  0.61258568  0.86431672  0.88488247  1
  O  O291  1  0.39212799  0.13478542  0.12243128  1
  O  O292  1  0.38128023  0.13007385  0.64192147  1
  O  O293  1  0.38025674  0.62701067  0.13098456  1
  O  O294  1  0.31460691  0.64766495  0.61071250  1
  O  O295  1  0.88320216  0.12893302  0.12964570  1
  O  O296  1  0.88614019  0.13635939  0.63109359  1
  O  O297  1  0.87249990  0.63343282  0.12405668  1
  O  O298  1  0.88270630  0.62989745  0.62714499  1
  O  O299  1  0.27131000  0.24210149  0.12053450  1
  O  O300  1  0.26944612  0.24855623  0.62470594  1
  O  O301  1  0.25578931  0.75490165  0.12383328  1
  O  O302  1  0.22580322  0.76921347  0.61184047  1
  O  O303  1  0.74928610  0.26220297  0.11725485  1
  O  O304  1  0.75957014  0.25583031  0.61974468  1
  O  O305  1  0.75583776  0.75506391  0.11506348  1
  O  O306  1  0.75771968  0.73966541  0.60747646  1
  O  O307  1  0.24850029  0.24307059  0.39150507  1
  O  O308  1  0.23993082  0.24109514  0.87451233  1
  O  O309  1  0.24357737  0.74554366  0.38420093  1
  O  O310  1  0.24587053  0.73918545  0.87352036  1
  O  O311  1  0.75004202  0.24985659  0.38210001  1
  O  O312  1  0.74200428  0.24693506  0.88355811  1
  O  O313  1  0.74162973  0.74383588  0.38258861  1
  O  O314  1  0.75849963  0.73801487  0.88219615  1
  O  O315  1  0.00662503  0.12366189  0.00991986  1
  O  O316  1  -0.01212681  0.10461609  0.51775269  1
  O  O317  1  0.01271877  0.62221483  -0.00229836  1
  O  O318  1  -0.00075028  0.63134507  0.51053075  1
  O  O319  1  0.50910282  0.11739920  0.00713212  1
  O  O320  1  0.50785505  0.11230733  0.49697405  1
  O  O321  1  0.50806402  0.61457445  0.00123694  1
  O  O322  1  0.50855049  0.61544551  0.48948447  1
  O  O323  1  0.50020899  0.38310519  0.49202336  1
  O  O324  1  0.50622102  0.38664103  0.99168144  1
  O  O325  1  0.49915957  0.88645855  0.49506807  1
  O  O326  1  0.50260863  0.88610390  0.99593836  1
  O  O327  1  1.00141327  0.36821208  0.48236352  1
  O  O328  1  0.99251631  0.37256133  0.98783078  1
  O  O329  1  0.99420264  0.88139121  0.49506919  1
  O  O330  1  0.99730071  0.87825617  0.99465180  1
  O  O331  1  0.50541702  0.48898486  0.38529534  1
  O  O332  1  0.49534014  0.49491863  0.87894947  1
  O  O333  1  0.50728742  0.98896973  0.38977250  1
  O  O334  1  0.49359668  0.98860053  0.88536760  1
  O  O335  1  0.98779690  0.49484364  0.37135383  1
  O  O336  1  0.99154192  0.49026259  0.87603189  1
  O  O337  1  0.99777586  0.98529955  0.38428920  1
  O  O338  1  0.99591612  0.99351768  0.88276845  1
  O  O339  1  -0.00383970  0.01105552  0.11661155  1
  O  O340  1  0.00694824  0.00190542  0.62219843  1
  O  O341  1  0.01122422  0.50143085  0.11976705  1
  O  O342  1  0.01051094  0.50877143  0.62850086  1
  O  O343  1  0.49275683  0.01133186  0.11769529  1
  O  O344  1  0.50038266  0.00368201  0.61316152  1
  O  O345  1  0.50742811  0.50345640  0.11574850  1
  O  O346  1  0.51443112  0.49514144  0.61461333  1
  O  O347  1  0.23832621  0.36626156  0.25877484  1
  O  O348  1  0.23695463  0.38369514  0.75789133  1
  O  O349  1  0.23798636  0.87257083  0.24166286  1
  O  O350  1  0.24651939  0.87923075  0.74375346  1
  O  O351  1  0.74333857  0.37080961  0.23990119  1
  O  O352  1  0.75396894  0.38483492  0.73719586  1
  O  O353  1  0.73150572  0.87430706  0.25305387  1
  O  O354  1  0.75612743  0.87387629  0.73688451  1
  O  O355  1  0.22477653  0.10799673  0.23581021  1
  O  O356  1  0.25650174  0.11846470  0.76177344  1
  O  O357  1  0.25862162  0.62658318  0.25954650  1
  O  O358  1  0.23905895  0.60859771  0.76444632  1
  O  O359  1  0.75916995  0.12905910  0.25409530  1
  O  O360  1  0.75961592  0.13282007  0.77280271  1
  O  O361  1  0.74784604  0.63256300  0.26278925  1
  O  O362  1  0.75505947  0.62092788  0.75425703  1
  O  O363  1  0.38213394  0.13690479  0.35879638  1
  O  O364  1  0.36984361  0.12286376  0.87156569  1
  O  O365  1  0.35991034  0.62664816  0.36480263  1
  O  O366  1  0.36541182  0.60891774  0.88090612  1
  O  O367  1  0.87567109  0.12158950  0.36590654  1
  O  O368  1  0.87136689  0.11649359  0.87912530  1
  O  O369  1  0.86541730  0.61734006  0.37194597  1
  O  O370  1  0.86653824  0.61929949  0.86889153  1
  O  O371  1  0.12519836  0.38440152  0.13257619  1
  O  O372  1  0.11105939  0.38429915  0.63736618  1
  O  O373  1  0.13319858  0.86841404  0.13322481  1
  O  O374  1  0.12743414  0.88806966  0.63227484  1
  O  O375  1  0.63051232  0.37902025  0.13344086  1
  O  O376  1  0.63526561  0.38390829  0.61951970  1
  O  O377  1  0.62186998  0.86689296  0.14191737  1
  O  O378  1  0.63437214  0.87513517  0.63151841  1
  O  O379  1  0.11547357  0.26909296  0.24399089  1
  O  O380  1  0.12997540  0.25754872  0.75660824  1
  O  O381  1  0.12310032  0.75514224  0.25888637  1
  O  O382  1  0.11889558  0.75288014  0.75522856  1
  O  O383  1  0.62636579  0.26095395  0.26400165  1
  O  O384  1  0.63502702  0.23596489  0.75832895  1
  O  O385  1  0.61700188  0.75068121  0.26112361  1
  O  O386  1  0.61855582  0.74648843  0.76025282  1
  O  O387  1  0.38287751  0.25412487  0.23308459  1
  O  O388  1  0.37303602  0.24234607  0.74484715  1
  O  O389  1  0.38007996  0.74055102  0.24000144  1
  O  O390  1  0.38879446  0.74211201  0.74981788  1
  O  O391  1  0.88087794  0.24040326  0.24474370  1
  O  O392  1  0.87466188  0.25180496  0.73898218  1
  O  O393  1  0.87164207  0.75264406  0.23573560  1
  O  O394  1  0.88444943  0.74374595  0.74352891  1
  O  O395  1  0.38742117  0.49687976  0.50875727  1
  O  O396  1  0.38601531  0.49770950  0.99234726  1
  O  O397  1  0.38914058  0.99940650  0.50111022  1
  O  O398  1  0.38803410  1.00690016  0.98936699  1
  O  O399  1  0.87115504  0.50121554  0.48252109  1
  O  O400  1  0.87370174  0.49187870  0.99055556  1
  O  O401  1  0.87914932  0.99106344  0.49270937  1
  O  O402  1  0.88439483  0.99319191  0.99250408  1
  O  O403  1  0.11891486  0.01484220  -0.00704728  1
  O  O404  1  0.11690083  -0.00210667  0.51185320  1
  O  O405  1  0.12266813  0.50378911  0.00801288  1
  O  O406  1  0.12771844  0.49027070  0.51522077  1
  O  O407  1  0.61566568  0.01010289  -0.00449938  1
  O  O408  1  0.62055540  0.01119124  0.49673963  1
  O  O409  1  0.62077986  0.50690583  0.00392207  1
  O  O410  1  0.61834595  0.50790784  0.50539943  1
  O  O411  1  0.38815416  0.36129676  0.11832068  1
  O  O412  1  0.37918243  0.36586193  0.63109977  1
  O  O413  1  0.36346153  0.86302051  0.13074781  1
  O  O414  1  0.36350187  0.88083288  0.62657357  1
  O  O415  1  0.86691494  0.37686107  0.11845031  1
  O  O416  1  0.87183064  0.36981945  0.62251405  1
  O  O417  1  0.87605039  0.86704954  0.11625681  1
  O  O418  1  0.88117808  0.86780115  0.60936328  1
  O  O419  1  0.07844065  0.13951736  0.39044036  1
  O  O420  1  0.13060307  0.13107995  0.87847554  1
  O  O421  1  0.13673551  0.63168637  0.36244669  1
  O  O422  1  0.12973429  0.62616923  0.88070032  1
  O  O423  1  0.63674828  0.13936434  0.38612620  1
  O  O424  1  0.63208324  0.13227218  0.88687136  1
  O  O425  1  0.62921401  0.63126805  0.38064076  1
  O  O426  1  0.63253451  0.61746381  0.88449647  1
