# generated using pymatgen
data_V85Zn86O256
_symmetry_space_group_name_H-M   'P 1'
_cell_length_a   16.94340056
_cell_length_b   16.92689370
_cell_length_c   16.93044485
_cell_angle_alpha   89.99332611
_cell_angle_beta   89.99794278
_cell_angle_gamma   90.02928920
_symmetry_Int_Tables_number   1
_chemical_formula_structural   V85Zn86O256
_chemical_formula_sum   'V85 Zn86 O256'
_cell_volume   4855.63635493
_cell_formula_units_Z   1
loop_
 _symmetry_equiv_pos_site_id
 _symmetry_equiv_pos_as_xyz
  1  'x, y, z'
loop_
 _atom_site_type_symbol
 _atom_site_label
 _atom_site_symmetry_multiplicity
 _atom_site_fract_x
 _atom_site_fract_y
 _atom_site_fract_z
 _atom_site_occupancy
  V  V0  1  -0.00580731  0.61799358  0.13374479  1
  V  V1  1  0.24733509  0.74216871  0.00194489  1
  V  V2  1  0.75169740  0.75213319  0.49597390  1
  V  V3  1  -0.00320053  0.12513564  0.11707301  1
  V  V4  1  0.74804425  0.37682317  0.12473668  1
  V  V5  1  0.42116160  0.06780040  0.80386978  1
  V  V6  1  0.25171702  0.49806351  0.24399373  1
  V  V7  1  0.74978669  0.12706311  0.87246564  1
  V  V8  1  0.87453907  0.37311037  -0.00284042  1
  V  V9  1  0.61951173  0.75323341  0.87519907  1
  V  V10  1  0.87918791  0.88720055  0.49923022  1
  V  V11  1  0.12291871  0.24870184  0.38153982  1
  V  V12  1  0.49942470  0.37315129  0.37335843  1
  V  V13  1  0.12946341  0.37078744  0.25034939  1
  V  V14  1  0.49672914  0.37614785  0.87484371  1
  V  V15  1  0.12323693  0.62752149  0.50022222  1
  V  V16  1  0.00076498  0.50116405  0.50292457  1
  V  V17  1  0.37611207  0.49995153  0.37455355  1
  V  V18  1  0.50079862  0.62909095  0.12745541  1
  V  V19  1  0.75513914  0.12406741  0.36160959  1
  V  V20  1  0.87861661  0.12716332  0.74839828  1
  V  V21  1  0.88034773  0.00159611  0.88308594  1
  V  V22  1  0.12203553  0.11005777  0.50275974  1
  V  V23  1  0.38124061  0.75647490  0.12661931  1
  V  V24  1  0.49775308  0.49949630  -0.00011682  1
  V  V25  1  0.48960458  0.12442565  0.62418094  1
  V  V26  1  0.24824717  0.62666715  0.37213983  1
  V  V27  1  0.00222983  0.87780134  0.88546765  1
  V  V28  1  0.62078619  0.24971554  0.36938908  1
  V  V29  1  0.12398270  0.74000699  0.87563166  1
  V  V30  1  0.38095653  0.74433194  0.62328774  1
  V  V31  1  0.00517882  0.11384904  0.62212445  1
  V  V32  1  0.75181812  0.50200451  0.74792740  1
  V  V33  1  0.87566959  0.50525139  0.37422539  1
  V  V34  1  0.12437204  0.49369967  0.12567102  1
  V  V35  1  0.24484264  0.88177440  0.62483847  1
  V  V36  1  0.38180211  0.62892850  0.24876491  1
  V  V37  1  0.62412739  0.00179640  0.62672301  1
  V  V38  1  0.62351485  0.37394493  0.74871659  1
  V  V39  1  0.37668073  0.00174008  0.36809428  1
  V  V40  1  0.75487314  0.62955444  0.87057721  1
  V  V41  1  0.87025889  0.74455284  0.12969980  1
  V  V42  1  0.87503927  0.00366327  0.35824157  1
  V  V43  1  0.23473925  0.13436045  0.87516487  1
  V  V44  1  0.00041421  0.37409864  0.37730883  1
  V  V45  1  0.87624164  0.74832177  0.62876327  1
  V  V46  1  0.50164030  0.73771801  0.74512202  1
  V  V47  1  0.37090667  0.36619569  0.01278874  1
  V  V48  1  0.24425880  0.87473004  0.12927300  1
  V  V49  1  0.75360510  0.62846184  0.37024432  1
  V  V50  1  0.61901043  0.88096819  0.23893107  1
  V  V51  1  0.37444053  0.87534469  0.49656431  1
  V  V52  1  0.37528438  0.87856151  -0.01862422  1
  V  V53  1  0.36798676  0.25877707  0.63117663  1
  V  V54  1  0.23742974  -0.00149831  0.24937013  1
  V  V55  1  0.49876431  0.50269733  0.50810608  1
  V  V56  1  0.62455138  0.62791858  -0.00098647  1
  V  V57  1  0.50148903  0.86698789  0.36811209  1
  V  V58  1  0.75484165  0.50365065  0.24932350  1
  V  V59  1  0.62548386  0.50390221  0.12553304  1
  V  V60  1  0.12041761  0.87575781  0.74740901  1
  V  V61  1  0.23998612  0.24712835  0.01243295  1
  V  V62  1  0.35738687  0.50529960  0.87464998  1
  V  V63  1  0.75240643  0.89211477  0.12944595  1
  V  V64  1  0.74957562  0.24946637  0.50126365  1
  V  V65  1  0.75090222  0.87681557  0.62210316  1
  V  V66  1  0.62143070  0.87380409  0.74900646  1
  V  V67  1  0.00398591  0.36566069  0.87045748  1
  V  V68  1  0.00559180  0.87943064  0.37335481  1
  V  V69  1  0.24772372  0.00050016  0.75809423  1
  V  V70  1  0.87459345  0.37562944  0.50262762  1
  V  V71  1  0.00385538  0.75279706  0.24916295  1
  V  V72  1  0.74480157  0.25016609  -0.00107779  1
  V  V73  1  0.11943568  0.00172981  0.10241542  1
  V  V74  1  0.87850290  0.50546619  0.86932546  1
  V  V75  1  0.24863022  0.75249226  0.49906338  1
  V  V76  1  0.13976123  0.49623845  0.63008191  1
  V  V77  1  0.62247060  0.62698564  0.50381290  1
  V  V78  1  -0.00036422  0.49776680  0.00219521  1
  V  V79  1  -0.00198036  0.62478202  0.63569140  1
  V  V80  1  0.14148817  0.37163769  0.75072480  1
  V  V81  1  0.62582509  0.12521088  0.49854491  1
  V  V82  1  0.37953345  0.13984924  0.24074084  1
  V  V83  1  0.24996365  0.12631236  0.37723353  1
  V  V84  1  0.50049167  -0.00057842  0.49669601  1
  Zn  Zn85  1  0.62902375  0.10035455  0.01680202  1
  Zn  Zn86  1  0.61990211  0.37326537  0.24630832  1
  Zn  Zn87  1  0.12565818  0.75424835  0.36836109  1
  Zn  Zn88  1  0.49831643  0.24590931  0.75211222  1
  Zn  Zn89  1  0.24749239  0.25759842  0.50722035  1
  Zn  Zn90  1  0.62026075  0.24919673  0.87575084  1
  Zn  Zn91  1  0.49484111  -0.00064748  0.00234670  1
  Zn  Zn92  1  0.87890219  0.24969261  0.62481571  1
  Zn  Zn93  1  0.36333803  0.61599028  0.74792788  1
  Zn  Zn94  1  0.00720208  0.24937800  0.74717286  1
  Zn  Zn95  1  0.62312588  0.74996031  0.36860217  1
  Zn  Zn96  1  0.87824657  0.87565060  0.00457530  1
  Zn  Zn97  1  0.36839395  0.37683627  0.50362602  1
  Zn  Zn98  1  -0.00659693  0.74823329  0.75633366  1
  Zn  Zn99  1  0.12806318  0.61781387  -0.00158473  1
  Zn  Zn100  1  -0.00641714  0.23827976  0.25336887  1
  Zn  Zn101  1  0.50851525  0.12778565  0.12411751  1
  Zn  Zn102  1  0.61837472  0.50439506  0.62867233  1
  Zn  Zn103  1  0.74753147  0.37588408  0.62487419  1
  Zn  Zn104  1  0.75131606  0.75146042  0.00220011  1
  Zn  Zn105  1  0.87079222  0.24144632  0.13430314  1
  Zn  Zn106  1  0.75316861  -0.00075659  0.74893337  1
  Zn  Zn107  1  0.18093124  0.18002296  0.19023806  1
  Zn  Zn108  1  0.18711284  0.18353809  0.69074246  1
  Zn  Zn109  1  0.18567819  0.68336833  0.18473712  1
  Zn  Zn110  1  0.18822989  0.68979546  0.68762108  1
  Zn  Zn111  1  0.68220622  0.18919100  0.18526666  1
  Zn  Zn112  1  0.68598041  0.18784187  0.68806297  1
  Zn  Zn113  1  0.68462958  0.69454509  0.19208535  1
  Zn  Zn114  1  0.69094116  0.68724069  0.68606657  1
  Zn  Zn115  1  0.30950033  0.31386454  0.31841908  1
  Zn  Zn116  1  0.31753392  0.30880845  0.81621630  1
  Zn  Zn117  1  0.31202466  0.81284015  0.30866147  1
  Zn  Zn118  1  0.30007150  0.78312931  0.80161257  1
  Zn  Zn119  1  0.81104590  0.31292983  0.31274454  1
  Zn  Zn120  1  0.81436403  0.31284648  0.81103314  1
  Zn  Zn121  1  0.81551882  0.81598741  0.30628762  1
  Zn  Zn122  1  0.81205582  0.81526926  0.81188796  1
  Zn  Zn123  1  0.19046140  0.43835900  0.43854873  1
  Zn  Zn124  1  0.18709096  0.42660229  0.94003865  1
  Zn  Zn125  1  0.18714256  0.93773094  0.43477980  1
  Zn  Zn126  1  0.19548866  0.92962809  0.93298154  1
  Zn  Zn127  1  0.68551294  0.43870695  0.43819500  1
  Zn  Zn128  1  0.68560016  0.43952211  0.93465648  1
  Zn  Zn129  1  0.68834251  0.94023881  0.43064863  1
  Zn  Zn130  1  0.69718290  0.93209075  0.93967411  1
  Zn  Zn131  1  0.31172483  0.06168844  0.05925698  1
  Zn  Zn132  1  0.30976314  0.06124633  0.56163385  1
  Zn  Zn133  1  0.31382465  0.55927851  0.06273047  1
  Zn  Zn134  1  0.31301220  0.56438531  0.55972715  1
  Zn  Zn135  1  0.81640869  0.06684799  0.06068925  1
  Zn  Zn136  1  0.81302421  0.06466565  0.56173057  1
  Zn  Zn137  1  0.81367742  0.56447351  0.05798627  1
  Zn  Zn138  1  0.81184021  0.56543428  0.56170226  1
  Zn  Zn139  1  0.43992442  0.43513204  0.18829790  1
  Zn  Zn140  1  0.43332317  0.43909834  0.69230949  1
  Zn  Zn141  1  0.43679985  0.94477067  0.18310855  1
  Zn  Zn142  1  0.43843663  0.92677001  0.68459894  1
  Zn  Zn143  1  0.93117010  0.41549965  0.19560807  1
  Zn  Zn144  1  0.94023173  0.43750267  0.68763844  1
  Zn  Zn145  1  0.94317474  0.93710189  0.18514229  1
  Zn  Zn146  1  0.93758760  0.93840116  0.69269134  1
  Zn  Zn147  1  0.05667551  0.06339531  0.31038118  1
  Zn  Zn148  1  0.06343172  0.05951537  0.81150586  1
  Zn  Zn149  1  0.06183502  0.56245166  0.31182056  1
  Zn  Zn150  1  0.06539278  0.55664516  0.81189039  1
  Zn  Zn151  1  0.56399843  0.06097321  0.30420204  1
  Zn  Zn152  1  0.58952477  0.03195432  0.85025011  1
  Zn  Zn153  1  0.56549607  0.56075409  0.31640746  1
  Zn  Zn154  1  0.56104021  0.56267557  0.81354728  1
  Zn  Zn155  1  0.43481831  0.18999536  0.44034180  1
  Zn  Zn156  1  0.43949995  0.18932635  0.94673322  1
  Zn  Zn157  1  0.43750917  0.68588901  0.43778431  1
  Zn  Zn158  1  0.43749951  0.69020505  0.93745687  1
  Zn  Zn159  1  0.93818968  0.18401798  0.44087148  1
  Zn  Zn160  1  0.93900316  0.18716069  0.94256959  1
  Zn  Zn161  1  0.93715424  0.69223422  0.43925769  1
  Zn  Zn162  1  0.94004258  0.68734726  0.94540852  1
  Zn  Zn163  1  0.06370654  0.30809179  0.06318382  1
  Zn  Zn164  1  0.06355553  0.30929634  0.56813874  1
  Zn  Zn165  1  0.06356813  0.81098420  0.06557002  1
  Zn  Zn166  1  0.06024591  0.81469129  0.56107343  1
  Zn  Zn167  1  0.55757815  0.30451959  0.06482975  1
  Zn  Zn168  1  0.55868493  0.31364239  0.56257606  1
  Zn  Zn169  1  0.55970081  0.81944242  0.05952698  1
  Zn  Zn170  1  0.56334516  0.81216786  0.55898245  1
  O  O171  1  0.12033014  0.10750082  0.12314888  1
  O  O172  1  0.11449703  0.12683137  0.61789323  1
  O  O173  1  0.11631370  0.60850066  0.12553939  1
  O  O174  1  0.12034081  0.61860326  0.62096936  1
  O  O175  1  0.62745764  0.11610933  0.12783464  1
  O  O176  1  0.61391321  0.12017481  0.62148130  1
  O  O177  1  0.61987038  0.62408259  0.12148718  1
  O  O178  1  0.63265746  0.62385293  0.60883123  1
  O  O179  1  0.38230549  0.38298251  0.37619232  1
  O  O180  1  0.38062036  0.38444299  0.88265270  1
  O  O181  1  0.38019704  0.88219707  0.37596193  1
  O  O182  1  0.36190427  0.86143144  0.88549225  1
  O  O183  1  0.87843322  0.38396392  0.38736096  1
  O  O184  1  0.88072189  0.38207150  0.88219746  1
  O  O185  1  0.87896665  0.88618917  0.37944010  1
  O  O186  1  0.88272885  0.88294884  0.87500600  1
  O  O187  1  0.25615648  0.00487438  0.36852995  1
  O  O188  1  0.25054552  0.00698346  0.86506929  1
  O  O189  1  0.25398728  0.50818192  0.36388033  1
  O  O190  1  0.25899136  0.50067725  0.88387085  1
  O  O191  1  0.76402313  0.00992333  0.37704870  1
  O  O192  1  0.76136209  0.00854126  0.87121823  1
  O  O193  1  0.75402404  0.50704543  0.36852963  1
  O  O194  1  0.75689347  0.50681648  0.86570752  1
  O  O195  1  0.24213806  0.50260034  0.13652239  1
  O  O196  1  0.23800606  0.50703623  0.62557814  1
  O  O197  1  0.23909686  0.99482203  0.12927283  1
  O  O198  1  0.25505179  0.98784425  0.63324296  1
  O  O199  1  0.74679323  0.49900117  0.13092518  1
  O  O200  1  0.75263160  0.50201739  0.63928273  1
  O  O201  1  0.75549070  0.99025450  0.12260415  1
  O  O202  1  0.74229410  0.99580301  0.62537897  1
  O  O203  1  0.01889301  0.38313526  0.26346584  1
  O  O204  1  0.00559021  0.37346522  0.75734441  1
  O  O205  1  -0.00352175  0.86554241  0.25929902  1
  O  O206  1  0.00645729  0.87188010  0.75804480  1
  O  O207  1  0.50387120  0.38451036  0.26720486  1
  O  O208  1  0.50738322  0.37765847  0.75844788  1
  O  O209  1  0.50924259  0.87978919  0.25318604  1
  O  O210  1  0.51752534  0.86647811  0.74361993  1
  O  O211  1  0.48068678  0.12219316  0.25632499  1
  O  O212  1  0.49214069  0.12040426  0.74467566  1
  O  O213  1  0.48832881  0.61898271  0.24782443  1
  O  O214  1  0.49310051  0.63446793  0.75017419  1
  O  O215  1  1.00743540  0.12588553  0.23137245  1
  O  O216  1  0.99728459  0.12710697  0.74158033  1
  O  O217  1  0.99959859  0.62797962  0.23958497  1
  O  O218  1  1.00287907  0.62553516  0.73869802  1
  O  O219  1  0.36528173  0.26180880  -0.00212389  1
  O  O220  1  0.37401360  0.25122883  0.51546084  1
  O  O221  1  0.36670281  0.75506019  0.00821753  1
  O  O222  1  0.36948802  0.75491465  0.50359250  1
  O  O223  1  0.86466953  0.25923592  0.00375861  1
  O  O224  1  0.86708290  0.25845217  0.49881072  1
  O  O225  1  0.87518402  0.75306591  0.01522932  1
  O  O226  1  0.86883137  0.76021939  0.50815171  1
  O  O227  1  0.12504805  0.24267436  0.49152357  1
  O  O228  1  0.14239048  0.26357788  0.99341613  1
  O  O229  1  0.12994345  0.74179400  0.49827891  1
  O  O230  1  0.13024057  0.74529541  0.99670459  1
  O  O231  1  0.63151820  0.24544248  0.49384316  1
  O  O232  1  0.63990431  0.25949093  0.99440735  1
  O  O233  1  0.63350619  0.74495508  0.49411726  1
  O  O234  1  0.62456420  0.74696670  0.99071558  1
  O  O235  1  0.50497794  0.24093704  0.13392435  1
  O  O236  1  0.49266995  0.24032659  0.62766159  1
  O  O237  1  0.48842679  0.74579175  0.12004044  1
  O  O238  1  0.49309482  0.75259134  0.62833756  1
  O  O239  1  1.00167501  0.23714767  0.12664370  1
  O  O240  1  0.99659828  0.23801330  0.62722522  1
  O  O241  1  0.99516789  0.74070471  0.13102648  1
  O  O242  1  0.99312474  0.74212886  0.62563331  1
  O  O243  1  0.00617887  0.25385472  0.37468204  1
  O  O244  1  -0.00426705  0.26306700  0.87410759  1
  O  O245  1  -0.00166176  0.75776453  0.36594718  1
  O  O246  1  0.00537787  0.75632897  0.87592991  1
  O  O247  1  0.50915801  0.25904276  0.38353245  1
  O  O248  1  0.49893305  0.26393270  0.87328259  1
  O  O249  1  0.49646092  0.76423744  0.37639818  1
  O  O250  1  0.51050496  0.74583975  0.86397696  1
  O  O251  1  0.24234851  0.12469374  0.49002220  1
  O  O252  1  0.25600370  0.13733599  0.98723228  1
  O  O253  1  0.23961344  0.63036674  0.49465928  1
  O  O254  1  0.24752574  0.63745550  1.00998744  1
  O  O255  1  0.74515786  0.13357175  0.49370834  1
  O  O256  1  0.74763499  0.13315287  0.99200926  1
  O  O257  1  0.74516061  0.63053841  0.48893862  1
  O  O258  1  0.74233020  0.62539693  0.98694987  1
  O  O259  1  0.26272049  0.36272385  -0.00192257  1
  O  O260  1  0.25435442  0.37161443  0.49759294  1
  O  O261  1  0.25694404  0.86569585  0.01232461  1
  O  O262  1  0.25387553  0.87275647  0.50412821  1
  O  O263  1  0.75610415  0.37272454  0.00191450  1
  O  O264  1  0.75727710  0.36985121  0.50120203  1
  O  O265  1  0.75335224  0.87068976  0.01614599  1
  O  O266  1  0.75585522  0.87084554  0.50313205  1
  O  O267  1  0.13367201  0.49507193  0.24598931  1
  O  O268  1  0.12467968  0.49274322  0.73689308  1
  O  O269  1  0.13650425  1.00095208  0.25131404  1
  O  O270  1  0.13371164  0.98511316  0.75347719  1
  O  O271  1  0.63662436  0.50003171  0.24390766  1
  O  O272  1  0.63249387  0.49390295  0.74949707  1
  O  O273  1  0.63071962  0.97983191  0.26017236  1
  O  O274  1  0.62956899  0.98881950  0.74847684  1
  O  O275  1  0.36345626  0.00320524  0.26016314  1
  O  O276  1  0.36717335  -0.00015212  0.74426626  1
  O  O277  1  0.36783992  0.50565040  0.25268081  1
  O  O278  1  0.37331147  0.50079787  0.76763274  1
  O  O279  1  0.87429512  -0.00342822  0.26008655  1
  O  O280  1  0.87416606  0.01209205  0.75831530  1
  O  O281  1  0.86197103  0.49295546  0.25701767  1
  O  O282  1  0.86897486  0.49481308  0.76177819  1
  O  O283  1  0.12093761  0.36665583  0.37286573  1
  O  O284  1  0.11666606  0.38521211  0.85886667  1
  O  O285  1  0.11002811  0.87387243  0.37946609  1
  O  O286  1  0.11741815  0.86765744  0.86918014  1
  O  O287  1  0.61771410  0.36718756  0.37712702  1
  O  O288  1  0.61675356  0.37610869  0.86616457  1
  O  O289  1  0.61534834  0.87328246  0.36979741  1
  O  O290  1  0.63761043  0.85968532  0.86319066  1
  O  O291  1  0.36543158  0.12345509  0.14097715  1
  O  O292  1  0.38598717  0.12856255  0.61899213  1
  O  O293  1  0.38067466  0.63148976  0.13103097  1
  O  O294  1  0.36949906  0.64054683  0.62558981  1
  O  O295  1  0.88919775  0.12545943  0.12440338  1
  O  O296  1  0.88482416  0.12479871  0.63141488  1
  O  O297  1  0.88250362  0.63040908  0.12223093  1
  O  O298  1  0.88605015  0.63559144  0.61595621  1
  O  O299  1  0.24034734  0.24152289  0.11204385  1
  O  O300  1  0.26566941  0.23971314  0.62605656  1
  O  O301  1  0.25345934  0.75721429  0.12197698  1
  O  O302  1  0.25638718  0.76326510  0.61478433  1
  O  O303  1  0.75193453  0.26156171  0.11883334  1
  O  O304  1  0.75194815  0.25061569  0.61214471  1
  O  O305  1  0.75946157  0.74958550  0.12422540  1
  O  O306  1  0.75715921  0.75517897  0.61658737  1
  O  O307  1  0.24068427  0.23999590  0.37851396  1
  O  O308  1  0.25043686  0.23692017  0.87598917  1
  O  O309  1  0.24760400  0.74586983  0.37998605  1
  O  O310  1  0.23307543  0.76163389  0.89313403  1
  O  O311  1  0.74605813  0.24715431  0.38573218  1
  O  O312  1  0.75412916  0.24376011  0.88253887  1
  O  O313  1  0.75521526  0.74413111  0.37825397  1
  O  O314  1  0.74624811  0.74267320  0.87617481  1
  O  O315  1  0.00322543  0.12740243  0.01490929  1
  O  O316  1  0.00656783  0.12493504  0.51302698  1
  O  O317  1  0.00275104  0.61403428  0.01337853  1
  O  O318  1  0.01087415  0.62320578  0.50605981  1
  O  O319  1  0.50950787  0.11991975  -0.00417156  1
  O  O320  1  0.50563615  0.11862235  0.50557595  1
  O  O321  1  0.50545062  0.62011890  0.00605170  1
  O  O322  1  0.51059399  0.61692044  0.49259547  1
  O  O323  1  0.49706114  0.38526081  0.49110491  1
  O  O324  1  0.49068813  0.37862673  0.99470735  1
  O  O325  1  0.49508776  0.88141996  0.49007286  1
  O  O326  1  0.48010482  0.87455596  0.99734658  1
  O  O327  1  0.99437516  0.37968422  0.49707770  1
  O  O328  1  0.99238950  0.37844370  0.99459208  1
  O  O329  1  0.98874825  0.86880243  0.48864470  1
  O  O330  1  0.99934967  0.87201360  0.98917094  1
  O  O331  1  0.49537506  0.49518569  0.38432622  1
  O  O332  1  0.49848239  0.49082171  0.88348061  1
  O  O333  1  0.49195841  0.99311270  0.37688641  1
  O  O334  1  0.47693677  1.00667609  0.86038960  1
  O  O335  1  0.99546115  0.49642215  0.38333159  1
  O  O336  1  0.99318710  0.49384825  0.88016473  1
  O  O337  1  0.98686878  0.99306178  0.37163114  1
  O  O338  1  0.99263852  0.99062161  0.86962826  1
  O  O339  1  0.01256337  0.00450800  0.12232328  1
  O  O340  1  -0.00210536  0.01435036  0.62937004  1
  O  O341  1  0.00291837  0.50086701  0.12450964  1
  O  O342  1  0.00563232  0.50857154  0.61962349  1
  O  O343  1  0.49152853  0.01222156  0.11702901  1
  O  O344  1  0.50381053  0.00432784  0.61824170  1
  O  O345  1  0.50546131  0.50700295  0.11958650  1
  O  O346  1  0.49618111  0.49827136  0.61246261  1
  O  O347  1  0.23845555  0.38346491  0.25740365  1
  O  O348  1  0.23976340  0.37438566  0.75653825  1
  O  O349  1  0.25202150  0.88224878  0.23764650  1
  O  O350  1  0.24227333  0.87808684  0.74257094  1
  O  O351  1  0.74514019  0.38471643  0.23961443  1
  O  O352  1  0.74292190  0.38314865  0.74986597  1
  O  O353  1  0.74265240  0.87309970  0.23469979  1
  O  O354  1  0.74184319  0.87342886  0.73784810  1
  O  O355  1  0.25411700  0.11777980  0.26168519  1
  O  O356  1  0.24565617  0.11442318  0.76177278  1
  O  O357  1  0.25887149  0.61821634  0.25204641  1
  O  O358  1  0.26824592  0.67440622  0.76205836  1
  O  O359  1  0.75797882  0.14157601  0.26398422  1
  O  O360  1  0.76099755  0.12562224  0.75394503  1
  O  O361  1  0.74647118  0.61992227  0.26244134  1
  O  O362  1  0.74655892  0.61838414  0.76183229  1
  O  O363  1  0.36616456  0.11926983  0.37246583  1
  O  O364  1  0.36903008  0.12825264  0.86745419  1
  O  O365  1  0.36934221  0.62109242  0.36656908  1
  O  O366  1  0.37923494  0.60663497  0.88181535  1
  O  O367  1  0.87141650  0.11155143  0.37965878  1
  O  O368  1  0.87166670  0.12096570  0.86933645  1
  O  O369  1  0.86723699  0.61658691  0.38298464  1
  O  O370  1  0.86827357  0.61774850  0.88016792  1
  O  O371  1  0.11879720  0.38468038  0.13616541  1
  O  O372  1  0.12265474  0.38864787  0.63429547  1
  O  O373  1  0.13097547  0.88815625  0.12149041  1
  O  O374  1  0.13269554  0.86866891  0.63313373  1
  O  O375  1  0.63611139  0.38454875  0.12114519  1
  O  O376  1  0.62575618  0.38043728  0.63390077  1
  O  O377  1  0.63433703  0.87452993  0.13105314  1
  O  O378  1  0.63124701  0.88123387  0.62757817  1
  O  O379  1  0.12487424  0.25621244  0.26266325  1
  O  O380  1  0.12569974  0.26786120  0.74186157  1
  O  O381  1  0.11039390  0.74306349  0.24941012  1
  O  O382  1  0.11984062  0.75959079  0.75936536  1
  O  O383  1  0.63301821  0.25568672  0.26671226  1
  O  O384  1  0.62183740  0.26241381  0.75104244  1
  O  O385  1  0.62648253  0.77020232  0.25429631  1
  O  O386  1  0.61921077  0.75197552  0.75222767  1
  O  O387  1  0.36634976  0.23744886  0.25524341  1
  O  O388  1  0.37979919  0.25167038  0.73664565  1
  O  O389  1  0.37005536  0.74022700  0.23928665  1
  O  O390  1  0.39433351  0.76812112  0.73549875  1
  O  O391  1  0.89091278  0.29197318  0.23669278  1
  O  O392  1  0.87753637  0.23811205  0.74836849  1
  O  O393  1  0.88629300  0.75158734  0.23794996  1
  O  O394  1  0.87468419  0.75574455  0.73343108  1
  O  O395  1  0.38198410  0.50369912  0.49196334  1
  O  O396  1  0.37785674  0.48981581  0.99376266  1
  O  O397  1  0.37803837  0.99597757  0.48685244  1
  O  O398  1  0.36632619  0.98192198  0.99544140  1
  O  O399  1  0.87987855  0.49401354  0.49637260  1
  O  O400  1  0.87800524  0.49360237  0.98737995  1
  O  O401  1  0.87193912  0.98931231  0.49577007  1
  O  O402  1  0.87380355  0.99809469  0.98680365  1
  O  O403  1  0.13032388  -0.00315746  0.00486693  1
  O  O404  1  0.12623230  0.01071243  0.49781457  1
  O  O405  1  0.11977625  0.49474150  0.00950571  1
  O  O406  1  0.12107434  0.50753982  0.51102122  1
  O  O407  1  0.61083519  -0.00072446  -0.03808199  1
  O  O408  1  0.61998913  0.00652691  0.50345043  1
  O  O409  1  0.61951547  0.50763448  0.00522260  1
  O  O410  1  0.61732679  0.50825087  0.50199678  1
  O  O411  1  0.37657036  0.37990128  0.11116756  1
  O  O412  1  0.37921870  0.36222157  0.62502079  1
  O  O413  1  0.36552927  0.86692772  0.12447232  1
  O  O414  1  0.36832389  0.86823368  0.61299599  1
  O  O415  1  0.86131045  0.38629914  0.10743020  1
  O  O416  1  0.87348097  0.37510054  0.61343125  1
  O  O417  1  0.86497762  0.87003345  0.12693157  1
  O  O418  1  0.87177328  0.87252316  0.61737140  1
  O  O419  1  0.12853623  0.12994969  0.38147083  1
  O  O420  1  0.13587931  0.12476739  0.87429001  1
  O  O421  1  0.12956400  0.62574181  0.38387591  1
  O  O422  1  0.11724040  0.63537080  0.87773846  1
  O  O423  1  0.63232884  0.13069289  0.37768971  1
  O  O424  1  0.64464745  0.13309335  0.86294275  1
  O  O425  1  0.63442154  0.62848915  0.38328133  1
  O  O426  1  0.63188016  0.63404116  0.87785094  1
