# generated using pymatgen
data_V85Zn86O256
_symmetry_space_group_name_H-M   'P 1'
_cell_length_a   16.96207866
_cell_length_b   16.96301024
_cell_length_c   16.95566503
_cell_angle_alpha   90.06792727
_cell_angle_beta   89.99385329
_cell_angle_gamma   90.03605221
_symmetry_Int_Tables_number   1
_chemical_formula_structural   V85Zn86O256
_chemical_formula_sum   'V85 Zn86 O256'
_cell_volume   4878.61371047
_cell_formula_units_Z   1
loop_
 _symmetry_equiv_pos_site_id
 _symmetry_equiv_pos_as_xyz
  1  'x, y, z'
loop_
 _atom_site_type_symbol
 _atom_site_label
 _atom_site_symmetry_multiplicity
 _atom_site_fract_x
 _atom_site_fract_y
 _atom_site_fract_z
 _atom_site_occupancy
  V  V0  1  0.75416285  0.00389202  0.24650531  1
  V  V1  1  0.49933529  0.62719876  0.62812422  1
  V  V2  1  0.13357597  0.37008817  0.25738055  1
  V  V3  1  0.36430364  0.00101645  0.37097918  1
  V  V4  1  0.63303227  0.38189051  0.74784644  1
  V  V5  1  0.62481718  0.87532167  0.76025571  1
  V  V6  1  0.74855366  0.25129542  0.50299807  1
  V  V7  1  0.12562366  0.49088946  0.12124765  1
  V  V8  1  0.12637899  0.12619970  0.00129947  1
  V  V9  1  0.62587696  -0.00026309  0.12722374  1
  V  V10  1  0.75471381  0.12397675  0.86763929  1
  V  V11  1  0.69086153  0.56002134  0.19012018  1
  V  V12  1  0.87232373  0.74833799  0.62465120  1
  V  V13  1  0.24054821  0.49880392  0.74014054  1
  V  V14  1  0.75668285  0.63811478  0.88598941  1
  V  V15  1  0.50150652  -0.00335353  -0.00068710  1
  V  V16  1  0.87845951  0.00281870  0.86746218  1
  V  V17  1  0.87307842  0.24553814  0.63130662  1
  V  V18  1  0.62529301  0.12391154  0.00024337  1
  V  V19  1  0.00819763  0.75305503  0.74934953  1
  V  V20  1  0.12756954  0.25415906  0.86858824  1
  V  V21  1  0.37856107  0.62579146  0.75205237  1
  V  V22  1  0.37664941  0.87391838  -0.00128158  1
  V  V23  1  0.62399089  0.86851876  0.25194642  1
  V  V24  1  0.25506189  0.50439655  0.24451825  1
  V  V25  1  0.24701557  0.87274098  0.63358286  1
  V  V26  1  0.37473802  0.25436553  0.13180903  1
  V  V27  1  0.86971229  0.49745146  0.36805297  1
  V  V28  1  0.37357181  0.87774560  0.50015541  1
  V  V29  1  0.59733923  0.72200402  0.90569120  1
  V  V30  1  0.74396030  0.62158064  0.37489710  1
  V  V31  1  0.38004462  0.37746581  -0.00213012  1
  V  V32  1  0.38148764  0.74702104  0.13585872  1
  V  V33  1  0.49583967  0.12806551  0.62239936  1
  V  V34  1  0.12068699  0.75347309  0.37551833  1
  V  V35  1  0.37591661  0.75024064  0.62373251  1
  V  V36  1  0.00056135  0.24383961  0.75146242  1
  V  V37  1  0.74652444  0.75187001  0.49221245  1
  V  V38  1  0.00334461  0.62126836  0.62315247  1
  V  V39  1  0.87790883  -0.00297885  0.37105765  1
  V  V40  1  0.00269464  -0.00036117  0.00101009  1
  V  V41  1  0.12106108  0.62240384  0.00021190  1
  V  V42  1  0.62171858  0.25060380  0.87506460  1
  V  V43  1  0.00538363  0.37871617  0.87639303  1
  V  V44  1  0.13053788  0.88210509  0.25262520  1
  V  V45  1  0.38040761  -0.00180869  0.87458253  1
  V  V46  1  0.00190109  0.50176464  0.49495560  1
  V  V47  1  0.36364649  0.12038654  0.24837518  1
  V  V48  1  0.12663530  0.13194291  0.49617462  1
  V  V49  1  0.63025513  0.36564509  0.24474700  1
  V  V50  1  0.75349273  0.12610053  0.37201506  1
  V  V51  1  0.74716831  0.87389127  0.62427295  1
  V  V52  1  0.37577377  0.12582324  0.74994173  1
  V  V53  1  0.87462966  0.62307592  0.24818225  1
  V  V54  1  0.38245096  0.49950418  0.87841124  1
  V  V55  1  0.62330678  0.63011939  0.50060701  1
  V  V56  1  0.87594532  0.87145261  -0.00207803  1
  V  V57  1  0.86856172  0.74987922  0.12050289  1
  V  V58  1  0.12408730  -0.00513298  0.62855690  1
  V  V59  1  0.87418122  0.37421691  0.49926782  1
  V  V60  1  -0.00328595  0.12537237  0.12982827  1
  V  V61  1  0.50189404  0.75611702  0.75448042  1
  V  V62  1  -0.00622325  0.11880207  0.62612837  1
  V  V63  1  0.13115335  0.62379985  0.49787028  1
  V  V64  1  0.86881162  0.61617576  0.74561673  1
  V  V65  1  0.37364270  0.50666456  0.37655439  1
  V  V66  1  0.62449706  0.00133060  0.62425743  1
  V  V67  1  0.61715583  0.24919114  0.37624310  1
  V  V68  1  0.49871686  0.25630742  0.75284717  1
  V  V69  1  0.24802001  0.75163635  0.00553788  1
  V  V70  1  -0.00142817  0.75689062  0.25226234  1
  V  V71  1  0.49900281  0.49613946  0.50161204  1
  V  V72  1  0.25178916  0.25783626  0.00224203  1
  V  V73  1  0.87424136  0.24878313  0.12965891  1
  V  V74  1  0.87699280  0.49739027  0.86682728  1
  V  V75  1  0.88136132  0.87354323  0.49383639  1
  V  V76  1  0.50017462  0.12825497  0.13526547  1
  V  V77  1  0.00041260  0.25006935  0.25633176  1
  V  V78  1  0.50144915  0.87254298  0.37125902  1
  V  V79  1  0.88151007  0.37951178  0.00206257  1
  V  V80  1  0.00334036  0.62196172  0.12487709  1
  V  V81  1  0.24815185  0.62328603  0.87594724  1
  V  V82  1  0.49299973  0.37175082  0.37465245  1
  V  V83  1  0.25198539  0.12597875  0.87377869  1
  V  V84  1  0.75217593  0.24908158  0.00195804  1
  Zn  Zn85  1  0.74829531  0.87026699  0.12188231  1
  Zn  Zn86  1  0.63236180  0.50522135  0.63164502  1
  Zn  Zn87  1  0.25654660  0.26854492  0.49794484  1
  Zn  Zn88  1  0.24311666  0.13573433  0.37340257  1
  Zn  Zn89  1  0.57197248  0.70334639  0.31565170  1
  Zn  Zn90  1  0.76434415  0.38779884  0.63684556  1
  Zn  Zn91  1  0.12998205  0.75826482  0.87098913  1
  Zn  Zn92  1  -0.00085103  0.37267235  0.37184611  1
  Zn  Zn93  1  0.75466522  0.00181873  0.74683565  1
  Zn  Zn94  1  0.00236196  -0.00468096  0.49546561  1
  Zn  Zn95  1  0.62287960  0.12470699  0.49941020  1
  Zn  Zn96  1  0.13041340  0.00472909  0.13245528  1
  Zn  Zn97  1  0.24942604  0.75001392  0.49884255  1
  Zn  Zn98  1  0.49854725  0.00279607  0.49774976  1
  Zn  Zn99  1  0.01051842  0.88034177  0.86859488  1
  Zn  Zn100  1  0.19246388  0.35898031  0.64359065  1
  Zn  Zn101  1  0.24396036  -0.00728797  0.75646705  1
  Zn  Zn102  1  0.25041972  0.62745422  0.37041782  1
  Zn  Zn103  1  0.36426431  0.26968881  0.62537365  1
  Zn  Zn104  1  0.54623836  0.43174629  0.92156537  1
  Zn  Zn105  1  0.25380724  0.88644893  0.12929494  1
  Zn  Zn106  1  0.74958026  0.38397737  0.12562364  1
  Zn  Zn107  1  0.18791289  0.18993897  0.18498810  1
  Zn  Zn108  1  0.18603303  0.18095083  0.68466890  1
  Zn  Zn109  1  0.18799597  0.68913670  0.18732079  1
  Zn  Zn110  1  0.18991808  0.67990554  0.68257600  1
  Zn  Zn111  1  0.68854303  0.18760615  0.18930330  1
  Zn  Zn112  1  0.68562629  0.18798432  0.68805778  1
  Zn  Zn113  1  0.49505557  0.63000021  0.15149259  1
  Zn  Zn114  1  0.68549192  0.68937461  0.69480931  1
  Zn  Zn115  1  0.31093565  0.30974191  0.31536091  1
  Zn  Zn116  1  0.31248195  0.31981695  0.80677959  1
  Zn  Zn117  1  0.30780425  0.81300187  0.31603614  1
  Zn  Zn118  1  0.31441774  0.81093744  0.81642225  1
  Zn  Zn119  1  0.81013287  0.31120801  0.31133816  1
  Zn  Zn120  1  0.81497769  0.30928303  0.81338217  1
  Zn  Zn121  1  0.80810732  0.81255499  0.30833841  1
  Zn  Zn122  1  0.82085898  0.81463948  0.80909599  1
  Zn  Zn123  1  0.18704344  0.43631866  0.43741092  1
  Zn  Zn124  1  0.19074566  0.43901989  0.93549513  1
  Zn  Zn125  1  0.18648372  0.93846248  0.44095324  1
  Zn  Zn126  1  0.18769864  0.93625900  0.93929831  1
  Zn  Zn127  1  0.68384642  0.43736539  0.43997795  1
  Zn  Zn128  1  0.70824613  0.43787038  0.93169116  1
  Zn  Zn129  1  0.68770402  0.93863592  0.43633038  1
  Zn  Zn130  1  0.69179953  0.93365492  0.94081585  1
  Zn  Zn131  1  0.31164646  0.06460218  0.06246771  1
  Zn  Zn132  1  0.31028509  0.06305965  0.56312849  1
  Zn  Zn133  1  0.31313059  0.56289077  0.06472699  1
  Zn  Zn134  1  0.32079842  0.44470201  0.56736101  1
  Zn  Zn135  1  0.81528056  0.06218168  0.05924251  1
  Zn  Zn136  1  0.81076724  0.06151630  0.55837620  1
  Zn  Zn137  1  0.82433039  0.56303814  0.05417744  1
  Zn  Zn138  1  0.81342425  0.56038444  0.56028834  1
  Zn  Zn139  1  0.43573723  0.43417529  0.17882512  1
  Zn  Zn140  1  0.44795477  0.44439521  0.69999303  1
  Zn  Zn141  1  0.43781728  0.93707549  0.18755617  1
  Zn  Zn142  1  0.43784868  0.93910438  0.68733417  1
  Zn  Zn143  1  0.94123672  0.43707706  0.18784643  1
  Zn  Zn144  1  0.97975440  0.42062283  0.67463927  1
  Zn  Zn145  1  0.93934665  0.93666688  0.18725801  1
  Zn  Zn146  1  0.93571580  0.93386495  0.68447082  1
  Zn  Zn147  1  0.05781025  0.06463165  0.31449431  1
  Zn  Zn148  1  0.06407299  0.06403257  0.81097115  1
  Zn  Zn149  1  0.06325832  0.56231289  0.31076221  1
  Zn  Zn150  1  0.06020757  0.56562723  0.81297849  1
  Zn  Zn151  1  0.56010468  0.05815605  0.31398772  1
  Zn  Zn152  1  0.56348116  0.06318372  0.81049052  1
  Zn  Zn153  1  0.52910019  0.52466939  0.27090810  1
  Zn  Zn154  1  0.61199072  0.58185941  1.02230562  1
  Zn  Zn155  1  0.42915586  0.18919439  0.44056898  1
  Zn  Zn156  1  0.43918030  0.18721422  0.94154549  1
  Zn  Zn157  1  0.43572040  0.68711135  0.43667209  1
  Zn  Zn158  1  0.43393968  0.68433730  0.94324836  1
  Zn  Zn159  1  0.93552444  0.18178005  0.44048295  1
  Zn  Zn160  1  0.93780701  0.18698276  0.94086690  1
  Zn  Zn161  1  0.93563888  0.68705780  0.43423925  1
  Zn  Zn162  1  0.94085323  0.68735526  0.93479501  1
  Zn  Zn163  1  0.06299939  0.31038123  0.06244636  1
  Zn  Zn164  1  0.05502306  0.30965881  0.55679973  1
  Zn  Zn165  1  0.06218772  0.81284940  0.06619817  1
  Zn  Zn166  1  0.06264419  0.80973839  0.56455940  1
  Zn  Zn167  1  0.56065583  0.31185217  0.06343965  1
  Zn  Zn168  1  0.55900617  0.31335058  0.56541087  1
  Zn  Zn169  1  0.56271628  0.81189381  0.06404861  1
  Zn  Zn170  1  0.56129929  0.81500119  0.56083987  1
  O  O171  1  0.11627680  0.12703496  0.11742680  1
  O  O172  1  0.11244649  0.11627986  0.61764998  1
  O  O173  1  0.12051883  0.61777104  0.12014337  1
  O  O174  1  0.11336059  0.62961569  0.61209095  1
  O  O175  1  0.61791687  0.12175024  0.12060119  1
  O  O176  1  0.61717097  0.11762918  0.62496580  1
  O  O177  1  0.63294880  0.62001048  0.13168222  1
  O  O178  1  0.61578120  0.62887638  0.62110986  1
  O  O179  1  0.38956243  0.37994761  0.36744431  1
  O  O180  1  0.36986818  0.38714670  0.88198189  1
  O  O181  1  0.37722880  0.88163732  0.38060736  1
  O  O182  1  0.37040353  0.88429229  0.88873658  1
  O  O183  1  0.87314083  0.38267838  0.37871624  1
  O  O184  1  0.88048669  0.37966119  0.88084409  1
  O  O185  1  0.86509586  0.88313701  0.38293324  1
  O  O186  1  0.88482099  0.88339408  0.88134243  1
  O  O187  1  0.26182722  0.00524513  0.38000958  1
  O  O188  1  0.26118984  0.00922898  0.87796220  1
  O  O189  1  0.25718905  0.49853761  0.36598192  1
  O  O190  1  0.25490534  0.51212003  0.86933071  1
  O  O191  1  0.75483845  0.00795901  0.36832088  1
  O  O192  1  0.76074423  0.00766142  0.87562233  1
  O  O193  1  0.75807757  0.50948241  0.38415463  1
  O  O194  1  0.77128883  0.51106321  0.87106906  1
  O  O195  1  0.24257276  0.50231654  0.13697114  1
  O  O196  1  0.25673690  0.51300052  0.64244935  1
  O  O197  1  0.24226375  0.99925039  0.11655026  1
  O  O198  1  0.24192881  0.99054084  0.62854902  1
  O  O199  1  0.75327055  0.50532804  0.12840616  1
  O  O200  1  0.74378368  0.49642070  0.61634946  1
  O  O201  1  0.74589538  1.00172820  0.13154993  1
  O  O202  1  0.74323466  0.99488215  0.62645638  1
  O  O203  1  0.01025623  0.36728386  0.25089781  1
  O  O204  1  -0.00858967  0.35522638  0.76871999  1
  O  O205  1  0.00756937  0.86175179  0.24618517  1
  O  O206  1  -0.00434852  0.85629971  0.74540360  1
  O  O207  1  0.51887310  0.38600982  0.26202687  1
  O  O208  1  0.51224178  0.36112912  0.75427116  1
  O  O209  1  0.51086518  0.88005679  0.25747752  1
  O  O210  1  0.50910173  0.86400969  0.74037318  1
  O  O211  1  0.49380089  0.12046837  0.23850058  1
  O  O212  1  0.49537170  0.13412055  0.74509536  1
  O  O213  1  0.50306405  0.63342090  0.26671260  1
  O  O214  1  0.49606635  0.64094646  0.74162151  1
  O  O215  1  1.00669918  0.13344784  0.23778912  1
  O  O216  1  1.00038980  0.13450341  0.74296876  1
  O  O217  1  0.99597406  0.63318166  0.24289105  1
  O  O218  1  0.99284469  0.63139104  0.74014461  1
  O  O219  1  0.36823472  0.25485461  0.00437590  1
  O  O220  1  0.36836177  0.24209745  0.51458657  1
  O  O221  1  0.36845799  0.75923922  0.00520200  1
  O  O222  1  0.37306840  0.75826429  0.50647936  1
  O  O223  1  0.87378179  0.25815114  0.00984417  1
  O  O224  1  0.86826953  0.25214942  0.50842029  1
  O  O225  1  0.88950104  0.76016952  0.00770130  1
  O  O226  1  0.86674216  0.75437828  0.50384634  1
  O  O227  1  0.12003091  0.23359639  0.50259622  1
  O  O228  1  0.13340008  0.24519696  0.99269103  1
  O  O229  1  0.12194081  0.74367450  0.49046420  1
  O  O230  1  0.13372005  0.74255380  1.00302265  1
  O  O231  1  0.63269350  0.24963923  0.49387854  1
  O  O232  1  0.62991088  0.24589278  0.99250912  1
  O  O233  1  0.63177496  0.74032929  0.50368379  1
  O  O234  1  0.63225578  0.78894662  0.97325907  1
  O  O235  1  0.48864521  0.23804699  0.11770082  1
  O  O236  1  0.50257812  0.23904428  0.63561733  1
  O  O237  1  0.48718170  0.74825086  0.12288067  1
  O  O238  1  0.49618287  0.74702511  0.63028978  1
  O  O239  1  0.99392576  0.24428439  0.13168711  1
  O  O240  1  0.99146945  0.23769445  0.63255470  1
  O  O241  1  0.99780398  0.73849175  0.13368661  1
  O  O242  1  0.99371294  0.74064161  0.63048029  1
  O  O243  1  -0.00981743  0.24590935  0.35923315  1
  O  O244  1  0.00828575  0.24941501  0.87015629  1
  O  O245  1  0.00640027  0.74548675  0.36413862  1
  O  O246  1  0.00168660  0.74767583  0.85711965  1
  O  O247  1  0.51037735  0.25536170  0.38187088  1
  O  O248  1  0.51357106  0.24029436  0.86909836  1
  O  O249  1  0.49826235  0.76729606  0.38208230  1
  O  O250  1  0.49732027  0.75208277  0.86578439  1
  O  O251  1  0.23123425  0.12200663  0.50452983  1
  O  O252  1  0.24987272  0.13614703  0.98739057  1
  O  O253  1  0.23268023  0.62472965  0.49682914  1
  O  O254  1  0.24192529  0.63094382  0.99534276  1
  O  O255  1  0.74623065  0.13580031  0.49292201  1
  O  O256  1  0.74372077  0.12944648  0.99260135  1
  O  O257  1  0.74433655  0.63254437  0.49288116  1
  O  O258  1  0.75335289  0.62306867  0.98744531  1
  O  O259  1  0.25787811  0.36265610  -0.00578762  1
  O  O260  1  0.23346278  0.38336069  0.52375841  1
  O  O261  1  0.25778844  0.86616072  0.00349555  1
  O  O262  1  0.26094133  0.87424552  0.50825083  1
  O  O263  1  0.76391766  0.36583718  0.00446101  1
  O  O264  1  0.75477793  0.36206664  0.49985746  1
  O  O265  1  0.77180965  0.88456545  0.00461972  1
  O  O266  1  0.75326601  0.86687130  0.50336075  1
  O  O267  1  0.13194282  0.48908962  0.24407808  1
  O  O268  1  0.14187031  0.51442052  0.75151963  1
  O  O269  1  0.11445467  0.98430198  0.25349657  1
  O  O270  1  0.12651872  1.00501260  0.73497666  1
  O  O271  1  0.64108506  0.49135739  0.24872514  1
  O  O272  1  0.62125904  0.47950597  0.75294268  1
  O  O273  1  0.63263806  0.99665962  0.24306745  1
  O  O274  1  0.62592148  0.99599650  0.73696547  1
  O  O275  1  0.37725649  0.00867079  0.25682665  1
  O  O276  1  0.37430890  0.00482790  0.76063657  1
  O  O277  1  0.35841250  0.49026429  0.25624947  1
  O  O278  1  0.36876692  0.50991481  0.76152848  1
  O  O279  1  0.86572710  -0.00601994  0.25638784  1
  O  O280  1  0.87554198  -0.00559370  0.76327329  1
  O  O281  1  0.87936875  0.50573788  0.26006941  1
  O  O282  1  0.88809325  0.50992395  0.75388656  1
  O  O283  1  0.12033326  0.37857849  0.35944613  1
  O  O284  1  0.11872364  0.36549952  0.88068036  1
  O  O285  1  0.12731883  0.86595474  0.36653124  1
  O  O286  1  0.12356397  0.87154878  0.87514721  1
  O  O287  1  0.62188263  0.36577367  0.36781801  1
  O  O288  1  0.62894772  0.36437202  0.86622078  1
  O  O289  1  0.61462332  0.88530429  0.36576219  1
  O  O290  1  0.62409943  0.89706177  0.85753683  1
  O  O291  1  0.38174317  0.13003383  0.13120767  1
  O  O292  1  0.38272422  0.11839798  0.63684363  1
  O  O293  1  0.37681343  0.64291087  0.11746063  1
  O  O294  1  0.39058701  0.63423377  0.63001384  1
  O  O295  1  0.88538643  0.13529734  0.11825883  1
  O  O296  1  0.88561125  0.12828820  0.61829270  1
  O  O297  1  0.88523845  0.62873650  0.12853859  1
  O  O298  1  0.87961908  0.63056158  0.62911879  1
  O  O299  1  0.26075834  0.24357076  0.11233526  1
  O  O300  1  0.24485045  0.25708707  0.62810051  1
  O  O301  1  0.25794746  0.75071415  0.11549376  1
  O  O302  1  0.25695683  0.75530622  0.62219827  1
  O  O303  1  0.75918568  0.24840943  0.11989476  1
  O  O304  1  0.75755009  0.24810751  0.61843130  1
  O  O305  1  0.76982362  0.75089392  0.12529297  1
  O  O306  1  0.75255132  0.75336581  0.61548454  1
  O  O307  1  0.25033869  0.24879371  0.38397959  1
  O  O308  1  0.24413219  0.24610403  0.87643929  1
  O  O309  1  0.23898017  0.74593694  0.37835440  1
  O  O310  1  0.25178960  0.73949142  0.88623315  1
  O  O311  1  0.74342471  0.24259949  0.38090185  1
  O  O312  1  0.74426629  0.24195088  0.88131355  1
  O  O313  1  0.75579567  0.74234856  0.38634492  1
  O  O314  1  0.76897364  0.73758533  0.87745632  1
  O  O315  1  0.00531391  0.11978350  0.00904189  1
  O  O316  1  0.00712738  0.11984200  0.50833428  1
  O  O317  1  0.01352033  0.62939635  0.00731482  1
  O  O318  1  0.00253935  0.62051081  0.50422876  1
  O  O319  1  0.50521100  0.11449459  0.00829563  1
  O  O320  1  0.50235136  0.12326363  0.51038434  1
  O  O321  1  0.53988558  0.65961832  -0.02152491  1
  O  O322  1  0.50740389  0.62237099  0.50580117  1
  O  O323  1  0.51452110  0.38657439  0.48854321  1
  O  O324  1  0.48524827  0.36619390  0.99527299  1
  O  O325  1  0.48792584  0.87915284  0.49603186  1
  O  O326  1  0.49206703  0.88950896  1.00506141  1
  O  O327  1  0.99114465  0.38317399  0.48986536  1
  O  O328  1  0.99412477  0.36485635  0.98672142  1
  O  O329  1  0.98441477  0.87307815  0.50438675  1
  O  O330  1  0.99542056  0.88535806  1.00143983  1
  O  O331  1  0.49173502  0.49149454  0.38047260  1
  O  O332  1  0.48179678  0.50995175  0.87193626  1
  O  O333  1  0.48914895  0.99067249  0.37808433  1
  O  O334  1  0.48837848  1.00857334  0.88328891  1
  O  O335  1  0.98822941  0.50222460  0.37843938  1
  O  O336  1  0.99427532  0.48939621  0.87040474  1
  O  O337  1  0.98170196  1.00445119  0.37618598  1
  O  O338  1  0.99502991  1.00346854  0.88186459  1
  O  O339  1  0.00233174  0.00907547  0.11887531  1
  O  O340  1  0.00352129  0.00353028  0.62356815  1
  O  O341  1  0.00955803  0.51365891  0.13081353  1
  O  O342  1  -0.01077289  0.51536053  0.61044605  1
  O  O343  1  0.50544698  0.00775019  0.11806513  1
  O  O344  1  0.50671685  0.01086287  0.62514569  1
  O  O345  1  0.50277651  0.51653077  0.15165468  1
  O  O346  1  0.50753507  0.51129634  0.61875068  1
  O  O347  1  0.23747305  0.38215041  0.24991965  1
  O  O348  1  0.24596653  0.39285509  0.74767983  1
  O  O349  1  0.23398635  0.87289806  0.24904722  1
  O  O350  1  0.25760399  0.87408746  0.73773736  1
  O  O351  1  0.73578761  0.37203098  0.24781739  1
  O  O352  1  0.73851102  0.36666006  0.75036862  1
  O  O353  1  0.74301667  0.88834107  0.24763434  1
  O  O354  1  0.74352014  0.87477746  0.74279988  1
  O  O355  1  0.25987048  0.12770356  0.25091715  1
  O  O356  1  0.25548521  0.12227578  0.76179573  1
  O  O357  1  0.24118296  0.60800033  0.25240752  1
  O  O358  1  0.25876322  0.62517238  0.75978391  1
  O  O359  1  0.74636505  0.11403804  0.25785171  1
  O  O360  1  0.74611018  0.12294966  0.76392722  1
  O  O361  1  0.75035554  0.61893100  0.25488650  1
  O  O362  1  0.76542107  0.63131750  0.75623132  1
  O  O363  1  0.37786326  0.11729022  0.36313607  1
  O  O364  1  0.36964565  0.12020592  0.87107849  1
  O  O365  1  0.37072725  0.61035940  0.37993278  1
  O  O366  1  0.36543334  0.62016293  0.87573454  1
  O  O367  1  0.85975201  0.11666342  0.38007073  1
  O  O368  1  0.86649092  0.11653680  0.88260642  1
  O  O369  1  0.86315585  0.62038309  0.36692851  1
  O  O370  1  0.87549535  0.61713259  0.86736763  1
  O  O371  1  0.11815825  0.38698512  0.13127040  1
  O  O372  1  0.08377763  0.38058037  0.63713245  1
  O  O373  1  0.12620604  0.87443284  0.14141067  1
  O  O374  1  0.13509950  0.88046576  0.61933736  1
  O  O375  1  0.62735391  0.36434541  0.14026919  1
  O  O376  1  0.62682909  0.37157889  0.64057563  1
  O  O377  1  0.62745745  0.88179659  0.13297882  1
  O  O378  1  0.63007778  0.88149721  0.63080097  1
  O  O379  1  0.11814679  0.26436921  0.24096924  1
  O  O380  1  0.11728443  0.24245396  0.76208767  1
  O  O381  1  0.11858965  0.75637814  0.25661960  1
  O  O382  1  0.11065852  0.73978227  0.74667271  1
  O  O383  1  0.62682578  0.25781107  0.26010690  1
  O  O384  1  0.61894698  0.25220514  0.75896328  1
  O  O385  1  0.63904778  0.76985812  0.25211695  1
  O  O386  1  0.61800412  0.75795823  0.76598260  1
  O  O387  1  0.37165241  0.24423331  0.23678391  1
  O  O388  1  0.38337283  0.24527046  0.75074874  1
  O  O389  1  0.36691923  0.75766928  0.23354752  1
  O  O390  1  0.38205308  0.74716549  0.74499976  1
  O  O391  1  0.88233506  0.25693136  0.23655768  1
  O  O392  1  0.87962326  0.24785597  0.73807738  1
  O  O393  1  0.88183248  0.74405512  0.24440291  1
  O  O394  1  0.88500768  0.74164576  0.74088462  1
  O  O395  1  0.39060544  0.49810366  0.49129425  1
  O  O396  1  0.36647109  0.48919047  0.99377927  1
  O  O397  1  0.37563773  0.99361111  0.49348229  1
  O  O398  1  0.38291949  0.99545555  0.99496706  1
  O  O399  1  0.88354804  0.49738938  0.48771575  1
  O  O400  1  0.87997076  0.48565669  0.99071160  1
  O  O401  1  0.87245870  0.98905349  0.49101511  1
  O  O402  1  0.88807019  0.99621066  0.99262815  1
  O  O403  1  0.11349165  0.00796984  -0.00145763  1
  O  O404  1  0.12044441  0.00392189  0.51155925  1
  O  O405  1  0.13383477  0.50860966  0.01005567  1
  O  O406  1  0.10822440  0.50969745  0.48703770  1
  O  O407  1  0.61943015  0.00252316  0.00654053  1
  O  O408  1  0.62373601  0.00064352  0.51253312  1
  O  O409  1  0.62295893  0.47868533  -0.00933200  1
  O  O410  1  0.61547362  0.51491371  0.49813853  1
  O  O411  1  0.37629554  0.36407358  0.11486110  1
  O  O412  1  0.38592444  0.38132880  0.63306829  1
  O  O413  1  0.37450808  0.86769964  0.11532838  1
  O  O414  1  0.36995969  0.87166726  0.61767794  1
  O  O415  1  0.87598162  0.37038201  0.11785186  1
  O  O416  1  0.88066004  0.36288533  0.61789648  1
  O  O417  1  0.87907635  0.86584348  0.11761604  1
  O  O418  1  0.86520651  0.86876349  0.61636475  1
  O  O419  1  0.12375332  0.11589466  0.39210075  1
  O  O420  1  0.13402733  0.13156779  0.88046689  1
  O  O421  1  0.12263077  0.63560911  0.37990042  1
  O  O422  1  0.13104882  0.62960679  0.88397494  1
  O  O423  1  0.63159880  0.13192922  0.37555157  1
  O  O424  1  0.63266061  0.12926239  0.88118426  1
  O  O425  1  0.63760452  0.63081052  0.38379911  1
  O  O426  1  0.65151148  0.63368996  0.87009066  1
