# generated using pymatgen
data_V85Zn86O256
_symmetry_space_group_name_H-M   'P 1'
_cell_length_a   16.96112984
_cell_length_b   16.94610285
_cell_length_c   16.96486047
_cell_angle_alpha   90.01932885
_cell_angle_beta   89.94897397
_cell_angle_gamma   89.97405153
_symmetry_Int_Tables_number   1
_chemical_formula_structural   V85Zn86O256
_chemical_formula_sum   'V85 Zn86 O256'
_cell_volume   4876.12316776
_cell_formula_units_Z   1
loop_
 _symmetry_equiv_pos_site_id
 _symmetry_equiv_pos_as_xyz
  1  'x, y, z'
loop_
 _atom_site_type_symbol
 _atom_site_label
 _atom_site_symmetry_multiplicity
 _atom_site_fract_x
 _atom_site_fract_y
 _atom_site_fract_z
 _atom_site_occupancy
  V  V0  1  -0.00901609  0.88733704  0.87456199  1
  V  V1  1  0.11083694  0.62473042  0.49791451  1
  V  V2  1  0.74273665  0.87785164  0.62517594  1
  V  V3  1  0.75091727  0.62262605  0.37605853  1
  V  V4  1  0.87928458  0.01451367  0.37735231  1
  V  V5  1  0.38280299  0.24478832  0.62640272  1
  V  V6  1  0.24901822  0.49945055  0.74818768  1
  V  V7  1  0.00295788  0.87848649  0.37136869  1
  V  V8  1  0.62382726  0.49872476  0.62436904  1
  V  V9  1  0.88023213  0.87910091  0.49976225  1
  V  V10  1  0.24926669  0.12515233  0.37130382  1
  V  V11  1  0.49804972  0.50699615  0.00483815  1
  V  V12  1  0.50425522  0.00467114  0.50522738  1
  V  V13  1  0.62083664  0.50894864  0.12634698  1
  V  V14  1  0.12520828  0.49750711  0.12395768  1
  V  V15  1  0.25086462  0.36793975  0.12606106  1
  V  V16  1  0.37643449  0.62594262  0.74997469  1
  V  V17  1  0.24820646  -0.00159830  0.75257940  1
  V  V18  1  -0.00520668  0.23899265  0.75128851  1
  V  V19  1  0.62264642  0.13294099  0.49815974  1
  V  V20  1  0.37494039  0.36889028  0.00066422  1
  V  V21  1  0.62955151  0.88199872  0.25009548  1
  V  V22  1  0.86891448  0.24532033  0.62761555  1
  V  V23  1  0.12508412  0.36788280  0.25394986  1
  V  V24  1  0.50314594  0.35869952  0.37200422  1
  V  V25  1  0.11551048  0.11314396  -0.00155165  1
  V  V26  1  0.62434373  0.37134790  0.74959639  1
  V  V27  1  0.37453204  0.49971311  0.87554936  1
  V  V28  1  0.24829968  0.62458456  0.87630596  1
  V  V29  1  0.24493109  0.87321888  0.62406784  1
  V  V30  1  0.75187685  0.75230327  0.50000763  1
  V  V31  1  0.74696949  0.24863450  -0.00089025  1
  V  V32  1  0.62545233  0.75075436  0.37525936  1
  V  V33  1  0.50226870  0.62951809  0.62989568  1
  V  V34  1  0.74886657  0.62609213  0.87568386  1
  V  V35  1  0.00095175  0.12256330  0.61069373  1
  V  V36  1  0.87529516  0.62763021  0.25548694  1
  V  V37  1  0.74636397  0.88217552  0.12564629  1
  V  V38  1  0.25135723  0.50313517  0.25001061  1
  V  V39  1  -0.00584473  0.74278248  0.74747268  1
  V  V40  1  0.43335196  -0.06037495  0.82858877  1
  V  V41  1  0.37636041  0.74790016  0.62892627  1
  V  V42  1  0.50389013  0.87465809  0.37872271  1
  V  V43  1  0.24868964  0.75441625  0.00810211  1
  V  V44  1  0.74601398  0.75232746  -0.00191094  1
  V  V45  1  0.37356233  0.87278344  0.49920470  1
  V  V46  1  0.74902669  0.37728841  0.12528653  1
  V  V47  1  0.61550944  0.76001272  0.85864858  1
  V  V48  1  0.25237251  0.11917761  0.87641111  1
  V  V49  1  0.87298357  0.75192204  0.12247073  1
  V  V50  1  0.62226435  0.36252397  0.25306019  1
  V  V51  1  0.37942177  0.49785139  0.37466857  1
  V  V52  1  0.24927293  0.37677191  0.62496159  1
  V  V53  1  0.87630358  0.38446069  0.49523398  1
  V  V54  1  0.75834626  -0.00480567  0.75378190  1
  V  V55  1  0.10794954  0.50247816  0.62016433  1
  V  V56  1  0.12068925  0.00386457  0.61354440  1
  V  V57  1  0.37317621  0.00532800  0.37327729  1
  V  V58  1  0.01013627  0.75493987  0.24715772  1
  V  V59  1  0.75144177  0.24404469  0.48093546  1
  V  V60  1  0.74942990  0.49954095  0.75191227  1
  V  V61  1  0.50083261  -0.00337281  0.00556017  1
  V  V62  1  0.87650999  0.25037090  0.13386695  1
  V  V63  1  0.62496458  0.11686472  0.00238356  1
  V  V64  1  0.12509210  0.24932933  0.87659109  1
  V  V65  1  0.37400863  0.87973068  0.01279792  1
  V  V66  1  0.76442024  0.12288196  0.86880656  1
  V  V67  1  0.62503134  0.62495075  0.50018829  1
  V  V68  1  0.74897178  0.50171905  0.25356021  1
  V  V69  1  0.37610885  0.37333110  0.49996198  1
  V  V70  1  0.75686744  0.01306640  0.25425007  1
  V  V71  1  0.12113874  0.24424814  0.37908145  1
  V  V72  1  0.38326609  0.62217295  0.24330573  1
  V  V73  1  -0.00236977  0.37481276  0.87342541  1
  V  V74  1  0.38277782  0.12458065  0.75326382  1
  V  V75  1  -0.00186399  0.62547363  0.12183723  1
  V  V76  1  0.38184537  0.24161522  0.13941260  1
  V  V77  1  0.50109769  0.37256525  0.87539702  1
  V  V78  1  0.50336928  0.74859445  0.23972886  1
  V  V79  1  0.87520711  0.37675393  0.00389656  1
  V  V80  1  0.12311466  0.62495017  0.00207599  1
  V  V81  1  -0.00375251  0.11709081  0.12921126  1
  V  V82  1  0.87315436  0.88953410  -0.00442257  1
  V  V83  1  0.24359865  0.24159324  0.50525180  1
  V  V84  1  0.11868512  0.87578513  0.75037633  1
  Zn  Zn85  1  0.87433142  0.50096139  0.87606726  1
  Zn  Zn86  1  0.24803014  0.74258513  0.50031893  1
  Zn  Zn87  1  0.62396271  0.00672549  0.63239089  1
  Zn  Zn88  1  0.12215443  0.37412088  0.74799657  1
  Zn  Zn89  1  0.13204486  0.75420558  0.37002029  1
  Zn  Zn90  1  -0.00307755  0.24649094  0.25402232  1
  Zn  Zn91  1  -0.00181935  0.49946387  0.00048716  1
  Zn  Zn92  1  0.87869942  0.61822385  0.74407495  1
  Zn  Zn93  1  0.87837168  0.74450726  0.62090671  1
  Zn  Zn94  1  0.37313199  0.75037000  0.12802025  1
  Zn  Zn95  1  0.12610296  -0.01302885  0.13090330  1
  Zn  Zn96  1  0.50433629  0.24256025  0.74734267  1
  Zn  Zn97  1  0.00343389  0.38888156  0.38675360  1
  Zn  Zn98  1  0.61753368  0.63175788  0.00099878  1
  Zn  Zn99  1  0.12096703  0.75014508  0.87460660  1
  Zn  Zn100  1  0.74761428  0.37037342  0.62161960  1
  Zn  Zn101  1  0.62581215  0.24720248  0.87341455  1
  Zn  Zn102  1  0.50209794  0.49746308  0.49816323  1
  Zn  Zn103  1  0.24597999  -0.01692132  0.24257940  1
  Zn  Zn104  1  0.25027630  0.24566000  0.00121200  1
  Zn  Zn105  1  0.25152932  0.62493042  0.37936864  1
  Zn  Zn106  1  0.50867758  0.13150901  0.13799586  1
  Zn  Zn107  1  0.20535877  0.15044864  0.17069802  1
  Zn  Zn108  1  0.18626109  0.18561161  0.69060365  1
  Zn  Zn109  1  0.18604715  0.81792570  0.18206779  1
  Zn  Zn110  1  0.18353261  0.68581662  0.68395487  1
  Zn  Zn111  1  0.68845545  0.18669476  0.18424062  1
  Zn  Zn112  1  0.68718878  0.18173775  0.68641121  1
  Zn  Zn113  1  0.68672154  0.69070529  0.18603066  1
  Zn  Zn114  1  0.69322835  0.68847088  0.68677107  1
  Zn  Zn115  1  0.31029568  0.30960698  0.31456126  1
  Zn  Zn116  1  0.31108116  0.30948422  0.81156642  1
  Zn  Zn117  1  0.31615965  0.80733515  0.31705350  1
  Zn  Zn118  1  0.30496802  0.80559993  0.81140196  1
  Zn  Zn119  1  0.81260562  0.31807400  0.31290127  1
  Zn  Zn120  1  0.81255009  0.31069821  0.81285091  1
  Zn  Zn121  1  0.81694473  0.81471570  0.31398097  1
  Zn  Zn122  1  0.81063753  0.81331461  0.81205521  1
  Zn  Zn123  1  0.18834635  0.43765163  0.44012965  1
  Zn  Zn124  1  0.18694416  0.43559511  0.93858372  1
  Zn  Zn125  1  0.18823295  0.93562248  0.43426882  1
  Zn  Zn126  1  0.18491022  0.93449245  0.94033115  1
  Zn  Zn127  1  0.68947639  0.43369812  0.43644678  1
  Zn  Zn128  1  0.68460679  0.43869559  0.93871605  1
  Zn  Zn129  1  0.69124923  0.94432610  0.43762036  1
  Zn  Zn130  1  0.68625714  0.93845118  0.93136624  1
  Zn  Zn131  1  0.31527482  0.06044039  0.05952522  1
  Zn  Zn132  1  0.31160975  0.06171427  0.56437812  1
  Zn  Zn133  1  0.31097936  0.56202566  0.06476835  1
  Zn  Zn134  1  0.31009168  0.56203631  0.55879886  1
  Zn  Zn135  1  0.81116540  0.06549609  0.06684439  1
  Zn  Zn136  1  0.81306493  0.06398706  0.56291951  1
  Zn  Zn137  1  0.81076274  0.56327748  0.06362242  1
  Zn  Zn138  1  0.81268447  0.56424139  0.56719334  1
  Zn  Zn139  1  0.44006349  0.43085193  0.18745770  1
  Zn  Zn140  1  0.43819371  0.43728901  0.68734674  1
  Zn  Zn141  1  0.46462285  0.97729696  0.21331120  1
  Zn  Zn142  1  0.43684796  0.93852022  0.67009355  1
  Zn  Zn143  1  0.95482196  0.45661026  0.22213885  1
  Zn  Zn144  1  0.93195897  0.42758281  0.68800734  1
  Zn  Zn145  1  0.93439881  0.93871245  0.18876454  1
  Zn  Zn146  1  0.93234380  0.94044964  0.68539478  1
  Zn  Zn147  1  0.06421799  0.06305023  0.30999517  1
  Zn  Zn148  1  0.06187271  0.06188197  0.80904643  1
  Zn  Zn149  1  0.06329141  0.56357390  0.31555827  1
  Zn  Zn150  1  0.06418294  0.55893487  0.81218055  1
  Zn  Zn151  1  0.57082662  0.07191065  0.32114044  1
  Zn  Zn152  1  0.57484208  0.06230953  0.81537097  1
  Zn  Zn153  1  0.56226283  0.56007559  0.31282630  1
  Zn  Zn154  1  0.56414974  0.56594927  0.81465658  1
  Zn  Zn155  1  0.43601113  0.18604075  0.44083185  1
  Zn  Zn156  1  0.43961590  0.18451411  0.93794767  1
  Zn  Zn157  1  0.43913168  0.68574376  0.43685522  1
  Zn  Zn158  1  0.43605020  0.69319089  0.93723296  1
  Zn  Zn159  1  0.93915096  0.19525915  0.43902899  1
  Zn  Zn160  1  0.93726019  0.19000568  0.94427960  1
  Zn  Zn161  1  0.93884328  0.69125427  0.43471802  1
  Zn  Zn162  1  0.93415459  0.69239016  0.93169976  1
  Zn  Zn163  1  0.06195143  0.30848508  0.06343632  1
  Zn  Zn164  1  0.05892718  0.31343398  0.56386517  1
  Zn  Zn165  1  0.05607303  0.81270183  0.05373211  1
  Zn  Zn166  1  0.05970761  0.81199086  0.56134404  1
  Zn  Zn167  1  0.56315815  0.31469924  0.06532648  1
  Zn  Zn168  1  0.56366705  0.31087635  0.55898415  1
  Zn  Zn169  1  0.56254626  0.82074663  0.05904700  1
  Zn  Zn170  1  0.56309575  0.81225531  0.56621130  1
  O  O171  1  0.10714177  0.13675679  0.11037973  1
  O  O172  1  0.11186434  0.11799762  0.63227791  1
  O  O173  1  0.11779922  0.61788258  0.10951179  1
  O  O174  1  0.12484777  0.61045210  0.61519501  1
  O  O175  1  0.62489703  0.13141063  0.10748725  1
  O  O176  1  0.63165278  0.12290373  0.60656339  1
  O  O177  1  0.62797571  0.61315631  0.12262229  1
  O  O178  1  0.61963855  0.61901779  0.62244553  1
  O  O179  1  0.38220964  0.37883204  0.37868425  1
  O  O180  1  0.37992374  0.37978640  0.88050260  1
  O  O181  1  0.38212870  0.87713822  0.38954150  1
  O  O182  1  0.37435850  0.87281312  0.87819389  1
  O  O183  1  0.87564600  0.37090591  0.39138647  1
  O  O184  1  0.88169417  0.37415387  0.88396755  1
  O  O185  1  0.88383353  0.88113268  0.38166929  1
  O  O186  1  0.88263256  0.87446270  0.87994566  1
  O  O187  1  0.25703125  0.01087231  0.38429241  1
  O  O188  1  0.24079927  0.01085543  0.86793101  1
  O  O189  1  0.26383651  0.49403463  0.36796105  1
  O  O190  1  0.25521584  0.50461251  0.87024508  1
  O  O191  1  0.76514235  -0.00413397  0.36338353  1
  O  O192  1  0.75057953  0.01106813  0.86578495  1
  O  O193  1  0.74319144  0.50975182  0.36503328  1
  O  O194  1  0.74777355  0.50714480  0.86899682  1
  O  O195  1  0.24672854  0.49013768  0.13209966  1
  O  O196  1  0.24858151  0.48784578  0.62810502  1
  O  O197  1  0.23941422  1.03822396  0.13767378  1
  O  O198  1  0.24339128  0.99336410  0.63306996  1
  O  O199  1  0.73971783  0.49510354  0.12869149  1
  O  O200  1  0.73672668  0.49650302  0.63412389  1
  O  O201  1  0.75730804  0.99247914  0.14065303  1
  O  O202  1  0.75151055  0.99445428  0.63330886  1
  O  O203  1  0.02126885  0.36233335  0.23490104  1
  O  O204  1  0.00115823  0.36371368  0.75815274  1
  O  O205  1  -0.00917420  0.86545113  0.25721018  1
  O  O206  1  0.00131937  0.87095779  0.75710009  1
  O  O207  1  0.51097601  0.37776333  0.25952892  1
  O  O208  1  0.50993615  0.37598029  0.75737042  1
  O  O209  1  0.51242246  0.87501149  0.25767149  1
  O  O210  1  0.48615484  0.88871336  0.76204550  1
  O  O211  1  0.50087424  0.08452798  0.24027835  1
  O  O212  1  0.48703308  0.12293139  0.76116189  1
  O  O213  1  0.49652590  0.63612503  0.25445823  1
  O  O214  1  0.49321476  0.61675214  0.73741029  1
  O  O215  1  1.00268742  0.13124800  0.23310937  1
  O  O216  1  1.00050159  0.13650247  0.74683662  1
  O  O217  1  0.99080515  0.63498422  0.24258337  1
  O  O218  1  1.00070916  0.63931551  0.75802106  1
  O  O219  1  0.37544959  0.26192836  -0.00054487  1
  O  O220  1  0.36630985  0.25396016  0.51016844  1
  O  O221  1  0.36851060  0.75935224  0.00254409  1
  O  O222  1  0.37697344  0.75598615  0.51034761  1
  O  O223  1  0.86362945  0.25987910  0.00584988  1
  O  O224  1  0.86304332  0.25395432  0.50600801  1
  O  O225  1  0.86172345  0.75735027  0.00227217  1
  O  O226  1  0.86725061  0.75895628  0.49760504  1
  O  O227  1  0.13362342  0.26052455  0.49314564  1
  O  O228  1  0.12521258  0.24536865  0.98631202  1
  O  O229  1  0.12300456  0.73385530  0.50345837  1
  O  O230  1  0.13091528  0.74008146  0.99455438  1
  O  O231  1  0.63803650  0.24325907  0.50240064  1
  O  O232  1  0.63718374  0.24932353  0.99899058  1
  O  O233  1  0.63120633  0.74477000  0.49571287  1
  O  O234  1  0.63580804  0.75073985  0.99934336  1
  O  O235  1  0.48723440  0.25142800  0.12258273  1
  O  O236  1  0.48608424  0.25456922  0.62648819  1
  O  O237  1  0.50112389  0.75700780  0.13751589  1
  O  O238  1  0.49200614  0.74074512  0.62422849  1
  O  O239  1  0.98833190  0.24385799  0.12284311  1
  O  O240  1  0.99496319  0.24107474  0.63210778  1
  O  O241  1  0.99151394  0.74525021  0.12783997  1
  O  O242  1  0.99839859  0.75799653  0.64385980  1
  O  O243  1  0.00871617  0.25768113  0.37312980  1
  O  O244  1  0.00306126  0.25703667  0.87032662  1
  O  O245  1  0.00207475  0.75803208  0.36270340  1
  O  O246  1  0.00084217  0.76026171  0.86243644  1
  O  O247  1  0.49586675  0.25912717  0.37700961  1
  O  O248  1  0.50092275  0.26314946  0.87347789  1
  O  O249  1  0.50656910  0.75712192  0.36894661  1
  O  O250  1  0.51727420  0.74232746  0.87632566  1
  O  O251  1  0.25013287  0.13826117  0.50132775  1
  O  O252  1  0.24133643  0.12700901  0.98913415  1
  O  O253  1  0.23678621  0.62229282  0.49839312  1
  O  O254  1  0.24347800  0.62874298  0.99543137  1
  O  O255  1  0.74653687  0.13977207  0.50214119  1
  O  O256  1  0.74617357  0.13091776  0.99396196  1
  O  O257  1  0.74419359  0.63064862  0.49396910  1
  O  O258  1  0.74827767  0.63440125  0.99314687  1
  O  O259  1  0.25922715  0.37191651  0.00557225  1
  O  O260  1  0.25675536  0.36797826  0.50860881  1
  O  O261  1  0.26307491  0.86660694  -0.00952392  1
  O  O262  1  0.25867865  0.87190004  0.50649706  1
  O  O263  1  0.75458428  0.36849774  0.00253309  1
  O  O264  1  0.75322961  0.35992207  0.50065791  1
  O  O265  1  0.75285378  0.87180158  0.00608426  1
  O  O266  1  0.75789332  0.87206792  0.50479981  1
  O  O267  1  0.13695819  0.49357129  0.24288603  1
  O  O268  1  0.13130865  0.49947719  0.73682181  1
  O  O269  1  0.13240577  1.00638108  0.24473667  1
  O  O270  1  0.12668115  0.98869813  0.74261290  1
  O  O271  1  0.63277291  0.49755892  0.24253799  1
  O  O272  1  0.63153626  0.49339883  0.74565352  1
  O  O273  1  0.64334377  0.98670557  0.26237327  1
  O  O274  1  0.64629427  1.00974625  0.74600232  1
  O  O275  1  0.36596648  -0.01187821  0.27240306  1
  O  O276  1  0.37338554  0.00007357  0.75817319  1
  O  O277  1  0.37427742  0.50152634  0.25533358  1
  O  O278  1  0.36865679  0.50481716  0.75486586  1
  O  O279  1  0.86464587  -0.00133085  0.26152478  1
  O  O280  1  0.85879438  0.00605599  0.74547466  1
  O  O281  1  0.85489231  0.51407165  0.23656686  1
  O  O282  1  0.85995875  0.49413419  0.75210770  1
  O  O283  1  0.12455341  0.37037374  0.36888811  1
  O  O284  1  0.11661553  0.36744534  0.87425019  1
  O  O285  1  0.10699483  0.87267034  0.38562434  1
  O  O286  1  0.11235273  0.87431240  0.86746210  1
  O  O287  1  0.61500045  0.38022354  0.36548448  1
  O  O288  1  0.61692943  0.37354064  0.86810862  1
  O  O289  1  0.62423636  0.86969873  0.37104871  1
  O  O290  1  0.62936091  0.85887944  0.87440243  1
  O  O291  1  0.38208734  0.14059370  0.11697205  1
  O  O292  1  0.36787727  0.13372050  0.63787819  1
  O  O293  1  0.37373088  0.62398623  0.13979708  1
  O  O294  1  0.38212231  0.62975453  0.62711325  1
  O  O295  1  0.88725651  0.13551381  0.11719153  1
  O  O296  1  0.88891699  0.13273183  0.61977362  1
  O  O297  1  0.87746105  0.63259692  0.13087363  1
  O  O298  1  0.86937922  0.63107405  0.63210278  1
  O  O299  1  0.26323316  0.24963604  0.12201737  1
  O  O300  1  0.25232772  0.25952189  0.62346611  1
  O  O301  1  0.25167973  0.74500737  0.11017425  1
  O  O302  1  0.25658281  0.75516120  0.62265235  1
  O  O303  1  0.75658829  0.25585639  0.11712149  1
  O  O304  1  0.76108244  0.24935834  0.62644147  1
  O  O305  1  0.75393281  0.75801898  0.11705492  1
  O  O306  1  0.75140956  0.75971292  0.61692984  1
  O  O307  1  0.24551214  0.24625705  0.38861874  1
  O  O308  1  0.24012148  0.24060661  0.87369568  1
  O  O309  1  0.24745790  0.74329904  0.38244562  1
  O  O310  1  0.24507808  0.73845333  0.88315250  1
  O  O311  1  0.75357536  0.24720573  0.38288880  1
  O  O312  1  0.75004832  0.24047466  0.88189870  1
  O  O313  1  0.74475390  0.74412010  0.37983189  1
  O  O314  1  0.74392623  0.74380152  0.88054518  1
  O  O315  1  0.00612146  0.12709355  0.00764560  1
  O  O316  1  0.00454354  0.13171213  0.51276562  1
  O  O317  1  0.00447292  0.62448386  0.00119340  1
  O  O318  1  0.01066215  0.62273233  0.49423687  1
  O  O319  1  0.50896352  0.11531448  -0.00307799  1
  O  O320  1  0.51287011  0.12077341  0.49747141  1
  O  O321  1  0.49674782  0.61065039  -0.00440977  1
  O  O322  1  0.50677801  0.62171512  0.51130383  1
  O  O323  1  0.49456867  0.37567771  0.49192967  1
  O  O324  1  0.49433683  0.38269923  0.99285058  1
  O  O325  1  0.49446784  0.88156901  0.49911534  1
  O  O326  1  0.48492438  0.87933511  0.99641388  1
  O  O327  1  0.98231379  0.37410976  0.50252789  1
  O  O328  1  0.99091910  0.37400231  0.99323330  1
  O  O329  1  0.98617480  0.87036703  0.49324444  1
  O  O330  1  0.98688436  0.87015334  0.98233484  1
  O  O331  1  0.48976159  0.49309343  0.37601010  1
  O  O332  1  0.49494130  0.49070010  0.88080170  1
  O  O333  1  0.49219159  0.99314544  0.38868035  1
  O  O334  1  0.49891572  0.99892039  0.88198661  1
  O  O335  1  0.98751343  0.48584581  0.33084291  1
  O  O336  1  0.99762029  0.48608891  0.87439932  1
  O  O337  1  0.98659289  0.99434510  0.36703822  1
  O  O338  1  0.99910218  0.98620686  0.86813118  1
  O  O339  1  -0.00263682  0.01415219  0.12705605  1
  O  O340  1  0.00449060  0.01488654  0.62913323  1
  O  O341  1  0.00718412  0.50801665  0.12711561  1
  O  O342  1  0.01079597  0.49390966  0.63256048  1
  O  O343  1  0.50029528  -0.00298536  0.10678839  1
  O  O344  1  0.50367172  0.00334128  0.61099259  1
  O  O345  1  0.50792331  0.49289499  0.11622104  1
  O  O346  1  0.51109024  0.50485558  0.62398621  1
  O  O347  1  0.24445023  0.38094102  0.24586290  1
  O  O348  1  0.24706423  0.37967649  0.74236818  1
  O  O349  1  0.25080019  0.86986038  0.25433859  1
  O  O350  1  0.23879827  0.87805766  0.74601517  1
  O  O351  1  0.74387594  0.38552456  0.24695867  1
  O  O352  1  0.73749180  0.38013090  0.75189794  1
  O  O353  1  0.74708157  0.87644316  0.24212374  1
  O  O354  1  0.75570970  0.88661178  0.74214846  1
  O  O355  1  0.25504369  0.13387897  0.27218028  1
  O  O356  1  0.25826584  0.11727608  0.75583650  1
  O  O357  1  0.26221135  0.60672600  0.25628722  1
  O  O358  1  0.25381722  0.61957203  0.75524027  1
  O  O359  1  0.74703226  0.11121955  0.24688066  1
  O  O360  1  0.75209235  0.12345912  0.76487554  1
  O  O361  1  0.75372689  0.62275422  0.25543324  1
  O  O362  1  0.74813279  0.61449331  0.75828997  1
  O  O363  1  0.36520685  0.11412570  0.38886798  1
  O  O364  1  0.36232657  0.13138210  0.86801163  1
  O  O365  1  0.37763167  0.61398797  0.36675962  1
  O  O366  1  0.36899403  0.61967499  0.87043268  1
  O  O367  1  0.88276562  0.11336830  0.37996369  1
  O  O368  1  0.86212177  0.12860682  0.88220943  1
  O  O369  1  0.86911256  0.63087903  0.36155783  1
  O  O370  1  0.86187182  0.62230274  0.87030103  1
  O  O371  1  0.13556653  0.37528937  0.12795140  1
  O  O372  1  0.13123804  0.38545145  0.62460496  1
  O  O373  1  0.12851746  0.87586995  0.10620932  1
  O  O374  1  0.12558420  0.88089774  0.63153689  1
  O  O375  1  0.63048490  0.38442474  0.13234782  1
  O  O376  1  0.62413971  0.38142899  0.63215063  1
  O  O377  1  0.63808338  0.87324145  0.13398401  1
  O  O378  1  0.63902836  0.87976763  0.61959962  1
  O  O379  1  0.13233993  0.25706113  0.26532788  1
  O  O380  1  0.11742734  0.25063239  0.76170475  1
  O  O381  1  0.11226062  0.74700586  0.24679110  1
  O  O382  1  0.11643234  0.76009990  0.74976005  1
  O  O383  1  0.63107296  0.26330357  0.24519348  1
  O  O384  1  0.62246714  0.25701152  0.75043373  1
  O  O385  1  0.62132959  0.75983442  0.25499321  1
  O  O386  1  0.62778597  0.74710199  0.75956153  1
  O  O387  1  0.37504393  0.25214434  0.23798799  1
  O  O388  1  0.37690943  0.24110596  0.74361769  1
  O  O389  1  0.38681613  0.73955971  0.25033638  1
  O  O390  1  0.36944117  0.74264020  0.73694328  1
  O  O391  1  0.87415117  0.25712341  0.23723605  1
  O  O392  1  0.88292452  0.25621119  0.73972365  1
  O  O393  1  0.87782403  0.74313415  0.24166917  1
  O  O394  1  0.88685550  0.74994862  0.75075787  1
  O  O395  1  0.37712669  0.49209434  0.49187672  1
  O  O396  1  0.37957487  0.48928794  0.99789298  1
  O  O397  1  0.38110975  0.99065526  0.50017562  1
  O  O398  1  0.37929588  0.98779375  0.99663720  1
  O  O399  1  0.86041788  0.48221794  0.50381654  1
  O  O400  1  0.87475838  0.48864217  0.99908781  1
  O  O401  1  0.86850329  0.99393431  0.48530867  1
  O  O402  1  0.86704490  0.98814788  1.00278606  1
  O  O403  1  0.12550123  0.01142008  0.00227708  1
  O  O404  1  0.12941257  -0.00423765  0.51529174  1
  O  O405  1  0.12245751  0.50435347  0.00656313  1
  O  O406  1  0.12415473  0.50597935  0.51181253  1
  O  O407  1  0.61667324  0.00566695  -0.00645012  1
  O  O408  1  0.61879123  0.00787700  0.50277184  1
  O  O409  1  0.61512408  0.50119762  0.00833236  1
  O  O410  1  0.62624264  0.50459936  0.50942983  1
  O  O411  1  0.37045270  0.36594956  0.11804579  1
  O  O412  1  0.36748195  0.36810811  0.62264204  1
  O  O413  1  0.37333207  0.87379971  0.11153439  1
  O  O414  1  0.36817456  0.86591677  0.61699046  1
  O  O415  1  0.86728159  0.36917674  0.11629725  1
  O  O416  1  0.86997967  0.36338845  0.61485757  1
  O  O417  1  0.86661518  0.87034549  0.11709074  1
  O  O418  1  0.86692073  0.87426680  0.61433356  1
  O  O419  1  0.12985679  0.13764491  0.37811692  1
  O  O420  1  0.12725562  0.13068027  0.87992644  1
  O  O421  1  0.12693635  0.62300770  0.38739612  1
  O  O422  1  0.13036990  0.62083957  0.88593383  1
  O  O423  1  0.63563775  0.11948417  0.39712540  1
  O  O424  1  0.63696905  0.13001753  0.88727659  1
  O  O425  1  0.62903449  0.63071572  0.38066114  1
  O  O426  1  0.63584967  0.63123135  0.87893507  1
