# generated using pymatgen
data_V85Zn86O256
_symmetry_space_group_name_H-M   'P 1'
_cell_length_a   16.92347041
_cell_length_b   16.92588687
_cell_length_c   16.92208182
_cell_angle_alpha   89.97007843
_cell_angle_beta   90.05869153
_cell_angle_gamma   90.02711331
_symmetry_Int_Tables_number   1
_chemical_formula_structural   V85Zn86O256
_chemical_formula_sum   'V85 Zn86 O256'
_cell_volume   4847.23767854
_cell_formula_units_Z   1
loop_
 _symmetry_equiv_pos_site_id
 _symmetry_equiv_pos_as_xyz
  1  'x, y, z'
loop_
 _atom_site_type_symbol
 _atom_site_label
 _atom_site_symmetry_multiplicity
 _atom_site_fract_x
 _atom_site_fract_y
 _atom_site_fract_z
 _atom_site_occupancy
  V  V0  1  -0.00006738  0.12694811  0.12747038  1
  V  V1  1  0.37741561  0.88246633  0.00241226  1
  V  V2  1  0.62661671  0.50106452  0.12505840  1
  V  V3  1  0.50414318  0.24334584  0.24718292  1
  V  V4  1  0.87064602  0.76634247  0.62582796  1
  V  V5  1  0.86786353  0.37879558  0.50640891  1
  V  V6  1  0.25037958  0.61859514  0.87577270  1
  V  V7  1  -0.00500191  0.62764592  0.14427214  1
  V  V8  1  0.62770698  0.87668471  0.74904619  1
  V  V9  1  0.49848742  0.62312589  0.62359913  1
  V  V10  1  0.49468530  0.49841436  0.49375658  1
  V  V11  1  0.62923882  0.49364293  0.62229303  1
  V  V12  1  0.36613806  0.74792529  0.61759137  1
  V  V13  1  0.62870965  0.37130936  0.75054891  1
  V  V14  1  0.87856191  0.13675581  0.74997299  1
  V  V15  1  0.62401680  0.62866256  0.49408729  1
  V  V16  1  0.36686803  0.60802634  0.25408328  1
  V  V17  1  0.24224648  0.48775348  0.74962589  1
  V  V18  1  0.75018644  0.25421234  0.00310891  1
  V  V19  1  0.24891315  0.87399543  0.12773252  1
  V  V20  1  0.75463483  0.75558500  0.00242807  1
  V  V21  1  0.00101578  0.37156895  0.86235541  1
  V  V22  1  0.25080258  -0.00087807  0.25657233  1
  V  V23  1  0.00765631  0.12817009  0.63003844  1
  V  V24  1  0.75734736  0.37972414  0.12098642  1
  V  V25  1  0.63596599  0.24185970  0.37291633  1
  V  V26  1  0.49418025  0.50338071  -0.00329117  1
  V  V27  1  0.12151699  0.25369975  0.86212811  1
  V  V28  1  0.50738669  0.11254092  0.61649331  1
  V  V29  1  0.74219320  0.00261122  0.75109430  1
  V  V30  1  0.87612352  -0.00025153  0.87489959  1
  V  V31  1  0.12696306  0.12870820  0.00125309  1
  V  V32  1  0.12652119  0.11518395  0.50125057  1
  V  V33  1  -0.00084249  0.75010107  0.74946968  1
  V  V34  1  0.37688963  0.12091234  0.74556011  1
  V  V35  1  -0.00598976  0.86734863  0.38186680  1
  V  V36  1  0.24160708  0.87801866  0.61557543  1
  V  V37  1  0.49839818  0.87840782  0.87892876  1
  V  V38  1  0.60742087  0.23472160  0.89214839  1
  V  V39  1  0.69237322  0.93519213  0.57743043  1
  V  V40  1  0.25043924  0.38152263  0.13212907  1
  V  V41  1  0.24832585  0.74830598  0.00074143  1
  V  V42  1  0.87395234  0.49453846  0.88128987  1
  V  V43  1  0.87475913  0.00533435  0.38290148  1
  V  V44  1  0.49168641  0.38290023  0.87199547  1
  V  V45  1  0.11886982  0.86431974  0.25310813  1
  V  V46  1  0.12500279  0.00072974  0.12898799  1
  V  V47  1  0.12595599  0.88138894  0.74788171  1
  V  V48  1  0.12351716  0.24906886  0.37585827  1
  V  V49  1  0.37802160  0.24896300  0.12225793  1
  V  V50  1  0.37710654  0.75047510  0.12882916  1
  V  V51  1  0.11758149  0.62504110  0.00088947  1
  V  V52  1  0.49674340  0.37334318  0.37363057  1
  V  V53  1  0.75055734  0.62401561  0.87536787  1
  V  V54  1  0.63475623  0.86522129  0.24594227  1
  V  V55  1  0.75232268  0.12886591  0.88128639  1
  V  V56  1  0.74779591  0.24779024  0.51336924  1
  V  V57  1  0.50088012  0.62530616  0.12764749  1
  V  V58  1  0.37385718  0.25658893  0.62155654  1
  V  V59  1  0.12198338  0.48653513  0.62069078  1
  V  V60  1  0.37928131  0.12087886  0.24612990  1
  V  V61  1  0.87512003  0.62433382  0.74863953  1
  V  V62  1  0.75646351  0.50398161  0.25242270  1
  V  V63  1  0.49770465  0.74875095  0.74980372  1
  V  V64  1  0.87828764  0.25655797  0.12247603  1
  V  V65  1  -0.00173482  0.49101621  0.00417812  1
  V  V66  1  0.50095122  0.75215443  0.26074094  1
  V  V67  1  0.62571716  0.74897684  0.87602009  1
  V  V68  1  0.24876382  0.25854130  0.50218365  1
  V  V69  1  0.75372035  -0.00290063  0.23906035  1
  V  V70  1  0.37168557  0.61944175  0.75434351  1
  V  V71  1  0.24853749  0.12401049  0.87288640  1
  V  V72  1  0.00037002  0.00054030  0.00065813  1
  V  V73  1  -0.00157498  0.37784047  0.38065972  1
  V  V74  1  0.86998064  0.12627878  0.25200853  1
  V  V75  1  0.74955983  0.49705575  0.74842934  1
  V  V76  1  0.75011181  0.75369004  0.50399423  1
  V  V77  1  0.25000690  0.61623911  0.38772723  1
  V  V78  1  0.87928373  0.50544224  0.38003199  1
  V  V79  1  0.38068412  0.88111182  0.49738816  1
  V  V80  1  0.75090251  0.63199725  0.37191244  1
  V  V81  1  0.50035865  0.25073254  0.74419224  1
  V  V82  1  0.00133228  0.87426166  0.87517936  1
  V  V83  1  0.87539929  0.75336363  0.13911139  1
  V  V84  1  0.00064470  0.62281773  0.61711619  1
  Zn  Zn85  1  0.36976833  0.38029306  -0.00448806  1
  Zn  Zn86  1  0.87787685  0.25884416  0.63242402  1
  Zn  Zn87  1  0.62242994  -0.00425216  0.11935926  1
  Zn  Zn88  1  0.62727614  0.11196390  0.49658154  1
  Zn  Zn89  1  0.13012861  0.50387383  0.13204123  1
  Zn  Zn90  1  0.25013310  0.25419858  -0.00019229  1
  Zn  Zn91  1  0.37215154  -0.00069568  0.87552848  1
  Zn  Zn92  1  0.87478110  0.87619239  0.00694966  1
  Zn  Zn93  1  0.62747166  0.37494007  0.25183634  1
  Zn  Zn94  1  -0.00013349  -0.00315435  0.50670122  1
  Zn  Zn95  1  0.12492817  0.74926879  0.87372989  1
  Zn  Zn96  1  0.00060281  0.25093355  0.25278078  1
  Zn  Zn97  1  0.55181903  0.08705789  0.03584342  1
  Zn  Zn98  1  0.62545655  0.62684042  0.00000259  1
  Zn  Zn99  1  0.13134586  0.74765791  0.38325749  1
  Zn  Zn100  1  0.25251096  0.12616103  0.37688639  1
  Zn  Zn101  1  0.37092699  0.37904646  0.49730832  1
  Zn  Zn102  1  0.24592659  0.00109338  0.74474751  1
  Zn  Zn103  1  0.50835253  0.88133773  0.37714637  1
  Zn  Zn104  1  0.13035386  0.37965388  0.25698938  1
  Zn  Zn105  1  0.12819261  0.62766678  0.50593841  1
  Zn  Zn106  1  0.38675583  0.00660208  0.37902520  1
  Zn  Zn107  1  0.19196281  0.19136806  0.19023115  1
  Zn  Zn108  1  0.18929088  0.19037209  0.68492065  1
  Zn  Zn109  1  0.18718438  0.68442582  0.19074387  1
  Zn  Zn110  1  0.18463586  0.68955299  0.68686114  1
  Zn  Zn111  1  0.68598704  0.18247533  0.18210146  1
  Zn  Zn112  1  0.68468148  0.18502247  0.69146547  1
  Zn  Zn113  1  0.69125877  0.68808395  0.18649051  1
  Zn  Zn114  1  0.68654484  0.68601293  0.68529337  1
  Zn  Zn115  1  0.31466612  0.30980281  0.31301019  1
  Zn  Zn116  1  0.31297437  0.30756406  0.81213344  1
  Zn  Zn117  1  0.30998349  0.80622770  0.31546574  1
  Zn  Zn118  1  0.30957699  0.80797719  0.81077972  1
  Zn  Zn119  1  0.81416833  0.31697560  0.31048753  1
  Zn  Zn120  1  0.81069585  0.31550367  0.81942804  1
  Zn  Zn121  1  0.81374057  0.81418073  0.31772294  1
  Zn  Zn122  1  0.81217737  0.81418885  0.81260388  1
  Zn  Zn123  1  0.18810311  0.44211682  0.43697710  1
  Zn  Zn124  1  0.18504725  0.43776390  0.94157262  1
  Zn  Zn125  1  0.18822577  0.93300107  0.43631254  1
  Zn  Zn126  1  0.18764589  0.93869844  0.93750705  1
  Zn  Zn127  1  0.68576374  0.43377284  0.43565650  1
  Zn  Zn128  1  0.68123615  0.43438763  0.93817175  1
  Zn  Zn129  1  0.69055097  0.93474599  0.41355983  1
  Zn  Zn130  1  0.68704408  0.93766638  0.93974992  1
  Zn  Zn131  1  0.31341909  0.06306836  0.06617796  1
  Zn  Zn132  1  0.31123908  0.06378859  0.56315796  1
  Zn  Zn133  1  0.31313913  0.56361343  0.06504705  1
  Zn  Zn134  1  0.30998578  0.55572224  0.56918588  1
  Zn  Zn135  1  0.80939467  0.06559384  0.06270788  1
  Zn  Zn136  1  0.81666222  0.07458819  0.56318560  1
  Zn  Zn137  1  0.81597414  0.56916127  0.06234131  1
  Zn  Zn138  1  0.81130348  0.56568615  0.56232341  1
  Zn  Zn139  1  0.44077312  0.43113368  0.18527166  1
  Zn  Zn140  1  0.43739000  0.44033148  0.68621418  1
  Zn  Zn141  1  0.44900770  0.94489381  0.18209458  1
  Zn  Zn142  1  0.43549301  0.93575917  0.68699682  1
  Zn  Zn143  1  0.94265162  0.44081316  0.19535108  1
  Zn  Zn144  1  0.93815162  0.43977194  0.68649946  1
  Zn  Zn145  1  0.93932727  0.93617359  0.19169302  1
  Zn  Zn146  1  0.93894836  0.94583389  0.68966013  1
  Zn  Zn147  1  0.05901561  0.06094533  0.31537674  1
  Zn  Zn148  1  0.06275948  0.06406036  0.81077711  1
  Zn  Zn149  1  0.06894124  0.55769088  0.31741775  1
  Zn  Zn150  1  0.06308166  0.56070084  0.81115857  1
  Zn  Zn151  1  0.56550753  0.05794757  0.30790064  1
  Zn  Zn152  1  0.55422936  0.07094259  0.83608537  1
  Zn  Zn153  1  0.56335959  0.56299192  0.31184994  1
  Zn  Zn154  1  0.56320857  0.56281395  0.81092781  1
  Zn  Zn155  1  0.44030187  0.18613613  0.43553774  1
  Zn  Zn156  1  0.43050294  0.19390054  0.93189743  1
  Zn  Zn157  1  0.43034145  0.68595233  0.43606991  1
  Zn  Zn158  1  0.43586921  0.68898511  0.93868554  1
  Zn  Zn159  1  0.93723217  0.18826124  0.44263220  1
  Zn  Zn160  1  0.93758051  0.19177425  0.94087497  1
  Zn  Zn161  1  0.93307375  0.69055236  0.44097450  1
  Zn  Zn162  1  0.93588654  0.68709023  0.93868196  1
  Zn  Zn163  1  0.06590559  0.31279108  0.06197646  1
  Zn  Zn164  1  0.05744744  0.30847362  0.55903071  1
  Zn  Zn165  1  0.05881350  0.81048669  0.06522861  1
  Zn  Zn166  1  0.06141935  0.80768908  0.55916852  1
  Zn  Zn167  1  0.56013103  0.31875778  0.06424377  1
  Zn  Zn168  1  0.56287789  0.31084629  0.56098935  1
  Zn  Zn169  1  0.56410631  0.81552983  0.06458394  1
  Zn  Zn170  1  0.55713311  0.80644914  0.56107876  1
  O  O171  1  0.12218114  0.12334509  0.11948164  1
  O  O172  1  0.11557616  0.12802713  0.61963858  1
  O  O173  1  0.11118295  0.62737713  0.11955583  1
  O  O174  1  0.11499273  0.61888860  0.62884575  1
  O  O175  1  0.62767308  0.11462577  0.11940123  1
  O  O176  1  0.61134178  0.12625058  0.62409141  1
  O  O177  1  0.62189530  0.61462169  0.12478410  1
  O  O178  1  0.61762989  0.61752790  0.61618688  1
  O  O179  1  0.39146805  0.36681480  0.37726118  1
  O  O180  1  0.38710940  0.37281202  0.87410774  1
  O  O181  1  0.36962761  0.87005925  0.39241117  1
  O  O182  1  0.37945818  0.87058305  0.88318937  1
  O  O183  1  0.87712047  0.38391214  0.38346153  1
  O  O184  1  0.88713378  0.38234635  0.87615454  1
  O  O185  1  0.88747332  0.88726174  0.37051739  1
  O  O186  1  0.88357826  0.88507189  0.87356496  1
  O  O187  1  0.25491326  -0.00079335  0.36418071  1
  O  O188  1  0.24893390  0.01276956  0.87152774  1
  O  O189  1  0.25015161  0.51476229  0.37268323  1
  O  O190  1  0.24270920  0.51003550  0.86568120  1
  O  O191  1  0.76896196  -0.00327059  0.35933035  1
  O  O192  1  0.75831822  0.00844822  0.86983590  1
  O  O193  1  0.75363130  0.50655457  0.36870373  1
  O  O194  1  0.75630732  0.50202579  0.87312632  1
  O  O195  1  0.25122538  0.48540199  0.12222762  1
  O  O196  1  0.23623216  0.50060583  0.63922839  1
  O  O197  1  0.24446288  0.99354005  0.13490361  1
  O  O198  1  0.25365683  0.98219555  0.62654374  1
  O  O199  1  0.74831303  0.49951928  0.13021807  1
  O  O200  1  0.73617916  0.50542483  0.63035018  1
  O  O201  1  0.76106841  0.99385731  0.13631627  1
  O  O202  1  0.75588931  1.00057130  0.63397954  1
  O  O203  1  -0.00413042  0.36937500  0.26805082  1
  O  O204  1  -0.00140659  0.37659154  0.76380114  1
  O  O205  1  0.01029025  0.88269565  0.26550457  1
  O  O206  1  0.00586174  0.87156149  0.75451012  1
  O  O207  1  0.50441511  0.36275218  0.25516060  1
  O  O208  1  0.50805474  0.37517689  0.75477573  1
  O  O209  1  0.50726244  0.86510544  0.24787285  1
  O  O210  1  0.50737314  0.86950148  0.75475193  1
  O  O211  1  0.49459403  0.13644803  0.25160681  1
  O  O212  1  0.49270306  0.13028335  0.74657241  1
  O  O213  1  0.49262011  0.63191135  0.24653509  1
  O  O214  1  0.49060783  0.62680117  0.74537074  1
  O  O215  1  0.99137330  0.12694503  0.24342555  1
  O  O216  1  0.99364023  0.12291128  0.74081082  1
  O  O217  1  1.00058626  0.62437123  0.24191115  1
  O  O218  1  0.99386171  0.63188214  0.74685312  1
  O  O219  1  0.37374130  0.25218628  0.00887572  1
  O  O220  1  0.36737276  0.24859680  0.50570794  1
  O  O221  1  0.36786615  0.75309445  0.01226818  1
  O  O222  1  0.37717690  0.75575504  0.51273943  1
  O  O223  1  0.86942232  0.24883561  0.01531956  1
  O  O224  1  0.86012357  0.25617221  0.50084582  1
  O  O225  1  0.86944181  0.75071674  0.00713640  1
  O  O226  1  0.86025704  0.74941173  0.51193949  1
  O  O227  1  0.13139998  0.24262709  0.49295801  1
  O  O228  1  0.12526729  0.23790140  0.99367054  1
  O  O229  1  0.12328241  0.74100404  0.49736783  1
  O  O230  1  0.12956711  0.74162371  1.00006815  1
  O  O231  1  0.63568841  0.25071120  0.49048695  1
  O  O232  1  0.63000609  0.25909842  0.99291286  1
  O  O233  1  0.63429792  0.73914912  0.50830960  1
  O  O234  1  0.63424165  0.74882029  0.99535953  1
  O  O235  1  0.48974889  0.25745326  0.13257057  1
  O  O236  1  0.49457481  0.24121060  0.62832191  1
  O  O237  1  0.49270926  0.74329390  0.13035789  1
  O  O238  1  0.49041903  0.74133348  0.63194349  1
  O  O239  1  0.99402722  0.24708936  0.12734712  1
  O  O240  1  0.99545289  0.23459036  0.62190221  1
  O  O241  1  0.98964479  0.73635468  0.12265632  1
  O  O242  1  0.98991012  0.74381330  0.63219526  1
  O  O243  1  0.00740258  0.25574570  0.37715720  1
  O  O244  1  0.00452680  0.26406384  0.88087244  1
  O  O245  1  -0.00559105  0.76454286  0.37707134  1
  O  O246  1  -0.00113843  0.75693980  0.86769468  1
  O  O247  1  0.51098690  0.25391058  0.36787303  1
  O  O248  1  0.50026483  0.26439468  0.86268370  1
  O  O249  1  0.49386439  0.75208073  0.36310646  1
  O  O250  1  0.50444008  0.75588029  0.86832227  1
  O  O251  1  0.24280154  0.13290364  0.49924169  1
  O  O252  1  0.24316527  0.12586534  0.99259083  1
  O  O253  1  0.25818613  0.62175981  0.49047636  1
  O  O254  1  0.24028331  0.62557034  0.99577599  1
  O  O255  1  0.74620426  0.14243904  0.50086178  1
  O  O256  1  0.75587742  0.13502329  0.98878024  1
  O  O257  1  0.74151777  0.63256204  0.49404049  1
  O  O258  1  0.74959525  0.63420814  0.99111356  1
  O  O259  1  0.25229978  0.37326294  0.00922541  1
  O  O260  1  0.25196358  0.36350050  0.49596294  1
  O  O261  1  0.25443069  0.86839906  0.00659841  1
  O  O262  1  0.25631086  0.87320470  0.51116080  1
  O  O263  1  0.74797174  0.37442058  0.01367109  1
  O  O264  1  0.75587279  0.36224656  0.49569362  1
  O  O265  1  0.75634756  0.85939767  -0.01067731  1
  O  O266  1  0.73813377  0.86884968  0.50586830  1
  O  O267  1  0.11300206  0.49037433  0.24173997  1
  O  O268  1  0.13617607  0.50029585  0.74380542  1
  O  O269  1  0.13296142  0.99507352  0.24700993  1
  O  O270  1  0.12392176  0.98602075  0.75177840  1
  O  O271  1  0.63640966  0.50018384  0.24285180  1
  O  O272  1  0.62913137  0.49284954  0.74311839  1
  O  O273  1  0.63910041  0.98897578  0.24748630  1
  O  O274  1  0.63711526  0.99595989  0.75898975  1
  O  O275  1  0.36826200  0.00625127  0.24746035  1
  O  O276  1  0.37200605  0.01076032  0.75100680  1
  O  O277  1  0.38384044  0.51108976  0.24580155  1
  O  O278  1  0.36194197  0.51228365  0.74063668  1
  O  O279  1  0.87395950  0.00782812  0.25577772  1
  O  O280  1  0.86738775  0.00836157  0.76178628  1
  O  O281  1  0.86298227  0.49895357  0.26095610  1
  O  O282  1  0.86846564  0.50280784  0.75939739  1
  O  O283  1  0.11577515  0.36898351  0.38047300  1
  O  O284  1  0.11131842  0.36785376  0.88103307  1
  O  O285  1  0.11563715  0.87226437  0.36934565  1
  O  O286  1  0.11879581  0.87299205  0.86847285  1
  O  O287  1  0.61651003  0.36281947  0.37224326  1
  O  O288  1  0.61358198  0.36507292  0.86937385  1
  O  O289  1  0.62282314  0.86816839  0.35401394  1
  O  O290  1  0.61696831  0.86755714  0.86793525  1
  O  O291  1  0.37106428  0.13401307  0.13609273  1
  O  O292  1  0.38381186  0.13114172  0.62944658  1
  O  O293  1  0.37960529  0.63187804  0.13423501  1
  O  O294  1  0.37712880  0.63142928  0.63112862  1
  O  O295  1  0.88106719  0.13341313  0.13136267  1
  O  O296  1  0.88356944  0.13310902  0.63523385  1
  O  O297  1  0.88821436  0.63465267  0.12454465  1
  O  O298  1  0.88127507  0.62663197  0.63407871  1
  O  O299  1  0.26225770  0.25754768  0.12385710  1
  O  O300  1  0.26077507  0.24609267  0.61583049  1
  O  O301  1  0.25676676  0.75452321  0.12246015  1
  O  O302  1  0.25821338  0.76256054  0.63290803  1
  O  O303  1  0.75628104  0.26100311  0.12273109  1
  O  O304  1  0.74883998  0.25049047  0.61604634  1
  O  O305  1  0.76596188  0.74158179  0.11638643  1
  O  O306  1  0.75894207  0.74549504  0.61896750  1
  O  O307  1  0.24227342  0.24825144  0.38251512  1
  O  O308  1  0.24219989  0.24038416  0.87677336  1
  O  O309  1  0.24779507  0.72464455  0.36194726  1
  O  O310  1  0.24751754  0.73733235  0.88212364  1
  O  O311  1  0.73792566  0.25532692  0.37647714  1
  O  O312  1  0.74369146  0.24655242  0.88615518  1
  O  O313  1  0.75666734  0.74224599  0.38721093  1
  O  O314  1  0.74613984  0.74303041  0.87895192  1
  O  O315  1  0.00717197  0.12013000  0.00565187  1
  O  O316  1  0.00853019  0.12350179  0.50990650  1
  O  O317  1  0.00911982  0.61653275  -0.00240767  1
  O  O318  1  -0.00550454  0.62496864  0.51509893  1
  O  O319  1  0.53077197  0.14241997  -0.06141854  1
  O  O320  1  0.50445514  0.12548929  0.51206205  1
  O  O321  1  0.50205440  0.62108547  0.00760940  1
  O  O322  1  0.50565015  0.61937123  0.50076406  1
  O  O323  1  0.50148980  0.38212299  0.49196534  1
  O  O324  1  0.49782474  0.38528760  0.99028767  1
  O  O325  1  0.48481275  0.87049536  0.49934791  1
  O  O326  1  0.48743628  0.86116056  0.99033096  1
  O  O327  1  0.98512076  0.36845272  0.48862278  1
  O  O328  1  1.00300294  0.38843954  0.99864182  1
  O  O329  1  1.00306201  0.88029156  0.48699146  1
  O  O330  1  1.00080555  0.88268146  0.99268567  1
  O  O331  1  0.50843895  0.48963792  0.38324630  1
  O  O332  1  0.50671924  0.49497026  0.88376571  1
  O  O333  1  0.49823852  0.99427155  0.36991125  1
  O  O334  1  0.49217707  0.98204351  0.87103882  1
  O  O335  1  0.98665490  0.49525759  0.37624591  1
  O  O336  1  0.99487680  0.49012688  0.88062639  1
  O  O337  1  0.98900925  0.99374308  0.37965984  1
  O  O338  1  0.99391735  0.99685835  0.87986462  1
  O  O339  1  0.00588134  0.00576502  0.12009322  1
  O  O340  1  -0.00770759  0.01950401  0.62165533  1
  O  O341  1  -0.00776130  0.51391566  0.11837968  1
  O  O342  1  0.01372196  0.50938253  0.63578336  1
  O  O343  1  0.50153184  0.00836312  0.10932053  1
  O  O344  1  0.49661663  0.01450166  0.62905922  1
  O  O345  1  0.50964453  0.50345102  0.12032972  1
  O  O346  1  0.51020598  0.50549931  0.61896951  1
  O  O347  1  0.25254845  0.37014648  0.23664275  1
  O  O348  1  0.25458343  0.38991126  0.75732549  1
  O  O349  1  0.24397026  0.88068294  0.24668699  1
  O  O350  1  0.24225547  0.87595881  0.74243503  1
  O  O351  1  0.74845282  0.38515493  0.23920970  1
  O  O352  1  0.73640055  0.38008304  0.75770172  1
  O  O353  1  0.74226540  0.87748323  0.25123004  1
  O  O354  1  0.73602205  0.88221627  0.75518278  1
  O  O355  1  0.25752404  0.11555242  0.25142443  1
  O  O356  1  0.25641641  0.12309473  0.75449502  1
  O  O357  1  0.26486983  0.61863487  0.24410867  1
  O  O358  1  0.25372125  0.62059073  0.75846397  1
  O  O359  1  0.76388555  0.11664744  0.24576847  1
  O  O360  1  0.76107960  0.11860692  0.75311328  1
  O  O361  1  0.74501703  0.62053623  0.26415262  1
  O  O362  1  0.75388219  0.61752202  0.75643894  1
  O  O363  1  0.37310573  0.12591557  0.36114718  1
  O  O364  1  0.36469867  0.12458934  0.86507801  1
  O  O365  1  0.36721069  0.62434442  0.36145261  1
  O  O366  1  0.36544135  0.62847099  0.86608498  1
  O  O367  1  0.88296654  0.11460812  0.36696180  1
  O  O368  1  0.87087290  0.12193224  0.87026733  1
  O  O369  1  0.86421692  0.61616973  0.38398917  1
  O  O370  1  0.87071276  0.61661054  0.86777357  1
  O  O371  1  0.14163574  0.37002412  0.12688869  1
  O  O372  1  0.11506783  0.38736417  0.62113246  1
  O  O373  1  0.12692074  0.88019369  0.13325498  1
  O  O374  1  0.13582424  0.87032697  0.62960268  1
  O  O375  1  0.63245430  0.38818842  0.12746114  1
  O  O376  1  0.61873967  0.38233234  0.63570750  1
  O  O377  1  0.62386424  0.87664453  0.13954164  1
  O  O378  1  0.62037566  0.87699119  0.63253786  1
  O  O379  1  0.12518990  0.25262925  0.26476254  1
  O  O380  1  0.12624908  0.24638080  0.76280190  1
  O  O381  1  0.12611178  0.76181193  0.25094218  1
  O  O382  1  0.11637153  0.76110787  0.75162380  1
  O  O383  1  0.62240780  0.24917947  0.25791250  1
  O  O384  1  0.61852854  0.25672961  0.75777374  1
  O  O385  1  0.61721704  0.75665907  0.24236699  1
  O  O386  1  0.61981963  0.75697380  0.75348435  1
  O  O387  1  0.38409767  0.24242819  0.24318722  1
  O  O388  1  0.37852531  0.24001481  0.74145397  1
  O  O389  1  0.38201951  0.74735555  0.24010212  1
  O  O390  1  0.37847756  0.73990496  0.74208873  1
  O  O391  1  0.87389503  0.24308277  0.24141122  1
  O  O392  1  0.86874526  0.24041644  0.75340748  1
  O  O393  1  0.86974503  0.75066445  0.23789211  1
  O  O394  1  0.87805588  0.74411155  0.74509516  1
  O  O395  1  0.39039060  0.49724615  0.51010659  1
  O  O396  1  0.38993017  0.50179688  1.00475545  1
  O  O397  1  0.37014401  0.98470984  0.49944129  1
  O  O398  1  0.36644523  0.98572191  0.99778748  1
  O  O399  1  0.86311359  0.49109653  0.49186656  1
  O  O400  1  0.88204103  0.50750435  0.98776396  1
  O  O401  1  0.87149740  1.00736052  0.48555732  1
  O  O402  1  0.87851960  1.00016271  0.98926697  1
  O  O403  1  0.12198919  0.01080363  0.00617400  1
  O  O404  1  0.12671426  0.01219304  0.49503827  1
  O  O405  1  0.11652078  0.50820046  0.00878092  1
  O  O406  1  0.13059550  0.50577673  0.51782981  1
  O  O407  1  0.62463919  -0.00003134  0.00146129  1
  O  O408  1  0.64478373  -0.00524159  0.50447862  1
  O  O409  1  0.61648122  0.50347938  0.00798349  1
  O  O410  1  0.61907003  0.50473218  0.50656509  1
  O  O411  1  0.36657118  0.36829790  0.12240246  1
  O  O412  1  0.38347504  0.36028470  0.62260746  1
  O  O413  1  0.37116912  0.86764216  0.11990246  1
  O  O414  1  0.36765304  0.86779578  0.61670673  1
  O  O415  1  0.86946868  0.36949222  0.13205810  1
  O  O416  1  0.87873441  0.37613577  0.61274703  1
  O  O417  1  0.88643376  0.85844305  0.12399194  1
  O  O418  1  0.87683916  0.86549394  0.63458930  1
  O  O419  1  0.12504493  0.13205656  0.38303913  1
  O  O420  1  0.12875838  0.13062696  0.88139811  1
  O  O421  1  0.13688456  0.62312227  0.38112335  1
  O  O422  1  0.13042357  0.62610383  0.88365184  1
  O  O423  1  0.62174563  0.13858249  0.37713580  1
  O  O424  1  0.64835018  0.13613250  0.85170967  1
  O  O425  1  0.63261379  0.62085784  0.38737047  1
  O  O426  1  0.63163362  0.63230493  0.87435312  1
