# generated using pymatgen
data_V85Zn86O256
_symmetry_space_group_name_H-M   'P 1'
_cell_length_a   16.97241853
_cell_length_b   16.93324218
_cell_length_c   16.96630939
_cell_angle_alpha   89.91302857
_cell_angle_beta   90.04303594
_cell_angle_gamma   90.03172579
_symmetry_Int_Tables_number   1
_chemical_formula_structural   V85Zn86O256
_chemical_formula_sum   'V85 Zn86 O256'
_cell_volume   4876.07689250
_cell_formula_units_Z   1
loop_
 _symmetry_equiv_pos_site_id
 _symmetry_equiv_pos_as_xyz
  1  'x, y, z'
loop_
 _atom_site_type_symbol
 _atom_site_label
 _atom_site_symmetry_multiplicity
 _atom_site_fract_x
 _atom_site_fract_y
 _atom_site_fract_z
 _atom_site_occupancy
  V  V0  1  0.12863089  0.00762036  0.12676469  1
  V  V1  1  0.25317706  0.49873075  0.24972516  1
  V  V2  1  -0.01458114  0.14012961  0.63612809  1
  V  V3  1  0.11584022  -0.00263727  0.62750994  1
  V  V4  1  -0.02101950  0.12389110  0.12877756  1
  V  V5  1  0.38242473  0.62738467  0.25914133  1
  V  V6  1  0.62846097  0.87753670  0.74923953  1
  V  V7  1  -0.01308575  0.24335232  0.24661269  1
  V  V8  1  0.87480476  0.36302032  0.01089316  1
  V  V9  1  0.25116498  0.75393372  0.49757098  1
  V  V10  1  0.75372049  0.12480046  0.36477314  1
  V  V11  1  -0.00616725  0.49222498  0.00330425  1
  V  V12  1  0.00165879  0.00023477  0.00009490  1
  V  V13  1  0.12394993  0.87584809  0.25002994  1
  V  V14  1  0.37495333  0.87026311  -0.00389553  1
  V  V15  1  -0.00315509  0.62131695  0.62559892  1
  V  V16  1  0.61784275  0.87067390  0.24890944  1
  V  V17  1  -0.02095820  0.36237534  0.84839589  1
  V  V18  1  0.87790028  0.00364334  0.86601429  1
  V  V19  1  0.87306298  0.74251095  0.62754640  1
  V  V20  1  0.86173092  0.50114930  0.37248067  1
  V  V21  1  0.35448452  0.46761000  0.39845184  1
  V  V22  1  0.00134837  0.62611437  0.13789057  1
  V  V23  1  0.49643015  0.25220806  0.23852163  1
  V  V24  1  0.37320466  0.00371542  0.86454340  1
  V  V25  1  0.50330492  0.25244997  0.74863812  1
  V  V26  1  0.49414621  0.39479249  0.88780195  1
  V  V27  1  0.25207040  0.87617306  0.12793659  1
  V  V28  1  0.50032628  0.12389263  0.62735037  1
  V  V29  1  0.61107342  0.74405591  0.37222888  1
  V  V30  1  0.87477309  0.87412881  0.49623218  1
  V  V31  1  0.50074339  0.49387818  0.50689663  1
  V  V32  1  0.26521812  0.37194563  0.11734550  1
  V  V33  1  0.49771399  0.89240535  0.37760950  1
  V  V34  1  0.62629806  0.38726958  0.74770014  1
  V  V35  1  0.49969748  0.00224809  -0.00606576  1
  V  V36  1  0.12598668  0.36937254  0.24646903  1
  V  V37  1  0.74949958  0.74456252  0.48553129  1
  V  V38  1  0.37809856  0.75410278  0.61788371  1
  V  V39  1  0.49971410  0.36830352  0.38094876  1
  V  V40  1  0.75005039  0.37800215  0.62112429  1
  V  V41  1  0.62343097  -0.00060474  0.61532474  1
  V  V42  1  0.62512294  0.61349784  0.00068938  1
  V  V43  1  0.62608010  0.25440880  0.87719672  1
  V  V44  1  0.12583121  0.62624064  0.49744765  1
  V  V45  1  0.11476308  0.62434119  -0.00732040  1
  V  V46  1  0.28909880  0.60761700  0.90830793  1
  V  V47  1  0.13004924  0.37434377  0.75408383  1
  V  V48  1  -0.00067907  0.87284583  0.37225051  1
  V  V49  1  0.75542347  0.12888877  0.86794794  1
  V  V50  1  0.62214627  0.00236319  0.12315023  1
  V  V51  1  0.12443520  0.75244024  0.36857626  1
  V  V52  1  0.38163016  0.75017608  0.13086253  1
  V  V53  1  0.36925917  0.62812561  0.74116869  1
  V  V54  1  0.00339921  0.86986684  0.87304719  1
  V  V55  1  0.62773561  0.61830922  0.50076266  1
  V  V56  1  0.27188182  0.48564151  0.72343155  1
  V  V57  1  -0.00304347  0.49861749  0.49709203  1
  V  V58  1  0.62672544  0.75052653  0.87593309  1
  V  V59  1  0.37651431  0.11561600  0.23664816  1
  V  V60  1  -0.00098466  0.37328381  0.37261764  1
  V  V61  1  0.28172278  0.13196862  0.39551229  1
  V  V62  1  0.25235629  0.62964188  0.37405181  1
  V  V63  1  0.11953804  0.12707745  0.50118892  1
  V  V64  1  0.75334105  0.37140879  0.13776893  1
  V  V65  1  0.74944767  0.74800578  0.00068401  1
  V  V66  1  0.75256960  0.24184280  0.50937099  1
  V  V67  1  0.85992845  0.62498680  0.25609700  1
  V  V68  1  0.37734139  0.89949427  0.49661223  1
  V  V69  1  0.12577181  0.49496537  0.62519569  1
  V  V70  1  0.33865710  0.16501533  0.72811911  1
  V  V71  1  0.50212886  0.75106544  0.74658998  1
  V  V72  1  0.12439210  0.49785847  0.12611829  1
  V  V73  1  0.75707816  0.62428838  0.87086368  1
  V  V74  1  0.75905521  0.50532141  0.74279186  1
  V  V75  1  0.26280307  0.24797556  -0.00110287  1
  V  V76  1  0.75042713  0.87259960  0.62279333  1
  V  V77  1  0.24900263  0.88038154  0.62691582  1
  V  V78  1  0.63026529  0.50109133  0.14084856  1
  V  V79  1  0.87568170  0.87299390  -0.00069930  1
  V  V80  1  0.74764614  0.87355495  0.12515039  1
  V  V81  1  0.50115386  0.61982332  0.12605820  1
  V  V82  1  0.12591457  0.24225906  0.37617826  1
  V  V83  1  -0.00134753  0.73543424  0.75258639  1
  V  V84  1  0.88019957  0.75035332  0.13132506  1
  Zn  Zn85  1  0.12126378  0.25031231  0.88065914  1
  Zn  Zn86  1  0.49879193  0.87424668  0.87266247  1
  Zn  Zn87  1  0.12475494  0.86693322  0.74895671  1
  Zn  Zn88  1  0.62610301  0.37405870  0.25416647  1
  Zn  Zn89  1  0.25371240  0.00269784  0.26455615  1
  Zn  Zn90  1  0.12289553  0.13089116  0.00063893  1
  Zn  Zn91  1  0.24559932  -0.00679747  0.75602194  1
  Zn  Zn92  1  0.50549884  0.61883886  0.62373288  1
  Zn  Zn93  1  0.75147084  0.24724022  0.00580939  1
  Zn  Zn94  1  0.75393057  0.00408372  0.24363986  1
  Zn  Zn95  1  0.87711311  0.00392104  0.36486069  1
  Zn  Zn96  1  0.62165322  0.12209569  0.49732005  1
  Zn  Zn97  1  0.62575549  0.12614241  -0.00473624  1
  Zn  Zn98  1  0.87630179  0.36793678  0.50010378  1
  Zn  Zn99  1  0.49904996  0.13527487  0.11297356  1
  Zn  Zn100  1  0.24441296  0.74945146  0.00254591  1
  Zn  Zn101  1  -0.00526855  0.00106827  0.50114904  1
  Zn  Zn102  1  0.13200467  0.74085948  0.87181421  1
  Zn  Zn103  1  0.75602985  0.00720308  0.74405248  1
  Zn  Zn104  1  0.62501654  0.24667951  0.37517567  1
  Zn  Zn105  1  0.87361975  0.50314213  0.87749535  1
  Zn  Zn106  1  0.24294478  0.12113008  0.87865002  1
  Zn  Zn107  1  0.19171883  0.19043783  0.18765576  1
  Zn  Zn108  1  0.16955817  0.18367652  0.69224769  1
  Zn  Zn109  1  0.19098450  0.68781153  0.18618699  1
  Zn  Zn110  1  0.18675694  0.68528987  0.68280757  1
  Zn  Zn111  1  0.68185264  0.19002554  0.18667417  1
  Zn  Zn112  1  0.68612179  0.18943667  0.68934005  1
  Zn  Zn113  1  0.68621459  0.69045178  0.19009954  1
  Zn  Zn114  1  0.68762857  0.68612598  0.68293642  1
  Zn  Zn115  1  0.31170778  0.30124621  0.30707373  1
  Zn  Zn116  1  0.31563286  0.32223101  0.82882847  1
  Zn  Zn117  1  0.31704598  0.81639341  0.31223952  1
  Zn  Zn118  1  0.30913450  0.80137237  0.81641497  1
  Zn  Zn119  1  0.81166052  0.30998059  0.31896758  1
  Zn  Zn120  1  0.81099783  0.31891363  0.81467002  1
  Zn  Zn121  1  0.80988821  0.81558285  0.30769812  1
  Zn  Zn122  1  0.81561596  0.81123412  0.81013100  1
  Zn  Zn123  1  0.17986218  0.43621809  0.43315452  1
  Zn  Zn124  1  0.18386495  0.43638236  0.93612111  1
  Zn  Zn125  1  0.19177325  0.94895200  0.44136412  1
  Zn  Zn126  1  0.18672041  0.93578914  0.94041183  1
  Zn  Zn127  1  0.68355487  0.43271809  0.43941658  1
  Zn  Zn128  1  0.69075773  0.43641582  0.93986483  1
  Zn  Zn129  1  0.68860626  0.93710126  0.43306881  1
  Zn  Zn130  1  0.68998211  0.93947879  0.93438433  1
  Zn  Zn131  1  0.31482511  0.06129238  0.06066786  1
  Zn  Zn132  1  0.31011522  0.17110137  0.56514688  1
  Zn  Zn133  1  0.31284780  0.56319779  0.07159489  1
  Zn  Zn134  1  0.31306325  0.43912647  0.56110628  1
  Zn  Zn135  1  0.80789169  0.05913076  0.05215929  1
  Zn  Zn136  1  0.81307940  0.06041467  0.56087250  1
  Zn  Zn137  1  0.80997143  0.55999636  0.06896822  1
  Zn  Zn138  1  0.81002726  0.56073904  0.55926226  1
  Zn  Zn139  1  0.43955994  0.44249440  0.19553644  1
  Zn  Zn140  1  0.44362988  0.44040806  0.69821971  1
  Zn  Zn141  1  0.44225263  0.93707274  0.18537664  1
  Zn  Zn142  1  0.43946846  0.93786171  0.68340621  1
  Zn  Zn143  1  0.93604909  0.43865405  0.19231053  1
  Zn  Zn144  1  0.93103179  0.42110254  0.68917272  1
  Zn  Zn145  1  0.93978489  0.93854373  0.18885237  1
  Zn  Zn146  1  0.93973153  0.92924295  0.68762407  1
  Zn  Zn147  1  0.05865948  0.05994915  0.31060086  1
  Zn  Zn148  1  0.06282123  0.06463428  0.81041861  1
  Zn  Zn149  1  0.06234687  0.56084131  0.31206724  1
  Zn  Zn150  1  0.06002551  0.54426468  0.80988957  1
  Zn  Zn151  1  0.56756709  0.06811735  0.30581460  1
  Zn  Zn152  1  0.56531476  0.06463651  0.80987160  1
  Zn  Zn153  1  0.55454646  0.55774990  0.32302469  1
  Zn  Zn154  1  0.56733763  0.56705511  0.80983207  1
  Zn  Zn155  1  0.44958700  0.17362011  0.42873852  1
  Zn  Zn156  1  0.43604432  0.18688184  0.92494057  1
  Zn  Zn157  1  0.44032867  0.68576293  0.44163243  1
  Zn  Zn158  1  0.44286132  0.68253022  0.94032910  1
  Zn  Zn159  1  0.93693276  0.18577885  0.43959637  1
  Zn  Zn160  1  0.93851798  0.18604276  0.93965154  1
  Zn  Zn161  1  0.93883714  0.68892781  0.43404082  1
  Zn  Zn162  1  0.93800924  0.68580818  0.94230351  1
  Zn  Zn163  1  0.06558032  0.30662061  0.06539776  1
  Zn  Zn164  1  0.06421283  0.31233623  0.56447682  1
  Zn  Zn165  1  0.06237966  0.81202284  0.06418101  1
  Zn  Zn166  1  0.06053551  0.81046428  0.56049659  1
  Zn  Zn167  1  0.56695113  0.31998639  0.06070384  1
  Zn  Zn168  1  0.56631185  0.30966125  0.56377081  1
  Zn  Zn169  1  0.55887754  0.80889967  0.06157102  1
  Zn  Zn170  1  0.56274850  0.81466850  0.55615602  1
  O  O171  1  0.12577487  0.11325388  0.12722902  1
  O  O172  1  0.11132078  0.11584816  0.62026518  1
  O  O173  1  0.11682043  0.61994746  0.12133146  1
  O  O174  1  0.11577505  0.61920441  0.61555790  1
  O  O175  1  0.62225481  0.11583364  0.11716492  1
  O  O176  1  0.62141837  0.11449239  0.62720566  1
  O  O177  1  0.62037289  0.62067938  0.12307372  1
  O  O178  1  0.62161310  0.63202778  0.60654327  1
  O  O179  1  0.38796287  0.37025862  0.36190298  1
  O  O180  1  0.39454068  0.38750444  0.87493590  1
  O  O181  1  0.38942291  0.87649665  0.38005703  1
  O  O182  1  0.37443446  0.87475784  0.88395841  1
  O  O183  1  0.88200161  0.38426807  0.37649859  1
  O  O184  1  0.87554474  0.38224044  0.89768153  1
  O  O185  1  0.88400083  0.86753985  0.38045765  1
  O  O186  1  0.88627857  0.87634975  0.87989967  1
  O  O187  1  0.24874108  0.02866942  0.37973414  1
  O  O188  1  0.25861097  -0.00133554  0.87716312  1
  O  O189  1  0.25123553  0.51150774  0.36729205  1
  O  O190  1  0.24643036  0.52307808  0.87433186  1
  O  O191  1  0.74973884  0.01332074  0.37359180  1
  O  O192  1  0.76072000  0.00771860  0.87224510  1
  O  O193  1  0.76320446  0.49442709  0.38233471  1
  O  O194  1  0.75051240  0.50866361  0.86778552  1
  O  O195  1  0.24519134  0.49153512  0.12857020  1
  O  O196  1  0.23362627  0.50858614  0.61813850  1
  O  O197  1  0.24283651  0.99224871  0.12340742  1
  O  O198  1  0.23951798  0.98375342  0.62881226  1
  O  O199  1  0.74090802  0.48898690  0.12799982  1
  O  O200  1  0.74886356  0.49474777  0.63110237  1
  O  O201  1  0.73592669  0.99156825  0.11712684  1
  O  O202  1  0.74396066  0.99120094  0.62694347  1
  O  O203  1  0.00717238  0.36772334  0.25267085  1
  O  O204  1  0.02644651  0.41313038  0.75503202  1
  O  O205  1  0.01601538  0.87579277  0.25612646  1
  O  O206  1  0.00197346  0.85839406  0.75822652  1
  O  O207  1  0.50092883  0.36419374  0.25502748  1
  O  O208  1  0.51125772  0.37209910  0.75801387  1
  O  O209  1  0.50919348  0.87795307  0.26059734  1
  O  O210  1  0.50820801  0.86484264  0.74958011  1
  O  O211  1  0.49447610  0.13332464  0.24100749  1
  O  O212  1  0.50677312  0.13816481  0.74244818  1
  O  O213  1  0.48744134  0.62040093  0.24823928  1
  O  O214  1  0.49857518  0.63729453  0.74443167  1
  O  O215  1  0.99964110  0.13021186  0.24045853  1
  O  O216  1  1.00067367  0.12476748  0.73522229  1
  O  O217  1  0.99620452  0.62425534  0.24042046  1
  O  O218  1  1.00221534  0.62861578  0.74585464  1
  O  O219  1  0.36275602  0.24786794  -0.00632604  1
  O  O220  1  0.34456972  0.19639984  0.46355883  1
  O  O221  1  0.37541542  0.75622273  0.00827666  1
  O  O222  1  0.37269040  0.75463046  0.50880337  1
  O  O223  1  0.87365472  0.26015532  0.00419707  1
  O  O224  1  0.85659123  0.25120076  0.49255516  1
  O  O225  1  0.86910270  0.75335081  0.00958798  1
  O  O226  1  0.86752862  0.75507538  0.50215259  1
  O  O227  1  0.12018960  0.24351637  0.48848156  1
  O  O228  1  0.13890109  0.24959723  1.00152960  1
  O  O229  1  0.12905070  0.74826402  0.48728501  1
  O  O230  1  0.12238636  0.73883039  0.99827355  1
  O  O231  1  0.63869625  0.24630391  0.49749149  1
  O  O232  1  0.62808041  0.25183681  0.98672198  1
  O  O233  1  0.63148244  0.74476027  0.49025260  1
  O  O234  1  0.63253116  0.74362409  0.99685520  1
  O  O235  1  0.50538263  0.25409481  0.13449651  1
  O  O236  1  0.50358869  0.24800847  0.64135775  1
  O  O237  1  0.48903948  0.73949797  0.12547222  1
  O  O238  1  0.49312460  0.75506873  0.62916524  1
  O  O239  1  1.00279111  0.23444681  0.13407726  1
  O  O240  1  0.99765369  0.23997869  0.62272812  1
  O  O241  1  0.98768264  0.74214410  0.12173819  1
  O  O242  1  0.99328200  0.74216319  0.63160086  1
  O  O243  1  0.00585075  0.25398902  0.36798965  1
  O  O244  1  0.00134914  0.26719493  0.88635495  1
  O  O245  1  0.01084519  0.76194281  0.37703742  1
  O  O246  1  -0.00254466  0.75272107  0.86784916  1
  O  O247  1  0.50350097  0.25351418  0.36612600  1
  O  O248  1  0.51057814  0.25767415  0.86682158  1
  O  O249  1  0.50937896  0.75973745  0.38013619  1
  O  O250  1  0.50921751  0.75096492  0.86552900  1
  O  O251  1  0.22503529  0.12049161  0.50086479  1
  O  O252  1  0.24989717  0.13760853  1.00181890  1
  O  O253  1  0.23970568  0.63733956  0.48748303  1
  O  O254  1  0.23083788  0.62371541  1.00364829  1
  O  O255  1  0.74669765  0.13205291  0.49623784  1
  O  O256  1  0.74674868  0.12842438  0.98490117  1
  O  O257  1  0.74212322  0.63310630  0.49902807  1
  O  O258  1  0.74445439  0.62987075  0.99612561  1
  O  O259  1  0.24937249  0.37154714  0.01038547  1
  O  O260  1  0.28289755  0.40051842  0.46149786  1
  O  O261  1  0.26066334  0.87167477  0.00738381  1
  O  O262  1  0.25903867  0.87296350  0.50334729  1
  O  O263  1  0.75939725  0.37517166  0.01305583  1
  O  O264  1  0.74727082  0.36335363  0.50628106  1
  O  O265  1  0.75519945  0.86856086  0.00471565  1
  O  O266  1  0.75533657  0.86538934  0.50265356  1
  O  O267  1  0.13300207  0.49218928  0.24619625  1
  O  O268  1  0.14557940  0.50092611  0.73765417  1
  O  O269  1  0.13011955  0.99352848  0.24401894  1
  O  O270  1  0.12354053  0.99178543  0.73887358  1
  O  O271  1  0.61860269  0.50049197  0.24358387  1
  O  O272  1  0.63411875  0.49190777  0.75092441  1
  O  O273  1  0.62764989  0.99276085  0.23695578  1
  O  O274  1  0.62870240  0.98657049  0.74586697  1
  O  O275  1  0.37347701  0.01027835  0.24005731  1
  O  O276  1  0.37197555  -0.01491323  0.76306565  1
  O  O277  1  0.36760709  0.50565562  0.26618303  1
  O  O278  1  0.37661446  0.52244242  0.75626366  1
  O  O279  1  0.86483728  -0.01469938  0.25332297  1
  O  O280  1  0.87436407  -0.01290469  0.76338777  1
  O  O281  1  0.87948164  0.51508140  0.25912906  1
  O  O282  1  0.86161687  0.49925043  0.75223601  1
  O  O283  1  0.11902769  0.36495920  0.36596135  1
  O  O284  1  0.11275637  0.37640896  0.86614879  1
  O  O285  1  0.12256893  0.87242028  0.36992243  1
  O  O286  1  0.11325064  0.86771444  0.87708993  1
  O  O287  1  0.61145125  0.37318029  0.37217160  1
  O  O288  1  0.62478000  0.37099664  0.86752917  1
  O  O289  1  0.61495623  0.87020500  0.36928775  1
  O  O290  1  0.62611766  0.86893978  0.86540093  1
  O  O291  1  0.38193121  0.12317093  0.13120382  1
  O  O292  1  0.38573893  0.11749706  0.64299830  1
  O  O293  1  0.38303081  0.62946787  0.13621637  1
  O  O294  1  0.38488227  0.63940963  0.63437444  1
  O  O295  1  0.88042504  0.11523552  0.12168637  1
  O  O296  1  0.88696931  0.11986445  0.62290974  1
  O  O297  1  0.87964958  0.62966126  0.13729713  1
  O  O298  1  0.88066558  0.63543652  0.61589401  1
  O  O299  1  0.25186069  0.26384300  0.11557722  1
  O  O300  1  0.27368966  0.22256490  0.65815922  1
  O  O301  1  0.26194334  0.75614624  0.12359330  1
  O  O302  1  0.25656335  0.75883682  0.61703402  1
  O  O303  1  0.74151481  0.26675248  0.12349469  1
  O  O304  1  0.74821354  0.25421448  0.61442375  1
  O  O305  1  0.75900677  0.75429885  0.12109858  1
  O  O306  1  0.75765868  0.75313025  0.61585841  1
  O  O307  1  0.23379786  0.23323122  0.36287202  1
  O  O308  1  0.24639649  0.25289155  0.89001751  1
  O  O309  1  0.24434060  0.75052110  0.37854827  1
  O  O310  1  0.25027860  0.72102516  0.88376455  1
  O  O311  1  0.74624880  0.23886161  0.38261241  1
  O  O312  1  0.74598875  0.24662898  0.87460175  1
  O  O313  1  0.73966469  0.75642720  0.38310484  1
  O  O314  1  0.74618391  0.74399442  0.87855714  1
  O  O315  1  0.00084886  0.11728727  0.01128345  1
  O  O316  1  0.00409709  0.12165386  0.50933077  1
  O  O317  1  -0.00011032  0.61639742  0.01427283  1
  O  O318  1  0.00599090  0.61839989  0.50163749  1
  O  O319  1  0.50069406  0.11589446  -0.00537780  1
  O  O320  1  0.50462486  0.13513427  0.52177748  1
  O  O321  1  0.51512950  0.63144480  0.01340996  1
  O  O322  1  0.50790469  0.61392018  0.50083935  1
  O  O323  1  0.50085405  0.37742149  0.49379255  1
  O  O324  1  0.50677672  0.37928575  0.98643660  1
  O  O325  1  0.49282450  0.87744312  0.48682766  1
  O  O326  1  0.48962825  0.88047801  0.99709337  1
  O  O327  1  0.99902029  0.38262780  0.49370586  1
  O  O328  1  0.98927440  0.38125653  1.01798109  1
  O  O329  1  0.99006702  0.87243297  0.49160054  1
  O  O330  1  0.99521756  0.87847220  0.99357404  1
  O  O331  1  0.48490364  0.48567486  0.38631128  1
  O  O332  1  0.51168275  0.49371144  0.87522475  1
  O  O333  1  0.50848034  0.99055543  0.37293112  1
  O  O334  1  0.49400403  0.99726219  0.87816290  1
  O  O335  1  0.99728239  0.49347083  0.38121349  1
  O  O336  1  0.99196326  0.48458051  0.88741677  1
  O  O337  1  0.99793562  0.98572421  0.37819890  1
  O  O338  1  0.99580997  0.99027556  0.87804575  1
  O  O339  1  0.00855723  0.00595805  0.12168552  1
  O  O340  1  0.00501900  -0.00339444  0.62249018  1
  O  O341  1  0.00544639  0.50690118  0.12395508  1
  O  O342  1  0.00538891  0.50253548  0.61559963  1
  O  O343  1  0.51013295  -0.00113715  0.11254484  1
  O  O344  1  0.51207414  0.00967819  0.63408520  1
  O  O345  1  0.50641798  0.51271231  0.12935462  1
  O  O346  1  0.49561584  0.49614789  0.61148079  1
  O  O347  1  0.24641875  0.37597245  0.23976133  1
  O  O348  1  0.23798485  0.39149305  0.77412939  1
  O  O349  1  0.24237083  0.88115229  0.24748859  1
  O  O350  1  0.24564796  0.86744900  0.74180541  1
  O  O351  1  0.74750797  0.37085627  0.24183298  1
  O  O352  1  0.74401112  0.38466229  0.74260751  1
  O  O353  1  0.73444647  0.87409499  0.24133517  1
  O  O354  1  0.74280438  0.87164463  0.74099767  1
  O  O355  1  0.26852769  0.12624828  0.24799458  1
  O  O356  1  0.24489303  0.11499396  0.75739263  1
  O  O357  1  0.25963899  0.61960047  0.25356269  1
  O  O358  1  0.26558352  0.61589229  0.73516064  1
  O  O359  1  0.74559870  0.12635759  0.26139865  1
  O  O360  1  0.74907589  0.12498266  0.76194899  1
  O  O361  1  0.76159061  0.62453919  0.24881939  1
  O  O362  1  0.74111885  0.61804450  0.75888500  1
  O  O363  1  0.38193579  0.11563868  0.35078940  1
  O  O364  1  0.36893496  0.11656250  0.85754348  1
  O  O365  1  0.36712284  0.63149108  0.37049970  1
  O  O366  1  0.37533928  0.64853818  0.84854359  1
  O  O367  1  0.85862366  0.12196789  0.38050541  1
  O  O368  1  0.87123240  0.11503745  0.87788270  1
  O  O369  1  0.87935710  0.62076949  0.36221344  1
  O  O370  1  0.86063908  0.62483045  0.88162473  1
  O  O371  1  0.13291674  0.38076935  0.13201838  1
  O  O372  1  0.12578758  0.38338018  0.63607863  1
  O  O373  1  0.12896427  0.88112515  0.13337865  1
  O  O374  1  0.13024966  0.87817304  0.62319007  1
  O  O375  1  0.63488801  0.38563056  0.12917325  1
  O  O376  1  0.63659012  0.37019439  0.63648127  1
  O  O377  1  0.62432437  0.87719812  0.13156551  1
  O  O378  1  0.62912174  0.87905066  0.62998957  1
  O  O379  1  0.11775296  0.25332893  0.25454419  1
  O  O380  1  0.12560561  0.27139164  0.75320095  1
  O  O381  1  0.13272834  0.75786964  0.26086619  1
  O  O382  1  0.11549121  0.74485853  0.75294114  1
  O  O383  1  0.60965288  0.25023293  0.25358401  1
  O  O384  1  0.62190333  0.26174506  0.75939900  1
  O  O385  1  0.62576206  0.75724848  0.25994617  1
  O  O386  1  0.61993862  0.75821244  0.75104455  1
  O  O387  1  0.39032207  0.23800504  0.24909270  1
  O  O388  1  0.38714725  0.25240097  0.76621509  1
  O  O389  1  0.37084685  0.74108095  0.24244463  1
  O  O390  1  0.38255558  0.75107278  0.73660889  1
  O  O391  1  0.88850560  0.25419373  0.25439719  1
  O  O392  1  0.91327972  0.32683443  0.76754527  1
  O  O393  1  0.87164054  0.73873213  0.24360092  1
  O  O394  1  0.88316183  0.75030308  0.73770189  1
  O  O395  1  0.38399594  0.50769557  0.49273481  1
  O  O396  1  0.36503111  0.57384883  0.97116294  1
  O  O397  1  0.37256271  0.99497295  0.50250342  1
  O  O398  1  0.38403852  0.99313064  0.98993428  1
  O  O399  1  0.88665344  0.50319287  0.49098212  1
  O  O400  1  0.88520531  0.49694830  1.00700683  1
  O  O401  1  0.87247071  0.98260256  0.49532421  1
  O  O402  1  0.88144953  0.99045143  0.98910134  1
  O  O403  1  0.11782183  -0.00105716  0.01053166  1
  O  O404  1  0.11825981  0.00466397  0.51238426  1
  O  O405  1  0.11149413  0.50299241  0.00637283  1
  O  O406  1  0.11435108  0.50325188  0.50268096  1
  O  O407  1  0.61280646  -0.00298933  0.00090327  1
  O  O408  1  0.62805366  -0.00249442  0.51259707  1
  O  O409  1  0.63293418  0.51141823  0.01163196  1
  O  O410  1  0.61462141  0.50751276  0.49248955  1
  O  O411  1  0.36252084  0.38674596  0.12718174  1
  O  O412  1  0.33780207  0.41301500  0.66579432  1
  O  O413  1  0.37444727  0.86721093  0.11951652  1
  O  O414  1  0.36888847  0.87245803  0.61549461  1
  O  O415  1  0.86032615  0.38172809  0.12602058  1
  O  O416  1  0.85681101  0.37999968  0.61508272  1
  O  O417  1  0.87203566  0.86548506  0.12033439  1
  O  O418  1  0.87232471  0.86209109  0.61539308  1
  O  O419  1  0.11170536  0.13162892  0.38487526  1
  O  O420  1  0.12400176  0.12947639  0.88049570  1
  O  O421  1  0.12963584  0.63457711  0.37507030  1
  O  O422  1  0.10564478  0.61945669  0.89018257  1
  O  O423  1  0.63618688  0.12438973  0.37886855  1
  O  O424  1  0.63358429  0.13550342  0.87362740  1
  O  O425  1  0.61715060  0.63322233  0.38458240  1
  O  O426  1  0.63406947  0.63091046  0.88440763  1
