# generated using pymatgen
data_V85Zn86O256
_symmetry_space_group_name_H-M   'P 1'
_cell_length_a   16.94279089
_cell_length_b   16.93979166
_cell_length_c   16.94188453
_cell_angle_alpha   89.97705547
_cell_angle_beta   89.94188609
_cell_angle_gamma   90.10110186
_symmetry_Int_Tables_number   1
_chemical_formula_structural   V85Zn86O256
_chemical_formula_sum   'V85 Zn86 O256'
_cell_volume   4862.43488083
_cell_formula_units_Z   1
loop_
 _symmetry_equiv_pos_site_id
 _symmetry_equiv_pos_as_xyz
  1  'x, y, z'
loop_
 _atom_site_type_symbol
 _atom_site_label
 _atom_site_symmetry_multiplicity
 _atom_site_fract_x
 _atom_site_fract_y
 _atom_site_fract_z
 _atom_site_occupancy
  V  V0  1  0.25217136  0.63079279  0.36918763  1
  V  V1  1  0.12546871  0.62354161  -0.00009854  1
  V  V2  1  0.75562777  0.00435708  0.24970669  1
  V  V3  1  0.63290533  0.88009076  0.75277182  1
  V  V4  1  0.74211642  0.74556196  0.00207506  1
  V  V5  1  0.50242496  0.49941572  -0.00141691  1
  V  V6  1  0.12351316  0.24928837  0.38030314  1
  V  V7  1  0.74865425  0.86989555  0.12864053  1
  V  V8  1  0.37632577  0.24939835  0.62337432  1
  V  V9  1  0.50657062  0.62525515  0.12307706  1
  V  V10  1  0.00848480  0.12574803  0.62173933  1
  V  V11  1  0.61923136  0.00540250  0.12824071  1
  V  V12  1  0.12642266  0.63017204  0.49915004  1
  V  V13  1  -0.00130047  0.50224131  0.50008570  1
  V  V14  1  0.62366405  0.25060217  0.36907451  1
  V  V15  1  0.37228735  0.37831266  0.50123822  1
  V  V16  1  0.50259309  0.75032967  0.74906747  1
  V  V17  1  0.50199716  0.87650425  0.37946452  1
  V  V18  1  -0.00262771  0.62630014  0.13347484  1
  V  V19  1  0.13634792  0.25181580  0.87884785  1
  V  V20  1  0.62684039  0.49595900  0.61982436  1
  V  V21  1  0.00789651  0.00057153  0.49525236  1
  V  V22  1  0.07292732  -0.05744479  0.17805035  1
  V  V23  1  -0.00127643  0.49437909  0.00172765  1
  V  V24  1  0.87358792  0.87564427  0.00117464  1
  V  V25  1  0.62409759  0.74669681  0.87618789  1
  V  V26  1  0.25125980  0.49958681  0.24587359  1
  V  V27  1  0.00565011  0.63376334  0.63297038  1
  V  V28  1  0.35418116  0.25408513  0.12418221  1
  V  V29  1  0.37759638  0.49888247  0.87485593  1
  V  V30  1  0.87610661  0.87966055  0.49009101  1
  V  V31  1  0.51008749  0.62741704  0.61703341  1
  V  V32  1  0.24686602  0.25270201  0.50427773  1
  V  V33  1  0.25055462  0.62779123  0.87232454  1
  V  V34  1  -0.00601878  0.24405220  0.25101248  1
  V  V35  1  0.62161355  0.12439796  0.49580759  1
  V  V36  1  0.87378700  0.24070731  0.12646453  1
  V  V37  1  0.24831170  0.12449345  0.38085223  1
  V  V38  1  0.75485875  0.24852407  -0.01105264  1
  V  V39  1  0.87419709  0.38063388  0.49960740  1
  V  V40  1  0.24263321  -0.00210607  0.75127753  1
  V  V41  1  -0.00448959  0.38146702  0.37278125  1
  V  V42  1  0.87263445  0.75241682  0.62613850  1
  V  V43  1  0.37608093  0.50653590  0.36950132  1
  V  V44  1  0.62919469  0.00204858  0.62858175  1
  V  V45  1  0.12563463  0.12670945  0.00966749  1
  V  V46  1  0.37366327  -0.00006160  0.87610829  1
  V  V47  1  0.85917885  0.00489396  0.87507481  1
  V  V48  1  0.75538725  0.37172563  0.12108495  1
  V  V49  1  0.35731484  0.37606432  0.00769601  1
  V  V50  1  0.25420525  0.49447599  0.74331151  1
  V  V51  1  0.25027470  0.87503352  0.62488622  1
  V  V52  1  0.74466761  0.49183922  0.75321216  1
  V  V53  1  0.49888886  0.87379038  0.87617335  1
  V  V54  1  0.76111745  0.50855028  0.24701160  1
  V  V55  1  0.12979092  0.49354910  0.62270194  1
  V  V56  1  0.53183679  0.15754089  0.67073173  1
  V  V57  1  0.37402132  0.87335082  0.00153143  1
  V  V58  1  0.37089307  0.12390138  0.74585488  1
  V  V59  1  0.87519920  0.49498978  0.87709070  1
  V  V60  1  0.24863231  0.87866995  0.13080091  1
  V  V61  1  0.75132597  0.87473878  0.62198685  1
  V  V62  1  0.75221381  0.25183608  0.49674896  1
  V  V63  1  0.74245745  0.62115717  0.87885438  1
  V  V64  1  0.37699545  0.00161684  0.37570489  1
  V  V65  1  0.37833400  0.75121860  0.62201415  1
  V  V66  1  0.63630167  0.73594612  0.38548440  1
  V  V67  1  0.63228163  0.12569729  -0.00527692  1
  V  V68  1  0.37766107  0.12603852  0.24424537  1
  V  V69  1  0.24826148  0.12758918  0.88279387  1
  V  V70  1  0.37230831  0.74332456  0.12841652  1
  V  V71  1  0.49920809  0.37433318  0.37075571  1
  V  V72  1  0.00172176  0.24837133  0.75096659  1
  V  V73  1  0.62774321  0.49572242  0.11761362  1
  V  V74  1  0.75783472  0.12642804  0.36948627  1
  V  V75  1  0.62379857  0.87544186  0.25322688  1
  V  V76  1  -0.00126478  0.37179389  0.87667420  1
  V  V77  1  0.10760591  0.75893682  0.36514489  1
  V  V78  1  0.88084441  0.63215950  0.75759985  1
  V  V79  1  0.86591856  0.12223535  0.75354711  1
  V  V80  1  0.49675034  0.74368102  0.25346933  1
  V  V81  1  0.49992863  0.25038796  0.23123868  1
  V  V82  1  0.49702805  0.00904188  0.00587417  1
  V  V83  1  0.12829957  0.37522271  0.24430425  1
  V  V84  1  0.00561599  -0.00004906  -0.00685338  1
  Zn  Zn85  1  0.11392719  0.85784414  0.74636012  1
  Zn  Zn86  1  0.37715209  0.87896966  0.50140463  1
  Zn  Zn87  1  0.10578432  0.74505394  0.86755659  1
  Zn  Zn88  1  -0.00310369  0.86929628  0.86538281  1
  Zn  Zn89  1  0.87671951  0.25113442  0.62589258  1
  Zn  Zn90  1  0.61613284  0.24695086  0.85251366  1
  Zn  Zn91  1  0.24841391  0.75052891  -0.00001920  1
  Zn  Zn92  1  0.24526245  -0.00093810  0.24903462  1
  Zn  Zn93  1  -0.00162418  0.11869064  0.13074560  1
  Zn  Zn94  1  0.25089498  0.75455800  0.49619151  1
  Zn  Zn95  1  0.51220844  0.37063868  0.85713134  1
  Zn  Zn96  1  0.81315603  0.57212178  0.39871542  1
  Zn  Zn97  1  0.50853170  0.50592610  0.49091184  1
  Zn  Zn98  1  0.87533629  0.73582059  0.12521022  1
  Zn  Zn99  1  0.12964266  0.49591718  0.12348215  1
  Zn  Zn100  1  0.37882672  0.62391967  0.74664253  1
  Zn  Zn101  1  0.13231356  0.37149862  0.74549786  1
  Zn  Zn102  1  0.12575980  0.00017831  0.62309465  1
  Zn  Zn103  1  0.49919317  0.00641472  0.50890360  1
  Zn  Zn104  1  0.74977349  0.37368845  0.62777242  1
  Zn  Zn105  1  0.62648782  0.37566526  0.24380204  1
  Zn  Zn106  1  0.87808968  0.00174032  0.37290407  1
  Zn  Zn107  1  0.18496610  0.18447948  0.19720123  1
  Zn  Zn108  1  0.18879418  0.18842711  0.68913366  1
  Zn  Zn109  1  0.18198499  0.68783059  0.18928830  1
  Zn  Zn110  1  0.19343767  0.68405679  0.68670222  1
  Zn  Zn111  1  0.68503155  0.18614168  0.18199347  1
  Zn  Zn112  1  0.69862841  0.19042102  0.68383319  1
  Zn  Zn113  1  0.68061993  0.68549263  0.18996094  1
  Zn  Zn114  1  0.69119179  0.68523645  0.68863818  1
  Zn  Zn115  1  0.31222109  0.31352422  0.31277154  1
  Zn  Zn116  1  0.34638156  0.33154615  0.79428025  1
  Zn  Zn117  1  0.31180976  0.81384056  0.31136021  1
  Zn  Zn118  1  0.30953691  0.81099410  0.80850152  1
  Zn  Zn119  1  0.81289445  0.31893717  0.30834136  1
  Zn  Zn120  1  0.81529989  0.31081544  0.81429879  1
  Zn  Zn121  1  0.82775468  0.72196209  0.30996268  1
  Zn  Zn122  1  0.81455933  0.81315143  0.81441282  1
  Zn  Zn123  1  0.18740383  0.43846049  0.43362345  1
  Zn  Zn124  1  0.18608941  0.44066964  0.93191660  1
  Zn  Zn125  1  0.18824494  0.93613017  0.43759999  1
  Zn  Zn126  1  0.18362815  0.93178112  0.93714176  1
  Zn  Zn127  1  0.68539228  0.43722570  0.43426287  1
  Zn  Zn128  1  0.68187618  0.42495638  0.93434539  1
  Zn  Zn129  1  0.69003987  0.93612864  0.43825932  1
  Zn  Zn130  1  0.68558238  0.93616416  0.94084140  1
  Zn  Zn131  1  0.31077258  0.06323142  0.06504230  1
  Zn  Zn132  1  0.31329173  0.06412321  0.56233042  1
  Zn  Zn133  1  0.31394593  0.56513749  0.06320716  1
  Zn  Zn134  1  0.31536161  0.56578202  0.55849254  1
  Zn  Zn135  1  0.81272874  0.06047295  0.06434112  1
  Zn  Zn136  1  0.81439585  0.06308359  0.56552798  1
  Zn  Zn137  1  0.81406949  0.56004750  0.05908670  1
  Zn  Zn138  1  0.81152370  0.56658587  0.57220403  1
  Zn  Zn139  1  0.43646302  0.43745214  0.18515888  1
  Zn  Zn140  1  0.44461729  0.43754370  0.68518722  1
  Zn  Zn141  1  0.43457414  0.93478106  0.18989026  1
  Zn  Zn142  1  0.44274776  0.94258406  0.68743278  1
  Zn  Zn143  1  0.93729707  0.43090870  0.18180590  1
  Zn  Zn144  1  0.93841719  0.43886889  0.68814322  1
  Zn  Zn145  1  0.90162174  0.88503287  0.22558517  1
  Zn  Zn146  1  0.93727028  0.94336469  0.68707252  1
  Zn  Zn147  1  0.06244003  0.06661509  0.31917235  1
  Zn  Zn148  1  0.05927673  0.06125808  0.81499475  1
  Zn  Zn149  1  0.06246547  0.56551206  0.31616022  1
  Zn  Zn150  1  0.06615870  0.56002859  0.81140383  1
  Zn  Zn151  1  0.56036564  0.06634024  0.31175065  1
  Zn  Zn152  1  0.56657788  0.05841635  0.81958291  1
  Zn  Zn153  1  0.56731654  0.56147800  0.30476703  1
  Zn  Zn154  1  0.56269086  0.56027675  0.80717255  1
  Zn  Zn155  1  0.43714707  0.19058735  0.43352198  1
  Zn  Zn156  1  0.43262440  0.19169795  0.93931819  1
  Zn  Zn157  1  0.43931038  0.68829319  0.43826355  1
  Zn  Zn158  1  0.43683883  0.68490023  0.94084559  1
  Zn  Zn159  1  0.93795548  0.18726641  0.43906748  1
  Zn  Zn160  1  0.93861450  0.18563561  0.93872962  1
  Zn  Zn161  1  0.92415644  0.68446143  0.44873875  1
  Zn  Zn162  1  0.93232983  0.68401760  0.94523008  1
  Zn  Zn163  1  0.06325300  0.31026662  0.06300452  1
  Zn  Zn164  1  0.06061433  0.31326173  0.56196500  1
  Zn  Zn165  1  0.05758115  0.80488970  0.04946908  1
  Zn  Zn166  1  0.06201514  0.81493548  0.56149832  1
  Zn  Zn167  1  0.54907869  0.30096161  0.02831175  1
  Zn  Zn168  1  0.56416306  0.31792934  0.55846510  1
  Zn  Zn169  1  0.56163801  0.81471782  0.06301897  1
  Zn  Zn170  1  0.56644845  0.81372134  0.55922930  1
  O  O171  1  0.12582202  0.13293023  0.11280149  1
  O  O172  1  0.11262882  0.12440770  0.62937250  1
  O  O173  1  0.11750831  0.61972674  0.11579295  1
  O  O174  1  0.12165535  0.61740168  0.61927093  1
  O  O175  1  0.62407861  0.11063689  0.11696824  1
  O  O176  1  0.62689844  0.12105808  0.61551496  1
  O  O177  1  0.61269697  0.61786926  0.12302529  1
  O  O178  1  0.62104372  0.61462280  0.62785882  1
  O  O179  1  0.38248276  0.37988450  0.38142952  1
  O  O180  1  0.37031011  0.38936298  0.89347089  1
  O  O181  1  0.38281670  0.88461033  0.37546698  1
  O  O182  1  0.37799395  0.87954602  0.88007570  1
  O  O183  1  0.88820067  0.37020053  0.38131641  1
  O  O184  1  0.88974645  0.37995187  0.87169368  1
  O  O185  1  0.86992463  0.87811450  0.39091151  1
  O  O186  1  0.86986968  0.88520933  0.88628125  1
  O  O187  1  0.25742015  0.00711783  0.37418310  1
  O  O188  1  0.25548629  0.00643481  0.86965752  1
  O  O189  1  0.25768028  0.50816152  0.36866108  1
  O  O190  1  0.25732348  0.50908666  0.86756366  1
  O  O191  1  0.74741617  0.01004742  0.36721416  1
  O  O192  1  0.75947029  0.00180357  0.88205171  1
  O  O193  1  0.74611197  0.49555850  0.35497845  1
  O  O194  1  0.75513803  0.50250962  0.87211586  1
  O  O195  1  0.25124395  0.50843800  0.14202672  1
  O  O196  1  0.24369463  0.50759466  0.63108514  1
  O  O197  1  0.25514227  0.98751656  0.12880588  1
  O  O198  1  0.25023712  0.99530584  0.63284333  1
  O  O199  1  0.74610218  0.49256197  0.12456722  1
  O  O200  1  0.74237436  0.50060241  0.63284266  1
  O  O201  1  0.73981947  0.99412676  0.13222886  1
  O  O202  1  0.73794567  0.99491527  0.62441791  1
  O  O203  1  0.00532443  0.36818790  0.25724217  1
  O  O204  1  0.00202991  0.36326721  0.75531103  1
  O  O205  1  0.01427438  0.89019433  0.23818772  1
  O  O206  1  0.00402856  0.88591083  0.75202151  1
  O  O207  1  0.50012529  0.36820285  0.25608278  1
  O  O208  1  0.45545175  0.35815799  0.76055700  1
  O  O209  1  0.50695453  0.87020859  0.25956590  1
  O  O210  1  0.51039826  0.87059019  0.75555626  1
  O  O211  1  0.48732746  0.13690360  0.25419001  1
  O  O212  1  0.48063956  0.11643902  0.76024992  1
  O  O213  1  0.50186293  0.63406907  0.23974641  1
  O  O214  1  0.50037321  0.63304454  0.73848672  1
  O  O215  1  1.00570941  0.13970654  0.24918559  1
  O  O216  1  0.99650296  0.13465283  0.74537892  1
  O  O217  1  1.00762152  0.61607596  0.23090968  1
  O  O218  1  0.99178151  0.61770106  0.74549139  1
  O  O219  1  0.36951302  0.26649065  0.00941166  1
  O  O220  1  0.36881662  0.25449424  0.50563741  1
  O  O221  1  0.37554296  0.75649135  0.01027614  1
  O  O222  1  0.37709272  0.75512017  0.51138507  1
  O  O223  1  0.86204593  0.24301847  0.00616762  1
  O  O224  1  0.86500401  0.25784506  0.49831873  1
  O  O225  1  0.85993311  0.75851935  0.00618812  1
  O  O226  1  0.89106241  0.77028456  0.52207025  1
  O  O227  1  0.13173667  0.25801240  0.48924596  1
  O  O228  1  0.11959428  0.24134377  0.98966222  1
  O  O229  1  0.12825679  0.73875690  0.50076331  1
  O  O230  1  0.12943101  0.73363532  0.99477577  1
  O  O231  1  0.63538726  0.24662807  0.49292935  1
  O  O232  1  0.64325517  0.23677817  1.01476334  1
  O  O233  1  0.62411312  0.75164491  0.48479961  1
  O  O234  1  0.63206038  0.75639630  0.98989533  1
  O  O235  1  0.49218596  0.25794116  0.12999804  1
  O  O236  1  0.49348190  0.24140992  0.61658158  1
  O  O237  1  0.49678493  0.74366064  0.13108369  1
  O  O238  1  0.49946223  0.74555679  0.62801072  1
  O  O239  1  0.99111240  0.25084843  0.13333160  1
  O  O240  1  0.99948364  0.24460532  0.63240897  1
  O  O241  1  0.99810065  0.73084578  0.11654329  1
  O  O242  1  0.99897436  0.73810034  0.62750111  1
  O  O243  1  0.00625054  0.25522818  0.37125604  1
  O  O244  1  0.00684066  0.25518745  0.86974554  1
  O  O245  1  0.01060789  0.74928418  0.38580325  1
  O  O246  1  -0.00679291  0.75535218  0.88784557  1
  O  O247  1  0.50311113  0.25864498  0.36421869  1
  O  O248  1  0.51448384  0.26350341  0.91487983  1
  O  O249  1  0.50353192  0.75773121  0.36888397  1
  O  O250  1  0.50424952  0.75314515  0.87107701  1
  O  O251  1  0.25660742  0.13440712  0.48813148  1
  O  O252  1  0.24356925  0.12087846  0.98910573  1
  O  O253  1  0.24266755  0.62642312  0.48922908  1
  O  O254  1  0.24206705  0.62236212  0.99252031  1
  O  O255  1  0.74306539  0.13295391  0.49324029  1
  O  O256  1  0.74386645  0.13400257  1.00548956  1
  O  O257  1  0.81402016  0.63727143  0.48947037  1
  O  O258  1  0.75282076  0.63290562  0.99114183  1
  O  O259  1  0.25863831  0.38710503  0.00425898  1
  O  O260  1  0.25999579  0.36569964  0.49033915  1
  O  O261  1  0.25720939  0.87280166  0.00966406  1
  O  O262  1  0.25617611  0.87727002  0.51303030  1
  O  O263  1  0.74834776  0.35716020  0.00553932  1
  O  O264  1  0.75741010  0.36871383  0.49676776  1
  O  O265  1  0.75200173  0.86616181  0.00532383  1
  O  O266  1  0.75914674  0.88096142  0.51406886  1
  O  O267  1  0.13337397  0.49159989  0.25246168  1
  O  O268  1  0.13485838  0.49764237  0.74001618  1
  O  O269  1  0.12530065  1.00553474  0.24245576  1
  O  O270  1  0.13802502  1.00443467  0.75052413  1
  O  O271  1  0.63328273  0.49773670  0.23264574  1
  O  O272  1  0.63534043  0.50246082  0.73819226  1
  O  O273  1  0.62329667  0.99568099  0.24381720  1
  O  O274  1  0.62331709  0.99187905  0.74454881  1
  O  O275  1  0.37628268  0.00906926  0.25970222  1
  O  O276  1  0.36488134  0.00567219  0.75531889  1
  O  O277  1  0.36840971  0.49282926  0.26228502  1
  O  O278  1  0.37148666  0.50323336  0.75769870  1
  O  O279  1  0.85917501  -0.00922006  0.25320041  1
  O  O280  1  0.87685297  0.01461071  0.75937544  1
  O  O281  1  0.85941978  0.49297857  0.24125412  1
  O  O282  1  0.87161966  0.50817100  0.76127631  1
  O  O283  1  0.11415819  0.36938837  0.36906705  1
  O  O284  1  0.11652191  0.36847975  0.87165236  1
  O  O285  1  0.13105968  0.85686088  0.38205398  1
  O  O286  1  0.12150882  0.86730331  0.87108740  1
  O  O287  1  0.61543028  0.36926820  0.36974884  1
  O  O288  1  0.62596480  0.36300328  0.86171329  1
  O  O289  1  0.61736006  0.87211013  0.36973384  1
  O  O290  1  0.62013423  0.87120952  0.86808263  1
  O  O291  1  0.36849799  0.13610915  0.13468311  1
  O  O292  1  0.38074047  0.13017992  0.63291515  1
  O  O293  1  0.38467436  0.63760671  0.12252035  1
  O  O294  1  0.38431459  0.63458549  0.62477966  1
  O  O295  1  0.87742616  0.13561532  0.12523815  1
  O  O296  1  0.88433439  0.12687439  0.63769926  1
  O  O297  1  0.89129494  0.61986975  0.11883141  1
  O  O298  1  0.88555781  0.63339875  0.63974134  1
  O  O299  1  0.25546271  0.25229868  0.13521567  1
  O  O300  1  0.25481230  0.24441701  0.61036447  1
  O  O301  1  0.25778053  0.75302425  0.12557128  1
  O  O302  1  0.26230630  0.75755787  0.62247252  1
  O  O303  1  0.75763463  0.25455016  0.12263855  1
  O  O304  1  0.75455243  0.25545913  0.61185713  1
  O  O305  1  0.73764885  0.75266567  0.11394254  1
  O  O306  1  0.76038626  0.75905927  0.62954357  1
  O  O307  1  0.24410099  0.24474466  0.38244770  1
  O  O308  1  0.23954408  0.24271559  0.86857599  1
  O  O309  1  0.25170029  0.74212125  0.37742496  1
  O  O310  1  0.26316382  0.73268989  0.87866945  1
  O  O311  1  0.74460776  0.24642492  0.37655502  1
  O  O312  1  0.74892740  0.24907924  0.88689340  1
  O  O313  1  0.73367050  0.75179474  0.36795173  1
  O  O314  1  0.74492333  0.74069641  0.88083542  1
  O  O315  1  0.00719282  0.11687970  0.00463603  1
  O  O316  1  -0.00702831  0.11493032  0.50989453  1
  O  O317  1  0.00699821  0.61020475  0.00299083  1
  O  O318  1  0.00818033  0.61997582  0.51170757  1
  O  O319  1  0.50325778  0.11203845  0.00034314  1
  O  O320  1  0.51705077  0.12817035  0.48993770  1
  O  O321  1  0.49475708  0.61093958  0.00871741  1
  O  O322  1  0.49834046  0.62265104  0.51279418  1
  O  O323  1  0.49421422  0.37758509  0.48542122  1
  O  O324  1  0.48511435  0.39392805  1.00742680  1
  O  O325  1  0.50032607  0.88123619  0.48940947  1
  O  O326  1  0.49322266  0.88205385  0.99464896  1
  O  O327  1  0.99329342  0.37977450  0.49271826  1
  O  O328  1  1.00668471  0.38539998  0.99208179  1
  O  O329  1  0.99163928  0.89356204  0.51008414  1
  O  O330  1  0.98928157  0.88489150  1.00076439  1
  O  O331  1  0.49479751  0.49406307  0.37061656  1
  O  O332  1  0.49453816  0.49866514  0.88051131  1
  O  O333  1  0.49416481  0.99321081  0.37533358  1
  O  O334  1  0.49294886  0.99279653  0.88468254  1
  O  O335  1  1.00603058  0.49165866  0.38489388  1
  O  O336  1  0.99496619  0.49144899  0.87843821  1
  O  O337  1  0.99565745  1.00807500  0.39028695  1
  O  O338  1  0.98967690  1.00072124  0.88554234  1
  O  O339  1  0.00978563  -0.00046005  0.11728568  1
  O  O340  1  0.00233940  0.01086278  0.61556911  1
  O  O341  1  0.00249499  0.50184167  0.11553012  1
  O  O342  1  0.00854421  0.50909190  0.62081787  1
  O  O343  1  0.50630876  -0.00903738  0.11729536  1
  O  O344  1  0.51523301  0.01565501  0.62876368  1
  O  O345  1  0.50704571  0.50677519  0.12165724  1
  O  O346  1  0.51278464  0.50692587  0.62429169  1
  O  O347  1  0.23925891  0.38526707  0.26130351  1
  O  O348  1  0.25256026  0.38984862  0.75429084  1
  O  O349  1  0.25252889  0.87702647  0.23643133  1
  O  O350  1  0.25293060  0.88394823  0.73940564  1
  O  O351  1  0.74661634  0.38249638  0.23760093  1
  O  O352  1  0.76201500  0.38855872  0.74781189  1
  O  O353  1  0.73004089  0.88868017  0.24814314  1
  O  O354  1  0.73841198  0.87083230  0.74287833  1
  O  O355  1  0.26014698  0.12390964  0.26287172  1
  O  O356  1  0.25604343  0.11800634  0.75887016  1
  O  O357  1  0.24436369  0.61762023  0.26296623  1
  O  O358  1  0.25731882  0.61328403  0.75670220  1
  O  O359  1  0.74105789  0.11535286  0.25671463  1
  O  O360  1  0.76726591  0.12911727  0.75015625  1
  O  O361  1  0.75155600  0.61097456  0.24016124  1
  O  O362  1  0.75974554  0.61454060  0.75882973  1
  O  O363  1  0.37031377  0.12028458  0.36789179  1
  O  O364  1  0.36516659  0.12386198  0.87185708  1
  O  O365  1  0.36805391  0.61672924  0.37951085  1
  O  O366  1  0.37143489  0.61253821  0.87562769  1
  O  O367  1  0.86101208  0.12528452  0.37701846  1
  O  O368  1  0.88065759  0.11970192  0.86267558  1
  O  O369  1  0.89035589  0.63970744  0.34939801  1
  O  O370  1  0.86527440  0.61672475  0.87228602  1
  O  O371  1  0.12113201  0.37514985  0.14022504  1
  O  O372  1  0.12223258  0.38951803  0.62349988  1
  O  O373  1  0.12921832  0.87481495  0.11933164  1
  O  O374  1  0.13691108  0.87788218  0.62693985  1
  O  O375  1  0.63717965  0.38190379  0.12112075  1
  O  O376  1  0.62696536  0.38920304  0.62468892  1
  O  O377  1  0.62751068  0.88303561  0.13296072  1
  O  O378  1  0.62958519  0.88264797  0.63125326  1
  O  O379  1  0.11959131  0.25775246  0.26229418  1
  O  O380  1  0.11911660  0.25203161  0.75734426  1
  O  O381  1  0.12038665  0.74491387  0.26529924  1
  O  O382  1  0.14008360  0.74715253  0.75870069  1
  O  O383  1  0.61527395  0.25060774  0.25028231  1
  O  O384  1  0.60136685  0.20794285  0.73899765  1
  O  O385  1  0.61373520  0.75870085  0.25579777  1
  O  O386  1  0.62110399  0.75703368  0.75591188  1
  O  O387  1  0.37977399  0.24639282  0.24287628  1
  O  O388  1  0.35843184  0.23705779  0.72937713  1
  O  O389  1  0.38893857  0.75668211  0.24307890  1
  O  O390  1  0.38434980  0.75029554  0.73830967  1
  O  O391  1  0.88366986  0.25523477  0.24168440  1
  O  O392  1  0.88409914  0.24049193  0.75086799  1
  O  O393  1  0.85216008  0.78543023  0.22351963  1
  O  O394  1  0.87064865  0.73883908  0.74556084  1
  O  O395  1  0.37792337  0.49290499  0.48872687  1
  O  O396  1  0.37869323  0.49585361  0.99594078  1
  O  O397  1  0.38070669  1.00362487  0.48828962  1
  O  O398  1  0.38083511  0.99557937  0.99663811  1
  O  O399  1  0.87931081  0.48711640  0.50206997  1
  O  O400  1  0.88267661  0.50050866  0.98509090  1
  O  O401  1  0.88247507  0.99443623  0.50084620  1
  O  O402  1  0.88091313  0.99794141  0.99228410  1
  O  O403  1  0.11567376  0.01122513  -0.00797616  1
  O  O404  1  0.11169434  -0.00067113  0.50058072  1
  O  O405  1  0.11850298  0.50662428  0.00062007  1
  O  O406  1  0.12291982  0.51018634  0.50456941  1
  O  O407  1  0.61760914  0.00414636  0.00765650  1
  O  O408  1  0.62476482  0.00913011  0.50735623  1
  O  O409  1  0.61865768  0.49494201  0.00815564  1
  O  O410  1  0.62764222  0.49976958  0.51322562  1
  O  O411  1  0.37118391  0.37117612  0.11603140  1
  O  O412  1  0.38157280  0.36681648  0.60770091  1
  O  O413  1  0.36899269  0.86463489  0.12145180  1
  O  O414  1  0.37349914  0.87032971  0.62509159  1
  O  O415  1  0.86297268  0.36289187  0.12271915  1
  O  O416  1  0.87536972  0.37252299  0.61466801  1
  O  O417  1  0.86280465  0.88793731  0.10740181  1
  O  O418  1  0.86455446  0.87138955  0.62933018  1
  O  O419  1  0.13577358  0.13682675  0.37290885  1
  O  O420  1  0.13085293  0.13202944  0.88203588  1
  O  O421  1  0.13176057  0.63335071  0.38365235  1
  O  O422  1  0.13486152  0.62130442  0.88150133  1
  O  O423  1  0.63401108  0.13170453  0.37876173  1
  O  O424  1  0.62239517  0.12795879  0.89080970  1
  O  O425  1  0.62099542  0.63631228  0.37168028  1
  O  O426  1  0.63648257  0.62703884  0.86929221  1
