# generated using pymatgen
data_V85Zn86O256
_symmetry_space_group_name_H-M   'P 1'
_cell_length_a   16.92409567
_cell_length_b   16.92342751
_cell_length_c   16.93160515
_cell_angle_alpha   89.98382556
_cell_angle_beta   89.90359093
_cell_angle_gamma   89.98038735
_symmetry_Int_Tables_number   1
_chemical_formula_structural   V85Zn86O256
_chemical_formula_sum   'V85 Zn86 O256'
_cell_volume   4849.43644305
_cell_formula_units_Z   1
loop_
 _symmetry_equiv_pos_site_id
 _symmetry_equiv_pos_as_xyz
  1  'x, y, z'
loop_
 _atom_site_type_symbol
 _atom_site_label
 _atom_site_symmetry_multiplicity
 _atom_site_fract_x
 _atom_site_fract_y
 _atom_site_fract_z
 _atom_site_occupancy
  V  V0  1  0.12966703  0.74764475  0.37497808  1
  V  V1  1  0.61398301  0.62691423  0.00365195  1
  V  V2  1  0.75101969  -0.00499473  0.75091482  1
  V  V3  1  0.24506662  0.37740497  0.12849320  1
  V  V4  1  -0.00036371  0.50818835  0.00545923  1
  V  V5  1  0.87418238  0.37561866  -0.00084863  1
  V  V6  1  0.63103906  0.74293907  0.87507895  1
  V  V7  1  0.12408481  0.50633500  0.12838145  1
  V  V8  1  0.62651627  0.00748262  0.61619737  1
  V  V9  1  -0.00375459  0.87385692  0.87627960  1
  V  V10  1  0.75733817  0.74126006  -0.00222000  1
  V  V11  1  0.25053424  0.25836466  0.50604506  1
  V  V12  1  0.37632270  0.73857081  0.12202292  1
  V  V13  1  0.24989008  0.12816009  0.37515950  1
  V  V14  1  0.13045348  0.62517887  0.49812734  1
  V  V15  1  0.87514676  0.12417992  0.75072394  1
  V  V16  1  -0.01259645  0.62424317  0.62515756  1
  V  V17  1  0.75491654  0.87456663  0.11735561  1
  V  V18  1  0.87109876  0.38764109  0.49794835  1
  V  V19  1  0.00622774  0.25158746  0.25193420  1
  V  V20  1  0.75355274  0.49909237  0.25488940  1
  V  V21  1  0.88205987  0.62076875  0.24825688  1
  V  V22  1  0.87806846  -0.00535271  0.37327035  1
  V  V23  1  0.13157310  0.37486088  0.74597811  1
  V  V24  1  0.75445043  0.51129367  0.76124449  1
  V  V25  1  -0.00002549  0.25104312  0.74969200  1
  V  V26  1  -0.00144793  0.38429095  0.37164670  1
  V  V27  1  0.60966374  0.00197013  0.12150935  1
  V  V28  1  0.00003074  0.12446889  0.62413026  1
  V  V29  1  0.39209246  0.62612377  0.74910903  1
  V  V30  1  0.74843895  0.37593619  0.12498410  1
  V  V31  1  0.00189140  0.74933800  0.25294911  1
  V  V32  1  -0.00265648  0.37655961  0.87505295  1
  V  V33  1  0.74513203  0.12353024  0.37961686  1
  V  V34  1  -0.00241350  -0.00325190  -0.00006423  1
  V  V35  1  0.74363635  0.12617627  0.87643752  1
  V  V36  1  0.62596280  0.87615458  0.74818724  1
  V  V37  1  0.74306635  0.75004265  0.49775246  1
  V  V38  1  0.74427133  0.37875596  0.62982383  1
  V  V39  1  0.00232284  -0.00495937  0.49712572  1
  V  V40  1  0.37295453  0.38734884  0.49941842  1
  V  V41  1  -0.00723801  0.74475824  0.75145808  1
  V  V42  1  0.37802308  0.25423921  0.12158712  1
  V  V43  1  0.74910208  0.62522643  0.37399194  1
  V  V44  1  0.12401061  0.12888615  0.49917655  1
  V  V45  1  0.49986756  0.24632159  0.24774725  1
  V  V46  1  0.48991276  0.37408732  0.88259060  1
  V  V47  1  0.38529515  0.00407742  0.87559662  1
  V  V48  1  0.62004715  0.24844929  0.38077061  1
  V  V49  1  0.12625533  -0.00057705  0.12453330  1
  V  V50  1  0.87695764  -0.00223232  0.87778123  1
  V  V51  1  0.37374700  0.61610376  0.26278861  1
  V  V52  1  0.25602607  0.12567654  0.87030935  1
  V  V53  1  0.49553275  0.87344103  0.37896492  1
  V  V54  1  0.62111564  0.37016576  0.75880773  1
  V  V55  1  0.74476195  0.24790606  0.50266725  1
  V  V56  1  0.12593746  0.12579207  -0.00148533  1
  V  V57  1  0.50368968  0.87389523  0.88110798  1
  V  V58  1  0.37601414  0.25024781  0.63068166  1
  V  V59  1  0.37705927  0.12491834  0.24506103  1
  V  V60  1  0.61343914  0.12092963  0.00179510  1
  V  V61  1  0.49915467  0.74237926  0.24449218  1
  V  V62  1  0.24988434  0.74432272  -0.00741459  1
  V  V63  1  0.37453974  -0.00149513  0.38298582  1
  V  V64  1  0.62374375  0.37368362  0.25037917  1
  V  V65  1  0.24593315  0.49915430  0.26330016  1
  V  V66  1  0.25780333  0.00067607  0.74865329  1
  V  V67  1  0.61650419  0.50520813  0.12735410  1
  V  V68  1  0.87299125  0.25009648  0.62347062  1
  V  V69  1  0.74935072  -0.00064726  0.24649824  1
  V  V70  1  0.51061493  0.51216156  0.49803749  1
  V  V71  1  0.12451323  0.49927493  0.62484998  1
  V  V72  1  0.12080334  0.87648430  0.25585987  1
  V  V73  1  0.88078924  0.86991541  0.49782449  1
  V  V74  1  0.88322472  0.75083283  0.12239175  1
  V  V75  1  0.74373987  0.24919413  -0.00309043  1
  V  V76  1  0.24612029  0.51720118  0.75581941  1
  V  V77  1  0.25008324  -0.00030438  0.24873281  1
  V  V78  1  0.87450842  0.24954649  0.12577144  1
  V  V79  1  0.37636884  0.88042364  0.00272275  1
  V  V80  1  0.25206319  0.25721890  -0.00073363  1
  V  V81  1  0.62391780  0.87225661  0.24855331  1
  V  V82  1  0.87466207  0.12550327  0.24998353  1
  V  V83  1  0.12699152  0.87440373  0.75025665  1
  V  V84  1  0.26165713  0.86914331  0.61808864  1
  Zn  Zn85  1  0.50348893  0.00498557  0.49705352  1
  Zn  Zn86  1  0.12974657  -0.00094928  0.62329672  1
  Zn  Zn87  1  0.12520032  0.25031860  0.87381477  1
  Zn  Zn88  1  -0.00731452  0.50572524  0.49704849  1
  Zn  Zn89  1  0.49033928  0.37941943  0.37395217  1
  Zn  Zn90  1  0.12543939  0.25655084  0.37285624  1
  Zn  Zn91  1  0.25084287  0.87293559  0.12518461  1
  Zn  Zn92  1  0.39503241  0.74075105  0.61002874  1
  Zn  Zn93  1  0.87422443  0.51562025  0.87834863  1
  Zn  Zn94  1  0.25914086  0.74789119  0.49159376  1
  Zn  Zn95  1  0.60943183  0.51554606  0.63353840  1
  Zn  Zn96  1  0.87372212  0.75053750  0.62846846  1
  Zn  Zn97  1  0.12876560  0.62256364  -0.00166799  1
  Zn  Zn98  1  -0.00073527  0.12655098  0.12381966  1
  Zn  Zn99  1  0.48983671  0.49881221  0.00504191  1
  Zn  Zn100  1  0.49901954  0.24277299  0.75397429  1
  Zn  Zn101  1  0.62134781  0.74310230  0.37478342  1
  Zn  Zn102  1  0.75392310  0.87475753  0.62272655  1
  Zn  Zn103  1  0.49793010  0.12710469  0.62195529  1
  Zn  Zn104  1  0.50519311  0.74780942  0.74593263  1
  Zn  Zn105  1  0.13158146  0.73858951  0.86764004  1
  Zn  Zn106  1  0.36618410  0.50415240  0.88554001  1
  Zn  Zn107  1  0.18788203  0.18718762  0.18492720  1
  Zn  Zn108  1  0.18993181  0.18833949  0.68566765  1
  Zn  Zn109  1  0.19241250  0.68514922  0.18581918  1
  Zn  Zn110  1  0.18103376  0.68936326  0.68172575  1
  Zn  Zn111  1  0.68558705  0.18510111  0.18580659  1
  Zn  Zn112  1  0.68401925  0.18735571  0.69135968  1
  Zn  Zn113  1  0.69044487  0.68593097  0.18583641  1
  Zn  Zn114  1  0.67899719  0.69041336  0.67939282  1
  Zn  Zn115  1  0.31058872  0.31514264  0.31535196  1
  Zn  Zn116  1  0.31067726  0.31722155  0.81279419  1
  Zn  Zn117  1  0.31291481  0.81173092  0.31051922  1
  Zn  Zn118  1  0.31780978  0.81124951  0.80949879  1
  Zn  Zn119  1  0.81461286  0.31316626  0.31513381  1
  Zn  Zn120  1  0.81128918  0.31330489  0.81381129  1
  Zn  Zn121  1  0.81369202  0.81160231  0.31011223  1
  Zn  Zn122  1  0.81468598  0.69099581  0.81538126  1
  Zn  Zn123  1  0.18180989  0.43590415  0.44136839  1
  Zn  Zn124  1  0.18370471  0.43779292  0.93619462  1
  Zn  Zn125  1  0.18720240  0.93692772  0.43578010  1
  Zn  Zn126  1  0.19050408  0.93506880  0.93529231  1
  Zn  Zn127  1  0.68581252  0.43679720  0.43593734  1
  Zn  Zn128  1  0.68163215  0.43923427  0.93821452  1
  Zn  Zn129  1  0.68985218  0.93155935  0.43389421  1
  Zn  Zn130  1  0.68831432  0.93597711  0.93929399  1
  Zn  Zn131  1  0.31464460  0.06531772  0.06073764  1
  Zn  Zn132  1  0.31283328  0.06664360  0.56363722  1
  Zn  Zn133  1  0.31389538  0.56149321  0.06590582  1
  Zn  Zn134  1  0.30975846  0.56279824  0.56992271  1
  Zn  Zn135  1  0.81130266  0.06208367  0.06220918  1
  Zn  Zn136  1  0.81163104  0.06088696  0.56153164  1
  Zn  Zn137  1  0.81179514  0.56455287  0.06569634  1
  Zn  Zn138  1  0.77892268  0.57923514  0.57893666  1
  Zn  Zn139  1  0.43349539  0.43355234  0.18793917  1
  Zn  Zn140  1  0.43225937  0.43792858  0.68218702  1
  Zn  Zn141  1  0.43535854  0.93311417  0.19022147  1
  Zn  Zn142  1  0.44187003  0.93745265  0.68897583  1
  Zn  Zn143  1  0.93780267  0.43631093  0.18747840  1
  Zn  Zn144  1  0.93358474  0.43967882  0.68761275  1
  Zn  Zn145  1  0.93962967  0.93509993  0.18604152  1
  Zn  Zn146  1  0.93929180  0.93565464  0.68579314  1
  Zn  Zn147  1  0.06142717  0.06538361  0.31395104  1
  Zn  Zn148  1  0.06820707  0.06171704  0.81190812  1
  Zn  Zn149  1  0.06383893  0.56413220  0.31183142  1
  Zn  Zn150  1  0.05937635  0.56452059  0.81619223  1
  Zn  Zn151  1  0.56163710  0.06289481  0.31103357  1
  Zn  Zn152  1  0.56154136  0.06677514  0.80753301  1
  Zn  Zn153  1  0.56032735  0.56080646  0.31723540  1
  Zn  Zn154  1  0.56614196  0.55582744  0.81852208  1
  Zn  Zn155  1  0.43753297  0.18547606  0.44409685  1
  Zn  Zn156  1  0.43694942  0.19348095  0.93455533  1
  Zn  Zn157  1  0.43645403  0.68772469  0.43598843  1
  Zn  Zn158  1  0.43486419  0.68626985  0.92967260  1
  Zn  Zn159  1  0.93355052  0.18976910  0.43633056  1
  Zn  Zn160  1  0.93572864  0.18723771  0.93691869  1
  Zn  Zn161  1  0.93959209  0.68406534  0.43135493  1
  Zn  Zn162  1  0.94685781  0.69042757  0.94258856  1
  Zn  Zn163  1  0.06437514  0.31607763  0.06402809  1
  Zn  Zn164  1  0.05891075  0.31580878  0.56027856  1
  Zn  Zn165  1  0.06571609  0.81446337  0.06503640  1
  Zn  Zn166  1  0.06588106  0.81152162  0.56524275  1
  Zn  Zn167  1  0.56283036  0.31045878  0.06241222  1
  Zn  Zn168  1  0.55812794  0.32179882  0.56489449  1
  Zn  Zn169  1  0.56307381  0.81211384  0.06301513  1
  Zn  Zn170  1  0.56351106  0.81629466  0.56263971  1
  O  O171  1  0.12413258  0.11906529  0.11318575  1
  O  O172  1  0.12142037  0.12279183  0.61349656  1
  O  O173  1  0.13106537  0.61082090  0.11999094  1
  O  O174  1  0.11232652  0.61936145  0.61741343  1
  O  O175  1  0.63028949  0.11285401  0.11579399  1
  O  O176  1  0.63278576  0.10927813  0.62483541  1
  O  O177  1  0.62686900  0.61607590  0.11901884  1
  O  O178  1  0.66852196  0.60802811  0.60867963  1
  O  O179  1  0.37342296  0.36978127  0.39342003  1
  O  O180  1  0.38673555  0.38209526  0.86883975  1
  O  O181  1  0.38407150  0.88605447  0.36353712  1
  O  O182  1  0.38468780  0.88089001  0.88118393  1
  O  O183  1  0.88413349  0.37061517  0.38623422  1
  O  O184  1  0.88490884  0.37363088  0.88195553  1
  O  O185  1  0.87241869  0.88861716  0.37752156  1
  O  O186  1  0.89405511  0.88595009  0.87316705  1
  O  O187  1  0.25566678  0.00577537  0.36816040  1
  O  O188  1  0.26038229  0.00634323  0.86949585  1
  O  O189  1  0.24247393  0.49524748  0.36176659  1
  O  O190  1  0.24750731  0.49373467  0.85866359  1
  O  O191  1  0.75458511  0.00668288  0.36850988  1
  O  O192  1  0.75770131  0.00408369  0.87084498  1
  O  O193  1  0.74775094  0.50438838  0.36226902  1
  O  O194  1  0.75085023  0.49636928  0.86456073  1
  O  O195  1  0.24312636  0.49257049  0.13136971  1
  O  O196  1  0.23261837  0.50365053  0.63905518  1
  O  O197  1  0.24407246  1.00089374  0.13091610  1
  O  O198  1  0.25260472  0.99294564  0.63291181  1
  O  O199  1  0.74058679  0.49448620  0.13447781  1
  O  O200  1  0.76080939  0.48264020  0.64234690  1
  O  O201  1  0.74809532  0.99088432  0.13013369  1
  O  O202  1  0.74492207  0.99833671  0.63369232  1
  O  O203  1  -0.00954439  0.36718194  0.26405425  1
  O  O204  1  0.00292900  0.37147773  0.75785861  1
  O  O205  1  0.00990076  0.86634826  0.24688912  1
  O  O206  1  0.00870001  0.87177024  0.75519547  1
  O  O207  1  0.50280981  0.36363279  0.25458673  1
  O  O208  1  0.51077013  0.37968325  0.75518142  1
  O  O209  1  0.50703120  0.86684966  0.25562743  1
  O  O210  1  0.51392985  0.87840614  0.76236184  1
  O  O211  1  0.49212461  0.13716508  0.25319218  1
  O  O212  1  0.50695084  0.13090526  0.73729614  1
  O  O213  1  0.48750870  0.62960413  0.25338448  1
  O  O214  1  0.49483859  0.61887592  0.74871156  1
  O  O215  1  0.99186328  0.13275416  0.24860469  1
  O  O216  1  0.99695302  0.12892118  0.74472991  1
  O  O217  1  0.99355932  0.63283902  0.24893797  1
  O  O218  1  1.00351794  0.63426156  0.73985556  1
  O  O219  1  0.36485158  0.24340516  0.01084757  1
  O  O220  1  0.36586983  0.25808652  0.50620689  1
  O  O221  1  0.36933083  0.75589129  0.00389297  1
  O  O222  1  0.37095772  0.74958496  0.49970748  1
  O  O223  1  0.86561963  0.25390811  0.00601678  1
  O  O224  1  0.86143979  0.25594323  0.50430139  1
  O  O225  1  0.87025911  0.74880826  0.01150774  1
  O  O226  1  0.87756960  0.76384307  0.49220638  1
  O  O227  1  0.13086137  0.24496484  0.50120335  1
  O  O228  1  0.13133675  0.24121324  0.99934808  1
  O  O229  1  0.12522072  0.74453167  0.49059403  1
  O  O230  1  0.14234546  0.75324303  1.00356324  1
  O  O231  1  0.63499552  0.25842157  0.49386080  1
  O  O232  1  0.63840128  0.24029487  1.00790705  1
  O  O233  1  0.63991219  0.75906158  0.49315257  1
  O  O234  1  0.63194527  0.74461802  0.99544918  1
  O  O235  1  0.49007335  0.25496047  0.13383980  1
  O  O236  1  0.48562946  0.25436089  0.62540646  1
  O  O237  1  0.49244052  0.75553386  0.13687891  1
  O  O238  1  0.50565761  0.75604403  0.63326242  1
  O  O239  1  0.99278439  0.25193129  0.13297017  1
  O  O240  1  0.99300964  0.24399820  0.62903664  1
  O  O241  1  0.99066585  0.75634882  0.13217458  1
  O  O242  1  0.99780855  0.74299780  0.63294092  1
  O  O243  1  -0.00140587  0.25690304  0.36722462  1
  O  O244  1  0.00045599  0.25604808  0.86789588  1
  O  O245  1  0.01043193  0.74913386  0.36022895  1
  O  O246  1  0.00628499  0.76029632  0.86977409  1
  O  O247  1  0.50824133  0.24986777  0.36990127  1
  O  O248  1  0.49443827  0.26686798  0.86892937  1
  O  O249  1  0.50146771  0.75615999  0.36192175  1
  O  O250  1  0.51070417  0.75840177  0.86987669  1
  O  O251  1  0.24114360  0.13201791  0.49480537  1
  O  O252  1  0.24367670  0.13239761  0.99189434  1
  O  O253  1  0.23413039  0.62675147  0.50795564  1
  O  O254  1  0.25369346  0.64187457  1.00260433  1
  O  O255  1  0.75418663  0.13389379  0.49100029  1
  O  O256  1  0.74618947  0.13097414  0.99338137  1
  O  O257  1  0.77099286  0.64027247  0.48165270  1
  O  O258  1  0.74053354  0.63801487  1.00809235  1
  O  O259  1  0.24319932  0.36198816  0.00490730  1
  O  O260  1  0.25681396  0.36896957  0.49771019  1
  O  O261  1  0.26076201  0.86836259  0.00217233  1
  O  O262  1  0.24360534  0.87688796  0.51635708  1
  O  O263  1  0.75185781  0.36742623  0.00254253  1
  O  O264  1  0.75320562  0.36993407  0.50890258  1
  O  O265  1  0.74452414  0.86390747  0.01259022  1
  O  O266  1  0.76299008  0.86691687  0.49625143  1
  O  O267  1  0.13755039  0.50446537  0.24449604  1
  O  O268  1  0.12889386  0.49551165  0.74590172  1
  O  O269  1  0.12761851  0.99550043  0.24697321  1
  O  O270  1  0.13928793  0.99412711  0.74872613  1
  O  O271  1  0.63062877  0.49382989  0.24501514  1
  O  O272  1  0.63802278  0.49245921  0.74981119  1
  O  O273  1  0.63046761  0.99373200  0.24253677  1
  O  O274  1  0.63345436  0.99467911  0.74325019  1
  O  O275  1  0.37000790  0.00880389  0.25305016  1
  O  O276  1  0.36568656  -0.00526447  0.75976728  1
  O  O277  1  0.36665951  0.50940280  0.24620906  1
  O  O278  1  0.35891385  0.50930055  0.74646566  1
  O  O279  1  0.87197234  0.00447095  0.25599102  1
  O  O280  1  0.86901440  0.00462649  0.75426957  1
  O  O281  1  0.86574915  0.50827147  0.24075463  1
  O  O282  1  0.85872132  0.49216618  0.75846136  1
  O  O283  1  0.10362850  0.37227964  0.38212401  1
  O  O284  1  0.11201638  0.37230733  0.86720140  1
  O  O285  1  0.12602117  0.87046932  0.36264243  1
  O  O286  1  0.12028673  0.87668932  0.86191231  1
  O  O287  1  0.62735551  0.36068351  0.36709339  1
  O  O288  1  0.61686721  0.37758065  0.86371201  1
  O  O289  1  0.62015229  0.87455439  0.35919858  1
  O  O290  1  0.62105645  0.86817585  0.87167340  1
  O  O291  1  0.36789954  0.13541203  0.13800412  1
  O  O292  1  0.37214014  0.14499321  0.62098440  1
  O  O293  1  0.37460259  0.63601210  0.13390535  1
  O  O294  1  0.36600486  0.62844956  0.64493436  1
  O  O295  1  0.87572956  0.13156861  0.13121893  1
  O  O296  1  0.87837080  0.12947535  0.63072884  1
  O  O297  1  0.86897265  0.63780793  0.13727644  1
  O  O298  1  0.88418417  0.62604590  0.61934306  1
  O  O299  1  0.25402658  0.25628061  0.11935672  1
  O  O300  1  0.25643442  0.24889581  0.61338560  1
  O  O301  1  0.26034951  0.75294623  0.11680100  1
  O  O302  1  0.24861165  0.76488402  0.62523804  1
  O  O303  1  0.75546718  0.25524067  0.11978137  1
  O  O304  1  0.75079247  0.25765087  0.62023216  1
  O  O305  1  0.75908579  0.75704768  0.12051019  1
  O  O306  1  0.75667408  0.75473199  0.61256587  1
  O  O307  1  0.24558673  0.24520130  0.38401913  1
  O  O308  1  0.25057115  0.24367834  0.88133088  1
  O  O309  1  0.23500620  0.75452371  0.37248311  1
  O  O310  1  0.25028398  0.75849467  0.88893358  1
  O  O311  1  0.74409155  0.24292844  0.38251238  1
  O  O312  1  0.75480089  0.23896337  0.88458093  1
  O  O313  1  0.74829311  0.74361487  0.37649180  1
  O  O314  1  0.74374460  0.75353471  0.88615096  1
  O  O315  1  0.00964862  0.11902427  -0.00082317  1
  O  O316  1  0.00469264  0.12048664  0.50349029  1
  O  O317  1  -0.00028945  0.61043659  0.00903509  1
  O  O318  1  0.00552391  0.62427774  0.50655494  1
  O  O319  1  0.51486998  0.13197802  -0.00653452  1
  O  O320  1  0.49970998  0.11809014  0.50655933  1
  O  O321  1  0.51115731  0.62913168  -0.00107040  1
  O  O322  1  0.50076437  0.61139348  0.49278020  1
  O  O323  1  0.48542113  0.38064939  0.49625520  1
  O  O324  1  0.50668180  0.37385775  0.98533032  1
  O  O325  1  0.51022277  0.88211378  0.48128335  1
  O  O326  1  0.49376368  0.87014584  0.98906016  1
  O  O327  1  0.98776709  0.37733147  0.49057449  1
  O  O328  1  0.99463509  0.37826529  0.99256454  1
  O  O329  1  0.99790002  0.88696285  0.50308244  1
  O  O330  1  1.01128173  0.88640870  0.99065050  1
  O  O331  1  0.50220694  0.49429339  0.38905901  1
  O  O332  1  0.49963470  0.48733462  0.88052360  1
  O  O333  1  0.49127957  0.99333761  0.37079574  1
  O  O334  1  0.49073656  0.99452630  0.87173572  1
  O  O335  1  0.99790834  0.48816954  0.37413382  1
  O  O336  1  0.99592493  0.49104628  0.88590256  1
  O  O337  1  0.98949030  1.00802597  0.38515984  1
  O  O338  1  0.99880718  0.99722182  0.88138944  1
  O  O339  1  0.00673212  0.00170581  0.11640784  1
  O  O340  1  0.00213158  0.00767501  0.61512911  1
  O  O341  1  0.01238612  0.48686886  0.11787524  1
  O  O342  1  0.00507542  0.50825237  0.62598521  1
  O  O343  1  0.51048260  -0.00400595  0.12922527  1
  O  O344  1  0.51687211  -0.00470909  0.62247283  1
  O  O345  1  0.51323050  0.48984822  0.12535398  1
  O  O346  1  0.49813290  0.49629605  0.60745916  1
  O  O347  1  0.25502889  0.38911236  0.24376064  1
  O  O348  1  0.23372343  0.37945598  0.75140783  1
  O  O349  1  0.24327769  0.88402862  0.24732082  1
  O  O350  1  0.24578314  0.88083426  0.74439734  1
  O  O351  1  0.74647381  0.38067876  0.24666757  1
  O  O352  1  0.73890955  0.37588294  0.74789019  1
  O  O353  1  0.74179638  0.87778149  0.24141314  1
  O  O354  1  0.74120995  0.88932013  0.75296728  1
  O  O355  1  0.25483500  0.12095618  0.25587968  1
  O  O356  1  0.24471341  0.11776470  0.76222947  1
  O  O357  1  0.26127031  0.61110850  0.24597991  1
  O  O358  1  0.24170702  0.61767483  0.75250691  1
  O  O359  1  0.75579427  0.12009359  0.25681082  1
  O  O360  1  0.75245382  0.11673310  0.75854928  1
  O  O361  1  0.75789991  0.61719301  0.25340704  1
  O  O362  1  0.74995972  0.61472618  0.75198769  1
  O  O363  1  0.36944319  0.11987225  0.36403696  1
  O  O364  1  0.36731538  0.11655025  0.88179325  1
  O  O365  1  0.37064524  0.62571704  0.36043639  1
  O  O366  1  0.37586827  0.62003589  0.85645065  1
  O  O367  1  0.86424844  0.11643343  0.37135241  1
  O  O368  1  0.86673050  0.11787597  0.86973351  1
  O  O369  1  0.86800123  0.62929522  0.35626580  1
  O  O370  1  0.87748253  0.62802470  0.88185004  1
  O  O371  1  0.13834334  0.38082786  0.12551797  1
  O  O372  1  0.11220230  0.38643308  0.63428319  1
  O  O373  1  0.12833379  0.88303888  0.13658460  1
  O  O374  1  0.13208750  0.87884509  0.63678532  1
  O  O375  1  0.63166332  0.37905160  0.13132270  1
  O  O376  1  0.63110463  0.38051331  0.63664546  1
  O  O377  1  0.63075839  0.88074589  0.13259040  1
  O  O378  1  0.63256332  0.88426548  0.63490744  1
  O  O379  1  0.11017562  0.24395592  0.25014290  1
  O  O380  1  0.11838810  0.25731498  0.74871277  1
  O  O381  1  0.12115442  0.75510249  0.25133662  1
  O  O382  1  0.11540775  0.75900499  0.74975840  1
  O  O383  1  0.61748861  0.25213298  0.25482306  1
  O  O384  1  0.62354913  0.26649393  0.74750754  1
  O  O385  1  0.61716405  0.75605777  0.24623784  1
  O  O386  1  0.63202079  0.75885504  0.75831019  1
  O  O387  1  0.38038731  0.24439673  0.24632059  1
  O  O388  1  0.37068622  0.26004331  0.73330975  1
  O  O389  1  0.37930340  0.73994065  0.24320604  1
  O  O390  1  0.38140519  0.73522202  0.75196207  1
  O  O391  1  0.88107174  0.24438231  0.24576380  1
  O  O392  1  0.87890465  0.24368026  0.74440469  1
  O  O393  1  0.88512353  0.74612197  0.24418844  1
  O  O394  1  0.88857595  0.75509418  0.74968711  1
  O  O395  1  0.37317824  0.49049839  0.50514338  1
  O  O396  1  0.37672086  0.50197814  0.99913242  1
  O  O397  1  0.37211524  1.00280158  0.48546349  1
  O  O398  1  0.37125736  0.98897004  0.99266978  1
  O  O399  1  0.87001950  0.48793895  0.50719520  1
  O  O400  1  0.88000314  0.49212494  1.00351274  1
  O  O401  1  0.88087303  0.99179336  0.49278295  1
  O  O402  1  0.88953478  1.00625723  0.99543357  1
  O  O403  1  0.12043660  0.00673050  0.00237194  1
  O  O404  1  0.11723180  0.00844965  0.49852242  1
  O  O405  1  0.11688998  0.49689891  0.00936045  1
  O  O406  1  0.11907986  0.50645857  0.50861789  1
  O  O407  1  0.63029613  0.00750686  0.01016951  1
  O  O408  1  0.63389358  -0.00615247  0.51419603  1
  O  O409  1  0.62454798  0.51061997  0.00951529  1
  O  O410  1  0.61306273  0.49305622  0.50267377  1
  O  O411  1  0.36257202  0.36191707  0.12908271  1
  O  O412  1  0.37249203  0.36529705  0.61047549  1
  O  O413  1  0.37552420  0.86626708  0.11634676  1
  O  O414  1  0.36332862  0.87319006  0.63143968  1
  O  O415  1  0.86764370  0.36884083  0.11866700  1
  O  O416  1  0.86915204  0.36612106  0.61861531  1
  O  O417  1  0.86483407  0.86608984  0.13141603  1
  O  O418  1  0.87473278  0.87464518  0.61216791  1
  O  O419  1  0.12835984  0.12909533  0.38632426  1
  O  O420  1  0.13415100  0.12619379  0.88472528  1
  O  O421  1  0.11916582  0.63400060  0.38496368  1
  O  O422  1  0.11810076  0.62790482  0.88573544  1
  O  O423  1  0.63637431  0.13423739  0.36891894  1
  O  O424  1  0.63823795  0.11466430  0.88364012  1
  O  O425  1  0.64295071  0.62657916  0.36555368  1
  O  O426  1  0.62351711  0.63663458  0.88289237  1
