# generated using pymatgen
data_V85Zn86O256
_symmetry_space_group_name_H-M   'P 1'
_cell_length_a   16.91306282
_cell_length_b   16.91032886
_cell_length_c   16.91409399
_cell_angle_alpha   89.99560882
_cell_angle_beta   89.99933626
_cell_angle_gamma   89.89356819
_symmetry_Int_Tables_number   1
_chemical_formula_structural   V85Zn86O256
_chemical_formula_sum   'V85 Zn86 O256'
_cell_volume   4837.51477486
_cell_formula_units_Z   1
loop_
 _symmetry_equiv_pos_site_id
 _symmetry_equiv_pos_as_xyz
  1  'x, y, z'
loop_
 _atom_site_type_symbol
 _atom_site_label
 _atom_site_symmetry_multiplicity
 _atom_site_fract_x
 _atom_site_fract_y
 _atom_site_fract_z
 _atom_site_occupancy
  V  V0  1  0.74863621  0.62535262  0.87523138  1
  V  V1  1  -0.00063582  0.24769123  0.74620256  1
  V  V2  1  0.87635511  0.24478443  0.61878031  1
  V  V3  1  0.75016982  0.50053754  0.75074500  1
  V  V4  1  0.50093564  0.87381680  0.37514967  1
  V  V5  1  0.62326971  0.62774365  0.49860170  1
  V  V6  1  0.24790148  -0.00188454  0.24702043  1
  V  V7  1  0.49540925  0.49579944  0.49981938  1
  V  V8  1  -0.00057651  0.75373177  0.25143237  1
  V  V9  1  0.62498488  0.62411790  0.00234652  1
  V  V10  1  0.87168566  0.12525282  0.75529409  1
  V  V11  1  0.12584874  0.62612977  0.00053058  1
  V  V12  1  0.37293242  0.49962457  0.87424313  1
  V  V13  1  -0.00030879  0.62017518  0.63102110  1
  V  V14  1  0.64843094  0.76565162  0.35161438  1
  V  V15  1  0.12413084  0.62037793  0.50770040  1
  V  V16  1  0.37298130  -0.00085069  0.37715638  1
  V  V17  1  0.12805883  0.37485611  0.24242508  1
  V  V18  1  0.49764796  0.87353919  0.87348547  1
  V  V19  1  0.87003334  0.37518482  0.49442510  1
  V  V20  1  0.86632270  0.25210092  0.12944444  1
  V  V21  1  -0.00140341  0.49911773  0.50313985  1
  V  V22  1  0.12312422  0.38376176  0.74829250  1
  V  V23  1  0.75039817  0.24100773  -0.00744692  1
  V  V24  1  0.75530942  0.11794249  0.37385073  1
  V  V25  1  0.12536576  0.24483990  0.87831798  1
  V  V26  1  0.36755028  0.74824398  0.11927327  1
  V  V27  1  0.25213251  0.74936540  0.50789347  1
  V  V28  1  0.49625440  0.75155095  0.73816797  1
  V  V29  1  0.24748569  0.38286190  0.62399451  1
  V  V30  1  0.63763084  0.12350463  0.50350734  1
  V  V31  1  0.50023677  0.24980134  0.75215921  1
  V  V32  1  0.25123526  0.63761895  0.87922321  1
  V  V33  1  0.37314814  0.62913737  0.74295639  1
  V  V34  1  0.00255019  0.00010014  -0.01077437  1
  V  V35  1  0.36654614  0.87165838  -0.00116256  1
  V  V36  1  0.50753629  0.62248737  0.12737855  1
  V  V37  1  0.24550750  0.24839912  0.00911959  1
  V  V38  1  0.12068857  0.12543447  0.52384435  1
  V  V39  1  0.50590784  0.49697893  0.00326063  1
  V  V40  1  0.37812001  0.25853338  0.62088570  1
  V  V41  1  0.37325632  0.87299350  0.50582706  1
  V  V42  1  0.75132896  0.74980222  0.50614050  1
  V  V43  1  0.24443290  0.00346952  0.74470780  1
  V  V44  1  0.37944679  0.12592928  0.24852774  1
  V  V45  1  0.25023600  0.12707601  0.37534899  1
  V  V46  1  0.62417706  0.88145930  0.74254377  1
  V  V47  1  0.49308376  0.75300118  0.25185970  1
  V  V48  1  0.00200216  0.12378231  0.11963254  1
  V  V49  1  0.87753891  0.61904603  0.25625155  1
  V  V50  1  0.25532708  0.25812494  0.49882119  1
  V  V51  1  0.74715911  0.49840085  0.23442730  1
  V  V52  1  0.86770636  0.37877321  0.00575613  1
  V  V53  1  0.50188685  0.37246235  0.37704158  1
  V  V54  1  -0.00166070  0.61701271  0.12081927  1
  V  V55  1  0.25011575  0.62120243  0.37586633  1
  V  V56  1  0.00067352  0.37722310  0.88290683  1
  V  V57  1  0.87846938  0.50174760  0.87952724  1
  V  V58  1  0.75017716  0.37143818  0.62145766  1
  V  V59  1  0.62391214  0.75162229  0.87362800  1
  V  V60  1  0.12506931  -0.00053396  0.11788785  1
  V  V61  1  0.74657062  0.00536357  0.75743495  1
  V  V62  1  0.88177505  0.87327802  -0.00285350  1
  V  V63  1  0.62440004  0.37536501  0.75180980  1
  V  V64  1  0.24940677  0.49586262  0.23891408  1
  V  V65  1  0.12394151  0.24914542  0.37561310  1
  V  V66  1  0.24222649  0.88155199  0.61959173  1
  V  V67  1  0.37273286  0.62087768  0.24942173  1
  V  V68  1  0.50321331  0.11685906  0.62194956  1
  V  V69  1  0.74843549  0.75871229  0.00452281  1
  V  V70  1  0.50839335  0.12333493  0.12352431  1
  V  V71  1  0.75079320  0.88589670  0.62204724  1
  V  V72  1  0.63682809  -0.02004393  0.13582689  1
  V  V73  1  0.36931345  0.37607907  0.00980179  1
  V  V74  1  0.75439140  0.61190966  0.37951701  1
  V  V75  1  0.87324327  0.10436755  0.25421721  1
  V  V76  1  0.11794438  0.87889750  0.75272411  1
  V  V77  1  0.37424623  0.12711821  0.74869806  1
  V  V78  1  0.62856723  0.37544558  0.23742650  1
  V  V79  1  0.37437197  0.00239826  0.87621792  1
  V  V80  1  -0.00163159  0.75403396  0.75770122  1
  V  V81  1  0.88425142  0.87933107  0.48831098  1
  V  V82  1  0.12168594  0.75287555  0.37605537  1
  V  V83  1  -0.00330815  0.24987286  0.24954356  1
  V  V84  1  -0.00314484  0.38206506  0.37344288  1
  Zn  Zn85  1  0.12425089  0.75981456  0.88356236  1
  Zn  Zn86  1  0.24526055  0.86986111  0.12204007  1
  Zn  Zn87  1  0.37378940  0.49271491  0.37678941  1
  Zn  Zn88  1  0.24739504  0.12628041  0.87851455  1
  Zn  Zn89  1  0.62386486  0.50212015  0.62400999  1
  Zn  Zn90  1  0.50241139  -0.00178696  0.00342110  1
  Zn  Zn91  1  0.11722604  0.87821469  0.25157831  1
  Zn  Zn92  1  0.50685842  0.24846718  0.25066311  1
  Zn  Zn93  1  0.00104855  0.00441400  0.49937033  1
  Zn  Zn94  1  0.49625186  0.62633155  0.62042758  1
  Zn  Zn95  1  0.63243569  0.11351585  -0.00389360  1
  Zn  Zn96  1  0.87346368  0.62832119  0.75068780  1
  Zn  Zn97  1  0.87317808  0.75198951  0.12667329  1
  Zn  Zn98  1  0.50448631  -0.00126168  0.50162632  1
  Zn  Zn99  1  0.63376834  0.25092244  0.37967932  1
  Zn  Zn100  1  0.12262615  0.49186807  0.11270428  1
  Zn  Zn101  1  0.87579811  -0.00150807  0.87287149  1
  Zn  Zn102  1  0.63112880  0.24063528  0.87157651  1
  Zn  Zn103  1  0.37641204  0.25162131  0.12668239  1
  Zn  Zn104  1  0.87733078  0.75153427  0.62745447  1
  Zn  Zn105  1  0.49995963  0.37341044  0.87753497  1
  Zn  Zn106  1  0.24591197  0.50514462  0.74730678  1
  Zn  Zn107  1  0.18593115  0.18436734  0.18670803  1
  Zn  Zn108  1  0.19215723  0.19885061  0.69362502  1
  Zn  Zn109  1  0.18440416  0.68449411  0.18658200  1
  Zn  Zn110  1  0.18508039  0.69114849  0.68944380  1
  Zn  Zn111  1  0.69069465  0.18445981  0.18838359  1
  Zn  Zn112  1  0.68802538  0.18776074  0.68379276  1
  Zn  Zn113  1  0.69228736  0.70273159  0.19493316  1
  Zn  Zn114  1  0.68511341  0.68967228  0.68665279  1
  Zn  Zn115  1  0.31582583  0.31435164  0.31172329  1
  Zn  Zn116  1  0.31132013  0.31569867  0.81510471  1
  Zn  Zn117  1  0.30955545  0.81218337  0.31604250  1
  Zn  Zn118  1  0.31079830  0.81525374  0.80694213  1
  Zn  Zn119  1  0.80710215  0.30945821  0.31535208  1
  Zn  Zn120  1  0.81443169  0.31403131  0.81260778  1
  Zn  Zn121  1  0.81675504  0.80661388  0.31549572  1
  Zn  Zn122  1  0.81361936  0.81628854  0.81523432  1
  Zn  Zn123  1  0.18383621  0.43788342  0.43549867  1
  Zn  Zn124  1  0.18921302  0.43937285  0.93741711  1
  Zn  Zn125  1  0.15372567  0.95654334  0.42273848  1
  Zn  Zn126  1  0.18823981  0.94021454  0.93518228  1
  Zn  Zn127  1  0.68177970  0.43639129  0.43699243  1
  Zn  Zn128  1  0.68861492  0.43327097  0.93823831  1
  Zn  Zn129  1  0.68931746  0.94281789  0.43756654  1
  Zn  Zn130  1  0.68577266  0.93803945  0.93996742  1
  Zn  Zn131  1  0.31427209  0.06540654  0.06192111  1
  Zn  Zn132  1  0.31111294  0.06690583  0.56061970  1
  Zn  Zn133  1  0.31263147  0.56453746  0.05982965  1
  Zn  Zn134  1  0.31478040  0.56122541  0.56175209  1
  Zn  Zn135  1  0.81412533  0.05703337  0.06798954  1
  Zn  Zn136  1  0.82242917  0.05862598  0.56495111  1
  Zn  Zn137  1  0.81369474  0.56727814  0.06185843  1
  Zn  Zn138  1  0.81573797  0.55903219  0.56521475  1
  Zn  Zn139  1  0.44206623  0.43834881  0.18889230  1
  Zn  Zn140  1  0.43772109  0.44004726  0.68611476  1
  Zn  Zn141  1  0.44009056  0.93884541  0.18597667  1
  Zn  Zn142  1  0.43076370  0.93691046  0.68688968  1
  Zn  Zn143  1  0.93426572  0.43874201  0.18906071  1
  Zn  Zn144  1  0.93643027  0.43674140  0.68824558  1
  Zn  Zn145  1  0.93715194  0.93233371  0.17744116  1
  Zn  Zn146  1  0.93971411  0.94287291  0.67502263  1
  Zn  Zn147  1  0.05719869  0.06165261  0.31380380  1
  Zn  Zn148  1  0.06135041  0.06641902  0.80359596  1
  Zn  Zn149  1  0.06397449  0.56264740  0.31364770  1
  Zn  Zn150  1  0.06221383  0.56458327  0.81863515  1
  Zn  Zn151  1  0.56901307  0.05895014  0.31370590  1
  Zn  Zn152  1  0.56330065  0.06358468  0.81511883  1
  Zn  Zn153  1  0.56661164  0.56366666  0.31493616  1
  Zn  Zn154  1  0.55972619  0.56298162  0.81335020  1
  Zn  Zn155  1  0.44223681  0.19004300  0.43743260  1
  Zn  Zn156  1  0.43791655  0.18737238  0.93963078  1
  Zn  Zn157  1  0.43537042  0.68772996  0.43665724  1
  Zn  Zn158  1  0.43793623  0.68758595  0.93532954  1
  Zn  Zn159  1  0.93746100  0.18837074  0.43563216  1
  Zn  Zn160  1  0.93582874  0.18816871  0.93735601  1
  Zn  Zn161  1  0.93637140  0.68962920  0.43857987  1
  Zn  Zn162  1  0.93956099  0.68666518  0.93850621  1
  Zn  Zn163  1  0.05812132  0.30997628  0.06172171  1
  Zn  Zn164  1  0.06338810  0.31253855  0.56297465  1
  Zn  Zn165  1  0.06086364  0.80965061  0.06481110  1
  Zn  Zn166  1  0.06252924  0.80954819  0.56802298  1
  Zn  Zn167  1  0.56288491  0.30931708  0.06388847  1
  Zn  Zn168  1  0.56631298  0.30902802  0.56177582  1
  Zn  Zn169  1  0.55673139  0.81366703  0.06241222  1
  Zn  Zn170  1  0.56654644  0.81360051  0.55847822  1
  O  O171  1  0.11034067  0.11761916  0.12979986  1
  O  O172  1  0.12298038  0.14385225  0.62134747  1
  O  O173  1  0.11973109  0.62146356  0.11491346  1
  O  O174  1  0.12049292  0.62674659  0.61412928  1
  O  O175  1  0.61765419  0.12313176  0.12219927  1
  O  O176  1  0.61738002  0.12772839  0.61466664  1
  O  O177  1  0.61196332  0.63458884  0.12147480  1
  O  O178  1  0.62359782  0.62627492  0.61055545  1
  O  O179  1  0.39479374  0.37571184  0.36751080  1
  O  O180  1  0.37665279  0.38487528  0.88308630  1
  O  O181  1  0.37842718  0.87936125  0.38531191  1
  O  O182  1  0.37665120  0.88130129  0.87851538  1
  O  O183  1  0.88198602  0.36900089  0.38579846  1
  O  O184  1  0.88126271  0.38185864  0.88213229  1
  O  O185  1  0.87346233  0.86910496  0.38908986  1
  O  O186  1  0.87558931  0.87903571  0.88936870  1
  O  O187  1  0.24942631  0.00858668  0.36653832  1
  O  O188  1  0.25935564  0.00450951  0.86748398  1
  O  O189  1  0.25031202  0.50898962  0.37143347  1
  O  O190  1  0.26190507  0.50869834  0.87333542  1
  O  O191  1  0.74724578  0.01569490  0.37247980  1
  O  O192  1  0.75072830  -0.00536462  0.86061016  1
  O  O193  1  0.74779575  0.51013527  0.37415811  1
  O  O194  1  0.75694761  0.50382414  0.87031828  1
  O  O195  1  0.24653498  0.50396384  0.13591668  1
  O  O196  1  0.25415372  0.48699745  0.62542039  1
  O  O197  1  0.24227027  1.00146175  0.12906616  1
  O  O198  1  0.25718266  0.99378559  0.63360615  1
  O  O199  1  0.74702705  0.50612112  0.13608885  1
  O  O200  1  0.74873664  0.48991625  0.63302877  1
  O  O201  1  0.73659898  0.99700441  0.12403698  1
  O  O202  1  0.75349223  0.99007654  0.63408987  1
  O  O203  1  0.00443218  0.37154305  0.25791622  1
  O  O204  1  0.00326508  0.36866354  0.75994134  1
  O  O205  1  -0.00208132  0.85831194  0.24479981  1
  O  O206  1  0.00770439  0.86884297  0.74064586  1
  O  O207  1  0.51519522  0.37721673  0.25538847  1
  O  O208  1  0.50792857  0.36894765  0.74957039  1
  O  O209  1  0.49003985  0.86362431  0.26005123  1
  O  O210  1  0.50380383  0.87043202  0.75119782  1
  O  O211  1  0.49464394  0.12459967  0.24500133  1
  O  O212  1  0.49556522  0.13252731  0.74160191  1
  O  O213  1  0.48886780  0.62228055  0.24396162  1
  O  O214  1  0.49277103  0.63433075  0.74828967  1
  O  O215  1  0.98993147  0.12908323  0.24622533  1
  O  O216  1  0.99205373  0.14104896  0.75042906  1
  O  O217  1  0.99292174  0.62770997  0.24703913  1
  O  O218  1  1.00047016  0.63013155  0.74475241  1
  O  O219  1  0.36452640  0.25926018  0.00020163  1
  O  O220  1  0.36761873  0.24798658  0.50798945  1
  O  O221  1  0.37950823  0.75660490  0.00829308  1
  O  O222  1  0.36328263  0.75848004  0.49412666  1
  O  O223  1  0.86679642  0.25573369  0.00596788  1
  O  O224  1  0.88244191  0.26040036  0.50881808  1
  O  O225  1  0.86943055  0.75825911  -0.00249503  1
  O  O226  1  0.86722837  0.75627121  0.50446920  1
  O  O227  1  0.13212195  0.24634877  0.49243115  1
  O  O228  1  0.13697358  0.25739742  0.99454755  1
  O  O229  1  0.13038143  0.74188602  0.49447796  1
  O  O230  1  0.12181407  0.73579544  0.99883188  1
  O  O231  1  0.62218765  0.23075479  0.49912357  1
  O  O232  1  0.64390814  0.25419730  1.00120616  1
  O  O233  1  0.63455060  0.74531463  0.49103286  1
  O  O234  1  0.63007504  0.74757163  0.99415893  1
  O  O235  1  0.49784177  0.23971407  0.12983561  1
  O  O236  1  0.49407020  0.24599564  0.63369955  1
  O  O237  1  0.48808092  0.74405779  0.13302246  1
  O  O238  1  0.50306898  0.75013752  0.63480237  1
  O  O239  1  0.99119456  0.24060723  0.12833143  1
  O  O240  1  0.98880686  0.26186977  0.63541873  1
  O  O241  1  0.99941103  0.73595682  0.13477457  1
  O  O242  1  1.00137683  0.73625909  0.63574991  1
  O  O243  1  0.00736114  0.25998132  0.37017248  1
  O  O244  1  0.00490906  0.25853071  0.87040912  1
  O  O245  1  0.01059414  0.74077431  0.36657725  1
  O  O246  1  0.00348878  0.74469896  0.86128200  1
  O  O247  1  0.50664365  0.25760632  0.37031311  1
  O  O248  1  0.49653106  0.25228297  0.86089962  1
  O  O249  1  0.49889489  0.76126422  0.37010120  1
  O  O250  1  0.50471503  0.75589034  0.86515796  1
  O  O251  1  0.24212187  0.14159472  0.49770694  1
  O  O252  1  0.25549325  0.14305817  0.99677683  1
  O  O253  1  0.24396732  0.62851512  0.49665823  1
  O  O254  1  0.24135860  0.62509178  0.99208783  1
  O  O255  1  0.74352041  0.11965911  0.49749161  1
  O  O256  1  0.75551296  0.13797816  1.00373137  1
  O  O257  1  0.74602874  0.62765290  0.49826605  1
  O  O258  1  0.74258786  0.63011384  0.99270308  1
  O  O259  1  0.25788548  0.36496923  -0.00336304  1
  O  O260  1  0.24321785  0.36650689  0.50621538  1
  O  O261  1  0.26193643  0.87691264  0.00030659  1
  O  O262  1  0.25274355  0.86816620  0.50523720  1
  O  O263  1  0.76228361  0.36571549  -0.00134681  1
  O  O264  1  0.75846620  0.38258451  0.50743624  1
  O  O265  1  0.76018708  0.86573003  -0.00726243  1
  O  O266  1  0.75438506  0.86852241  0.50531944  1
  O  O267  1  0.13269234  0.49120648  0.25117059  1
  O  O268  1  0.12523878  0.48794583  0.75706327  1
  O  O269  1  0.13190783  0.99986620  0.23772459  1
  O  O270  1  0.13630882  0.99667451  0.75163819  1
  O  O271  1  0.63863052  0.49283697  0.25448454  1
  O  O272  1  0.63069245  0.49312048  0.74960835  1
  O  O273  1  0.62314950  0.99767479  0.23525191  1
  O  O274  1  0.62861213  0.98876103  0.75062015  1
  O  O275  1  0.36909462  0.00884839  0.25511079  1
  O  O276  1  0.36450578  0.00480423  0.75627722  1
  O  O277  1  0.36581512  0.50269441  0.25179433  1
  O  O278  1  0.37476786  0.50896345  0.75822273  1
  O  O279  1  0.88231556  0.00615131  0.24796562  1
  O  O280  1  0.86695202  0.00842008  0.75053810  1
  O  O281  1  0.85949326  0.50494890  0.24910201  1
  O  O282  1  0.86536257  0.49981028  0.75889430  1
  O  O283  1  0.11769869  0.36604498  0.36735580  1
  O  O284  1  0.11683368  0.36978837  0.87150365  1
  O  O285  1  0.13985528  0.85475179  0.36890891  1
  O  O286  1  0.13198707  0.87576032  0.85853379  1
  O  O287  1  0.61802742  0.37186689  0.36682867  1
  O  O288  1  0.62368196  0.36974389  0.86247844  1
  O  O289  1  0.61652674  0.86605829  0.38344234  1
  O  O290  1  0.61717842  0.87094993  0.86634641  1
  O  O291  1  0.38540417  0.12340044  0.13396933  1
  O  O292  1  0.38130419  0.13740285  0.62889828  1
  O  O293  1  0.38254887  0.63115181  0.12774073  1
  O  O294  1  0.37440280  0.62354974  0.63860490  1
  O  O295  1  0.88213696  0.12864252  0.13762977  1
  O  O296  1  0.86864449  0.14022200  0.63270411  1
  O  O297  1  0.88231420  0.62602043  0.13481126  1
  O  O298  1  0.88466934  0.62730324  0.62892153  1
  O  O299  1  0.25086331  0.24783940  0.11311903  1
  O  O300  1  0.25909727  0.26048607  0.61855307  1
  O  O301  1  0.26338579  0.74986042  0.13318659  1
  O  O302  1  0.24569631  0.75688122  0.61308211  1
  O  O303  1  0.76269488  0.24683471  0.11736561  1
  O  O304  1  0.75931347  0.26464564  0.62969461  1
  O  O305  1  0.75403206  0.74020106  0.10729136  1
  O  O306  1  0.74971151  0.75635316  0.61650353  1
  O  O307  1  0.24546582  0.24970630  0.38183829  1
  O  O308  1  0.24107519  0.25092926  0.88290259  1
  O  O309  1  0.24499513  0.73619701  0.38220008  1
  O  O310  1  0.24949573  0.74042020  0.87119593  1
  O  O311  1  0.74987411  0.23105830  0.37293972  1
  O  O312  1  0.75348748  0.25169916  0.88878235  1
  O  O313  1  0.75338619  0.73508634  0.39328752  1
  O  O314  1  0.74320459  0.74476692  0.88130730  1
  O  O315  1  -0.00888828  0.11680464  0.01025835  1
  O  O316  1  0.02031829  0.13187509  0.49379731  1
  O  O317  1  0.00899998  0.62561617  0.00855184  1
  O  O318  1  0.00474773  0.61847797  0.50687590  1
  O  O319  1  0.49843845  0.12209410  0.01225794  1
  O  O320  1  0.50570449  0.12237794  0.50796728  1
  O  O321  1  0.50490133  0.61890984  0.00650740  1
  O  O322  1  0.50762613  0.62145903  0.49817680  1
  O  O323  1  0.50969123  0.38368133  0.49200089  1
  O  O324  1  0.49488853  0.38130693  0.99855188  1
  O  O325  1  0.49069028  0.87581449  0.49534524  1
  O  O326  1  0.48746430  0.87505994  0.98946363  1
  O  O327  1  0.99629292  0.38153672  0.49410424  1
  O  O328  1  0.98924695  0.36993781  0.98871299  1
  O  O329  1  0.98563247  0.86720058  0.50540100  1
  O  O330  1  0.99181720  0.88230028  1.00143301  1
  O  O331  1  0.50188391  0.49329949  0.38214793  1
  O  O332  1  0.48831561  0.50098878  0.88330566  1
  O  O333  1  0.49428277  0.98708050  0.37443850  1
  O  O334  1  0.48634150  0.99178058  0.87080664  1
  O  O335  1  1.00281804  0.48794962  0.38128369  1
  O  O336  1  0.98687768  0.49283465  0.87095517  1
  O  O337  1  1.04382962  0.98801548  0.39467253  1
  O  O338  1  1.00272227  1.00819273  0.88622861  1
  O  O339  1  0.00688359  0.00518705  0.11566314  1
  O  O340  1  -0.00862814  0.01333214  0.61014501  1
  O  O341  1  0.00325309  0.51250428  0.13275454  1
  O  O342  1  -0.00170998  0.51036454  0.62037415  1
  O  O343  1  0.50806965  0.00720312  0.12463130  1
  O  O344  1  0.49193637  0.01399840  0.62607033  1
  O  O345  1  0.49561107  0.51044380  0.11503268  1
  O  O346  1  0.50346214  0.50325850  0.61595768  1
  O  O347  1  0.24012662  0.38302755  0.25628105  1
  O  O348  1  0.24098745  0.37657707  0.74304725  1
  O  O349  1  0.25364853  0.88973926  0.24788287  1
  O  O350  1  0.24524288  0.88399079  0.73944954  1
  O  O351  1  0.74202193  0.38850127  0.25352152  1
  O  O352  1  0.74389854  0.38027413  0.74485784  1
  O  O353  1  0.71400716  0.80041669  0.26979469  1
  O  O354  1  0.74199106  0.87951922  0.74216870  1
  O  O355  1  0.25739854  0.11598683  0.25232768  1
  O  O356  1  0.25593944  0.12059058  0.75093759  1
  O  O357  1  0.25159353  0.61652066  0.25795782  1
  O  O358  1  0.25530676  0.62504660  0.75641952  1
  O  O359  1  0.76781518  0.12496468  0.25377347  1
  O  O360  1  0.75616618  0.11659600  0.74372727  1
  O  O361  1  0.75528010  0.61612935  0.25796067  1
  O  O362  1  0.74803633  0.61893361  0.75618402  1
  O  O363  1  0.37021472  0.11994494  0.36992456  1
  O  O364  1  0.37493872  0.11765897  0.86765049  1
  O  O365  1  0.36547475  0.62180008  0.36872396  1
  O  O366  1  0.36875058  0.62028140  0.86827717  1
  O  O367  1  0.87464377  0.12468797  0.36183831  1
  O  O368  1  0.87714749  0.12487658  0.85951631  1
  O  O369  1  0.86959716  0.62552432  0.36532326  1
  O  O370  1  0.86899325  0.61668269  0.87507876  1
  O  O371  1  0.11642362  0.37517150  0.13781421  1
  O  O372  1  0.13442540  0.36876334  0.63566844  1
  O  O373  1  0.12689943  0.88274791  0.12907657  1
  O  O374  1  0.13609579  0.87304597  0.63316369  1
  O  O375  1  0.62172633  0.37802967  0.13849075  1
  O  O376  1  0.63280929  0.37522050  0.63431798  1
  O  O377  1  0.62203837  0.87950019  0.12683066  1
  O  O378  1  0.63473006  0.87177252  0.63162297  1
  O  O379  1  0.11973813  0.25627220  0.25513110  1
  O  O380  1  0.11740864  0.26190013  0.75889274  1
  O  O381  1  0.11696634  0.74589807  0.25808820  1
  O  O382  1  0.11771401  0.76116797  0.75260495  1
  O  O383  1  0.63053456  0.26500504  0.24964147  1
  O  O384  1  0.61737013  0.25674048  0.74894973  1
  O  O385  1  0.59624922  0.72421184  0.25897169  1
  O  O386  1  0.61754881  0.76033863  0.75367490  1
  O  O387  1  0.37358837  0.23588774  0.24839737  1
  O  O388  1  0.38040001  0.24747480  0.74379626  1
  O  O389  1  0.37876915  0.74203241  0.24675536  1
  O  O390  1  0.38458486  0.74300436  0.75437458  1
  O  O391  1  0.88118060  0.25182079  0.24243590  1
  O  O392  1  0.88064233  0.24700344  0.74377987  1
  O  O393  1  0.88282399  0.73809674  0.24844804  1
  O  O394  1  0.88256576  0.75010240  0.74901068  1
  O  O395  1  0.39025180  0.50488303  0.49615939  1
  O  O396  1  0.38159926  0.49466581  0.99446036  1
  O  O397  1  0.37444762  0.99327472  0.49280008  1
  O  O398  1  0.37640719  0.99345692  0.99128013  1
  O  O399  1  0.88844830  0.49023135  0.50330029  1
  O  O400  1  0.86867360  0.49227630  0.99226598  1
  O  O401  1  0.87475282  0.98392568  0.49537969  1
  O  O402  1  0.88302360  0.99130475  0.99832865  1
  O  O403  1  0.11962356  -0.00285152  0.00916676  1
  O  O404  1  0.14380313  0.02583697  0.51543007  1
  O  O405  1  0.12754950  0.51510525  -0.00182804  1
  O  O406  1  0.11172530  0.50719156  0.49619534  1
  O  O407  1  0.62122361  -0.00327507  0.01262850  1
  O  O408  1  0.62101293  0.01613097  0.49834312  1
  O  O409  1  0.61287262  0.50348356  -0.00694589  1
  O  O410  1  0.61624385  0.51104655  0.49972409  1
  O  O411  1  0.37954851  0.37421706  0.11392970  1
  O  O412  1  0.36779521  0.36476652  0.63047297  1
  O  O413  1  0.37477534  0.86726361  0.11579503  1
  O  O414  1  0.36430490  0.87713718  0.61262094  1
  O  O415  1  0.88333057  0.36557242  0.11603555  1
  O  O416  1  0.86878180  0.36984921  0.61666546  1
  O  O417  1  0.87425725  0.86940815  0.10661743  1
  O  O418  1  0.86338933  0.87063072  0.61722540  1
  O  O419  1  0.13344919  0.14102416  0.36857418  1
  O  O420  1  0.12457224  0.14140918  0.86915203  1
  O  O421  1  0.13150497  0.62962554  0.38624586  1
  O  O422  1  0.13364322  0.62760096  0.88372911  1
  O  O423  1  0.63294297  0.12672776  0.38436183  1
  O  O424  1  0.61935108  0.12875239  0.88379679  1
  O  O425  1  0.63549098  0.63538189  0.38281164  1
  O  O426  1  0.62755454  0.63172309  0.88115360  1
