# generated using pymatgen
data_V85Zn86O256
_symmetry_space_group_name_H-M   'P 1'
_cell_length_a   16.95601046
_cell_length_b   16.93920989
_cell_length_c   16.94560225
_cell_angle_alpha   89.98860780
_cell_angle_beta   90.04060306
_cell_angle_gamma   90.02912347
_symmetry_Int_Tables_number   1
_chemical_formula_structural   V85Zn86O256
_chemical_formula_sum   'V85 Zn86 O256'
_cell_volume   4867.13799567
_cell_formula_units_Z   1
loop_
 _symmetry_equiv_pos_site_id
 _symmetry_equiv_pos_as_xyz
  1  'x, y, z'
loop_
 _atom_site_type_symbol
 _atom_site_label
 _atom_site_symmetry_multiplicity
 _atom_site_fract_x
 _atom_site_fract_y
 _atom_site_fract_z
 _atom_site_occupancy
  V  V0  1  0.69474269  0.18470280  0.82082740  1
  V  V1  1  0.12603303  0.63895415  -0.00465663  1
  V  V2  1  0.49745444  0.62225810  0.10996961  1
  V  V3  1  0.74337559  -0.00963334  0.75563468  1
  V  V4  1  0.87712343  0.25338016  0.62406582  1
  V  V5  1  0.12381854  0.12676516  0.49964035  1
  V  V6  1  0.75069494  0.37986573  0.62575848  1
  V  V7  1  0.00466580  0.62443824  0.62635745  1
  V  V8  1  0.87512414  0.12654748  0.75802084  1
  V  V9  1  -0.00256529  0.61850523  0.11760579  1
  V  V10  1  0.12377028  0.75320279  0.37564669  1
  V  V11  1  0.62277030  0.62597941  0.50254853  1
  V  V12  1  0.12205272  0.13012645  -0.00977181  1
  V  V13  1  0.37572423  0.75090662  0.62460743  1
  V  V14  1  -0.00340896  -0.00976860  0.50119731  1
  V  V15  1  0.25174039  0.49944010  0.75230811  1
  V  V16  1  0.62269226  0.50087581  0.63137807  1
  V  V17  1  0.87368220  0.62422173  0.24879610  1
  V  V18  1  0.50745858  0.35963017  0.87113242  1
  V  V19  1  0.63542511  0.24821622  0.36785417  1
  V  V20  1  0.49750150  0.00119546  0.00020858  1
  V  V21  1  0.49967474  0.87367843  0.87805949  1
  V  V22  1  0.00131292  0.36655169  0.37465139  1
  V  V23  1  0.75542120  0.75419508  0.49790451  1
  V  V24  1  0.25060666  0.87730854  0.62456797  1
  V  V25  1  0.64319698  0.62564973  -0.00429099  1
  V  V26  1  0.87640578  0.50038355  0.37624431  1
  V  V27  1  0.86703059  0.62314106  0.75461453  1
  V  V28  1  -0.00242340  0.75079440  0.25015669  1
  V  V29  1  0.38551970  0.50223197  0.87716663  1
  V  V30  1  0.86544468  0.87431776  -0.00130463  1
  V  V31  1  0.86860361  0.00507652  0.38108131  1
  V  V32  1  0.00193688  0.00397090  0.00301612  1
  V  V33  1  0.37409265  0.11714249  0.25396657  1
  V  V34  1  0.24459275  0.74589803  0.50163294  1
  V  V35  1  0.36863271  0.87784377  0.00042233  1
  V  V36  1  0.00443946  0.50432808  0.49978776  1
  V  V37  1  0.63925209  0.13527258  0.00412700  1
  V  V38  1  0.00814348  0.37410857  0.88432325  1
  V  V39  1  0.50114799  0.25846624  0.24858595  1
  V  V40  1  0.49503339  0.87746567  0.37210638  1
  V  V41  1  0.24785762  0.25253130  -0.01432534  1
  V  V42  1  0.50017272  0.12614726  0.12588643  1
  V  V43  1  0.74786425  0.87425420  0.62343122  1
  V  V44  1  0.74400555  0.49428479  0.24906028  1
  V  V45  1  0.63723516  0.75187384  0.87736294  1
  V  V46  1  0.36949663  0.25083825  0.12574792  1
  V  V47  1  0.37339805  0.62537965  0.24859311  1
  V  V48  1  0.12111922  0.36842186  0.24797472  1
  V  V49  1  0.24723973  0.63745100  0.87719867  1
  V  V50  1  0.87392132  0.37033105  0.00115053  1
  V  V51  1  0.00553955  0.12465810  0.13773448  1
  V  V52  1  0.37541485  0.62706744  0.75046582  1
  V  V53  1  0.12604358  0.36681432  0.75272953  1
  V  V54  1  0.24098556  -0.00465053  0.23635953  1
  V  V55  1  0.50891263  0.37916426  0.37306450  1
  V  V56  1  0.25501955  0.36701450  0.62426643  1
  V  V57  1  0.62443779  0.74893766  0.37421988  1
  V  V58  1  0.86476678  0.74742874  0.11958772  1
  V  V59  1  0.25695387  0.00181810  0.75628273  1
  V  V60  1  0.37093799  0.88274397  0.49453446  1
  V  V61  1  0.88104975  0.24559880  0.13672040  1
  V  V62  1  0.74981788  0.62420089  0.37461907  1
  V  V63  1  -0.00026564  0.87805271  0.87534171  1
  V  V64  1  0.24254373  0.62300050  0.37905555  1
  V  V65  1  0.62023866  0.49672247  0.12154039  1
  V  V66  1  0.36833233  0.75248742  0.11914519  1
  V  V67  1  -0.00101937  0.12475549  0.62591933  1
  V  V68  1  0.62191859  0.00123655  0.61584142  1
  V  V69  1  0.00199671  0.74653202  0.75925993  1
  V  V70  1  0.62597132  -0.00177176  0.13144061  1
  V  V71  1  0.38061434  0.38014922  -0.00030169  1
  V  V72  1  0.12845471  0.50154292  0.62276116  1
  V  V73  1  0.39666432  0.24024350  0.62424992  1
  V  V74  1  0.75839695  0.01179840  0.24951151  1
  V  V75  1  0.87863483  0.75442911  0.62314929  1
  V  V76  1  0.24630979  0.49741376  0.24920091  1
  V  V77  1  0.37405310  0.49791582  0.37662420  1
  V  V78  1  0.49936975  0.74834503  0.24728362  1
  V  V79  1  0.12414585  0.87203639  0.75302495  1
  V  V80  1  0.87437150  0.50125348  0.88210408  1
  V  V81  1  0.25164319  0.11710618  0.37558473  1
  V  V82  1  0.74518015  0.36773482  0.12113162  1
  V  V83  1  0.50442032  0.75863733  0.75017145  1
  V  V84  1  0.12198565  0.49902152  0.11530788  1
  Zn  Zn85  1  0.12373555  0.00027899  0.62596256  1
  Zn  Zn86  1  0.40389366  0.13995050  0.76486185  1
  Zn  Zn87  1  0.00569803  0.24667606  0.75692853  1
  Zn  Zn88  1  0.62801412  0.12213253  0.48852924  1
  Zn  Zn89  1  0.49990485  0.62655938  0.62725473  1
  Zn  Zn90  1  0.62701555  0.87520538  0.24993480  1
  Zn  Zn91  1  0.24781525  0.37527519  0.12256417  1
  Zn  Zn92  1  -0.00618946  0.87307561  0.37689624  1
  Zn  Zn93  1  0.75580655  0.25014892  0.49028764  1
  Zn  Zn94  1  0.86711717  0.00627876  0.87981452  1
  Zn  Zn95  1  0.12452651  0.87599542  0.23409244  1
  Zn  Zn96  1  0.37715571  0.37157664  0.49904780  1
  Zn  Zn97  1  0.25547905  0.12299731  0.87273090  1
  Zn  Zn98  1  0.25449929  0.24757031  0.49662764  1
  Zn  Zn99  1  0.49842532  0.50189738  0.50265055  1
  Zn  Zn100  1  0.74746090  0.87153148  0.12691163  1
  Zn  Zn101  1  0.74579456  0.50167847  0.75850191  1
  Zn  Zn102  1  0.62471407  0.35662891  0.75118108  1
  Zn  Zn103  1  0.12440087  0.24570189  0.36847734  1
  Zn  Zn104  1  0.20592516  0.81780818  0.06665636  1
  Zn  Zn105  1  0.49147927  0.00532742  0.49738253  1
  Zn  Zn106  1  0.87641977  0.37735259  0.50190616  1
  Zn  Zn107  1  0.18626062  0.18399240  0.18338654  1
  Zn  Zn108  1  0.18960445  0.18592335  0.68656645  1
  Zn  Zn109  1  0.18291433  0.68278154  0.19125489  1
  Zn  Zn110  1  0.18686407  0.68781278  0.69095706  1
  Zn  Zn111  1  0.68655934  0.19087739  0.18767564  1
  Zn  Zn112  1  0.69677534  0.17513804  0.64722881  1
  Zn  Zn113  1  0.68464229  0.68257564  0.18676372  1
  Zn  Zn114  1  0.68655119  0.69064466  0.68939411  1
  Zn  Zn115  1  0.30998729  0.30936869  0.31376141  1
  Zn  Zn116  1  0.32169818  0.31177682  0.80777483  1
  Zn  Zn117  1  0.31025709  0.81357545  0.30925584  1
  Zn  Zn118  1  0.31719983  0.81840178  0.81270024  1
  Zn  Zn119  1  0.81742251  0.31912672  0.30697679  1
  Zn  Zn120  1  0.81955199  0.32175727  0.80578413  1
  Zn  Zn121  1  0.81324597  0.82151045  0.31139860  1
  Zn  Zn122  1  0.81602096  0.81376112  0.81071509  1
  Zn  Zn123  1  0.18666040  0.43381939  0.43996043  1
  Zn  Zn124  1  0.19285332  0.44257811  0.93738950  1
  Zn  Zn125  1  0.18400949  0.93995494  0.43351109  1
  Zn  Zn126  1  0.18001466  0.94185122  0.93554874  1
  Zn  Zn127  1  0.68725611  0.43737380  0.44154583  1
  Zn  Zn128  1  0.68804452  0.43734336  0.93948067  1
  Zn  Zn129  1  0.69168482  0.93224989  0.43175867  1
  Zn  Zn130  1  0.68256916  0.93940516  0.94136756  1
  Zn  Zn131  1  0.31156891  0.06563247  0.05923122  1
  Zn  Zn132  1  0.31148383  0.06371721  0.56796123  1
  Zn  Zn133  1  0.30794992  0.56346396  0.05959944  1
  Zn  Zn134  1  0.31194896  0.56253580  0.56299045  1
  Zn  Zn135  1  0.81662369  0.06246042  0.06776282  1
  Zn  Zn136  1  0.81174192  0.06438948  0.56047413  1
  Zn  Zn137  1  0.81317502  0.55360265  0.06091022  1
  Zn  Zn138  1  0.81390264  0.56523220  0.56482715  1
  Zn  Zn139  1  0.43598390  0.43975045  0.18670053  1
  Zn  Zn140  1  0.44057016  0.43357367  0.69028669  1
  Zn  Zn141  1  0.43445318  0.93647964  0.18572311  1
  Zn  Zn142  1  0.46193201  0.96959687  0.70877565  1
  Zn  Zn143  1  0.93699204  0.43566594  0.18867622  1
  Zn  Zn144  1  0.94103604  0.43840849  0.69303036  1
  Zn  Zn145  1  0.93556813  0.93753649  0.18707804  1
  Zn  Zn146  1  0.93221873  0.93905301  0.68881262  1
  Zn  Zn147  1  0.06301758  0.05695772  0.31705709  1
  Zn  Zn148  1  0.06361045  0.05837422  0.81350614  1
  Zn  Zn149  1  0.06305393  0.56084295  0.30982663  1
  Zn  Zn150  1  0.06169157  0.55685689  0.81546573  1
  Zn  Zn151  1  0.55458527  0.07349544  0.32720813  1
  Zn  Zn152  1  0.56670409  0.05832947  0.81684667  1
  Zn  Zn153  1  0.56191303  0.56354899  0.30806670  1
  Zn  Zn154  1  0.56210798  0.56895792  0.81385998  1
  Zn  Zn155  1  0.44063780  0.18782105  0.43739962  1
  Zn  Zn156  1  0.43609476  0.18464121  0.94179835  1
  Zn  Zn157  1  0.43374577  0.68980313  0.43683477  1
  Zn  Zn158  1  0.43530818  0.69195717  0.93560852  1
  Zn  Zn159  1  0.93651434  0.18339759  0.43742990  1
  Zn  Zn160  1  0.93475734  0.19390968  0.94058868  1
  Zn  Zn161  1  0.93928898  0.68392853  0.43927852  1
  Zn  Zn162  1  0.93535971  0.68604703  0.93860329  1
  Zn  Zn163  1  0.06191641  0.30855670  0.06168809  1
  Zn  Zn164  1  0.06402307  0.31253660  0.56267428  1
  Zn  Zn165  1  0.04273125  0.81059878  0.06316220  1
  Zn  Zn166  1  0.06563332  0.81028968  0.56537894  1
  Zn  Zn167  1  0.55898946  0.31437266  0.05903078  1
  Zn  Zn168  1  0.56619091  0.31758382  0.55428222  1
  Zn  Zn169  1  0.56222899  0.81070827  0.06088808  1
  Zn  Zn170  1  0.56141356  0.81884456  0.56150896  1
  O  O171  1  0.10973256  0.13095453  0.11298754  1
  O  O172  1  0.11523354  0.12257832  0.62024075  1
  O  O173  1  0.11645474  0.61943426  0.11820749  1
  O  O174  1  0.11894018  0.61326406  0.63335240  1
  O  O175  1  0.61971151  0.12068940  0.11933659  1
  O  O176  1  0.61221577  0.10307899  0.61921536  1
  O  O177  1  0.61811252  0.62146689  0.11217539  1
  O  O178  1  0.62420705  0.62148565  0.61787819  1
  O  O179  1  0.38145412  0.38339766  0.37409958  1
  O  O180  1  0.38561614  0.38158152  0.87933141  1
  O  O181  1  0.38079786  0.86459530  0.38412747  1
  O  O182  1  0.39029387  0.87012125  0.88564169  1
  O  O183  1  0.88460721  0.38332790  0.37722852  1
  O  O184  1  0.88470898  0.37949812  0.88280640  1
  O  O185  1  0.87926876  0.89348100  0.37156245  1
  O  O186  1  0.88349140  0.87657997  0.88086409  1
  O  O187  1  0.24619698  0.01193575  0.36518042  1
  O  O188  1  0.24453671  -0.00098934  0.85990150  1
  O  O189  1  0.25307098  0.50603055  0.37228779  1
  O  O190  1  0.26136209  0.50617043  0.86719812  1
  O  O191  1  0.75897177  -0.00006031  0.36534867  1
  O  O192  1  0.74820089  -0.00710165  0.86139510  1
  O  O193  1  0.75251180  0.50399756  0.36815206  1
  O  O194  1  0.76722195  0.49217850  0.87418182  1
  O  O195  1  0.24065453  0.49925881  0.13154562  1
  O  O196  1  0.24593192  0.49086032  0.62981803  1
  O  O197  1  0.24901446  1.00721781  0.13782365  1
  O  O198  1  0.24524394  0.99131035  0.63244544  1
  O  O199  1  0.74259538  0.49149189  0.13124930  1
  O  O200  1  0.74409460  0.49500622  0.62717626  1
  O  O201  1  0.74585632  0.99773069  0.13540080  1
  O  O202  1  0.74501157  0.99134800  0.62939360  1
  O  O203  1  0.00923331  0.38328975  0.26217987  1
  O  O204  1  0.01084614  0.37248469  0.75922777  1
  O  O205  1  -0.00079826  0.85980786  0.24839501  1
  O  O206  1  0.00290228  0.87021554  0.75548501  1
  O  O207  1  0.49159393  0.36417656  0.25422493  1
  O  O208  1  0.50620794  0.37486246  0.76556024  1
  O  O209  1  0.49804576  0.86083451  0.25165372  1
  O  O210  1  0.49843768  0.86779802  0.76195788  1
  O  O211  1  0.49130369  0.13581460  0.24689731  1
  O  O212  1  0.49070096  0.07595840  0.74057121  1
  O  O213  1  0.49379091  0.63424316  0.24171652  1
  O  O214  1  0.49260755  0.64010427  0.75065147  1
  O  O215  1  1.01021038  0.12183823  0.23621895  1
  O  O216  1  0.99401197  0.12444818  0.74358239  1
  O  O217  1  0.99449895  0.63293340  0.24419402  1
  O  O218  1  0.99620046  0.63182706  0.74741946  1
  O  O219  1  0.36833342  0.25794777  0.00856470  1
  O  O220  1  0.37575702  0.25073332  0.51005258  1
  O  O221  1  0.37786516  0.76050497  0.00860552  1
  O  O222  1  0.36255210  0.75578660  0.50460242  1
  O  O223  1  0.87718548  0.26356862  0.01192056  1
  O  O224  1  0.87700527  0.25232440  0.51163023  1
  O  O225  1  0.88074009  0.75919434  0.00872155  1
  O  O226  1  0.86739379  0.74006347  0.51061854  1
  O  O227  1  0.12539446  0.23583936  0.50030475  1
  O  O228  1  0.13650496  0.24438656  1.00277463  1
  O  O229  1  0.13616339  0.75189636  0.49316291  1
  O  O230  1  0.12517150  0.74095132  1.00502642  1
  O  O231  1  0.62585516  0.25483260  0.47750698  1
  O  O232  1  0.62379146  0.23405968  1.00779523  1
  O  O233  1  0.63245204  0.74393248  0.49482090  1
  O  O234  1  0.62212201  0.73686945  0.99068612  1
  O  O235  1  0.49026221  0.24851916  0.13056236  1
  O  O236  1  0.49546928  0.25218808  0.61906247  1
  O  O237  1  0.49194984  0.74176345  0.13017918  1
  O  O238  1  0.49717114  0.75323768  0.63391890  1
  O  O239  1  0.99030024  0.23953038  0.12318771  1
  O  O240  1  0.99539528  0.24071598  0.62747396  1
  O  O241  1  0.98667927  0.73608286  0.13355463  1
  O  O242  1  0.99475742  0.74596285  0.63286596  1
  O  O243  1  0.00190039  0.26329265  0.38228440  1
  O  O244  1  -0.00336996  0.26884963  0.87363194  1
  O  O245  1  0.00621020  0.74828681  0.36971954  1
  O  O246  1  -0.00520443  0.75699802  0.86374610  1
  O  O247  1  0.50820249  0.26093374  0.36556729  1
  O  O248  1  0.50011874  0.26102529  0.87777178  1
  O  O249  1  0.50297323  0.75270251  0.36502040  1
  O  O250  1  0.50730774  0.75552538  0.86907200  1
  O  O251  1  0.24162906  0.12200874  0.49376898  1
  O  O252  1  0.24089540  0.13383419  0.99817200  1
  O  O253  1  0.25337893  0.63368788  0.49123808  1
  O  O254  1  0.24008438  0.62378918  0.98923861  1
  O  O255  1  0.73659894  0.14208125  0.52871557  1
  O  O256  1  0.73816717  0.12166136  1.00625968  1
  O  O257  1  0.74058740  0.63321585  0.49716808  1
  O  O258  1  0.74130499  0.62648057  1.00428218  1
  O  O259  1  0.25950950  0.36899991  0.00068504  1
  O  O260  1  0.25402368  0.37180536  0.50952545  1
  O  O261  1  0.26253759  0.88163776  -0.00937339  1
  O  O262  1  0.25164094  0.87004662  0.50399240  1
  O  O263  1  0.75916803  0.37954792  0.01164317  1
  O  O264  1  0.75449598  0.37492811  0.51179428  1
  O  O265  1  0.76226450  0.88133597  0.00336888  1
  O  O266  1  0.75163115  0.86036717  0.50369843  1
  O  O267  1  0.12923419  0.49328459  0.24010961  1
  O  O268  1  0.13080125  0.48989269  0.74114930  1
  O  O269  1  0.13666105  0.99644257  0.25062689  1
  O  O270  1  0.12986098  0.98626597  0.74728033  1
  O  O271  1  0.63314327  0.50926573  0.23481772  1
  O  O272  1  0.62680399  0.50849670  0.73900112  1
  O  O273  1  0.62878264  1.00329954  0.24039433  1
  O  O274  1  0.63986271  0.99970405  0.73557538  1
  O  O275  1  0.36708117  0.01240949  0.24373451  1
  O  O276  1  0.35394878  -0.01818236  0.74741752  1
  O  O277  1  0.36770499  0.50513979  0.25904524  1
  O  O278  1  0.37137874  0.50609776  0.75576519  1
  O  O279  1  0.86380679  -0.00007676  0.25553408  1
  O  O280  1  0.86031554  0.01032539  0.74934274  1
  O  O281  1  0.86720586  0.50574079  0.25567856  1
  O  O282  1  0.87485273  0.50882476  0.75725057  1
  O  O283  1  0.11854692  0.37435962  0.36678469  1
  O  O284  1  0.11512045  0.38520709  0.86981027  1
  O  O285  1  0.12080877  0.86180313  0.37105760  1
  O  O286  1  0.10917243  0.87656894  0.86857253  1
  O  O287  1  0.61291442  0.37818029  0.37185554  1
  O  O288  1  0.61123480  0.37860730  0.87634581  1
  O  O289  1  0.61606114  0.86429486  0.37265225  1
  O  O290  1  0.61527222  0.85899702  0.88845707  1
  O  O291  1  0.38080419  0.13449930  0.12966243  1
  O  O292  1  0.37847180  0.13854230  0.62296137  1
  O  O293  1  0.38128267  0.62769717  0.12774435  1
  O  O294  1  0.37653394  0.63205162  0.63112589  1
  O  O295  1  0.88564619  0.13908437  0.12158141  1
  O  O296  1  0.88115455  0.13235689  0.63506169  1
  O  O297  1  0.87960311  0.62658297  0.12680720  1
  O  O298  1  0.88350466  0.63314167  0.63381440  1
  O  O299  1  0.26070523  0.25131644  0.11980775  1
  O  O300  1  0.25247871  0.25966736  0.62237787  1
  O  O301  1  0.26338859  0.73982236  0.12955017  1
  O  O302  1  0.25127375  0.75470730  0.61765053  1
  O  O303  1  0.76073957  0.26154849  0.13223496  1
  O  O304  1  0.76231194  0.26578947  0.62678888  1
  O  O305  1  0.76146691  0.74855909  0.13114228  1
  O  O306  1  0.75742909  0.75435695  0.61918737  1
  O  O307  1  0.24547960  0.23625514  0.37641455  1
  O  O308  1  0.25378708  0.25413210  0.88358404  1
  O  O309  1  0.24263042  0.74365941  0.37972052  1
  O  O310  1  0.25423016  0.73653329  0.86587039  1
  O  O311  1  0.73809572  0.26806034  0.37111931  1
  O  O312  1  0.75219792  0.24923637  0.86911693  1
  O  O313  1  0.74788438  0.74481437  0.38076885  1
  O  O314  1  0.73598985  0.75611893  0.87096881  1
  O  O315  1  0.00385493  0.12106113  0.00188449  1
  O  O316  1  0.00476513  0.11686195  0.50871001  1
  O  O317  1  0.00810193  0.62780147  0.00883524  1
  O  O318  1  0.00043331  0.61203385  0.50758279  1
  O  O319  1  0.50772259  0.11737276  0.00726203  1
  O  O320  1  0.51670165  0.10743555  0.45581252  1
  O  O321  1  0.50135643  0.62749002  0.00861042  1
  O  O322  1  0.51221675  0.62716169  0.49945594  1
  O  O323  1  0.49702756  0.38292111  0.48733433  1
  O  O324  1  0.48853401  0.37415050  0.98912199  1
  O  O325  1  0.48779674  0.87105925  0.48763363  1
  O  O326  1  0.49187083  0.88127080  0.99828268  1
  O  O327  1  1.00149102  0.38698418  0.49435218  1
  O  O328  1  0.99692638  0.37480588  0.98994480  1
  O  O329  1  1.00452035  0.88722746  0.50438472  1
  O  O330  1  0.98939781  0.88384613  0.99188042  1
  O  O331  1  0.49114434  0.49609154  0.37097419  1
  O  O332  1  0.48786175  0.50012790  0.87165118  1
  O  O333  1  0.50075678  0.97875956  0.36386661  1
  O  O334  1  0.51507265  0.98737318  0.89355152  1
  O  O335  1  0.99878555  0.49661641  0.38382115  1
  O  O336  1  0.98858645  0.48454737  0.86977324  1
  O  O337  1  0.99305797  0.99571513  0.38479822  1
  O  O338  1  0.99280435  0.99340930  0.88122907  1
  O  O339  1  -0.01007129  0.01606115  0.11785580  1
  O  O340  1  -0.00332480  0.00898037  0.62025381  1
  O  O341  1  0.00579171  0.51155338  0.13160216  1
  O  O342  1  0.00891384  0.50231046  0.62004843  1
  O  O343  1  0.50752320  0.00520936  0.12172086  1
  O  O344  1  0.52137365  -0.02912685  0.60951876  1
  O  O345  1  0.50901423  0.50951004  0.13120598  1
  O  O346  1  0.50793652  0.50346812  0.62368525  1
  O  O347  1  0.24256977  0.38211825  0.24831687  1
  O  O348  1  0.24628456  0.38002523  0.74451984  1
  O  O349  1  0.25018522  0.89107420  0.25098778  1
  O  O350  1  0.24074670  0.87636230  0.74409739  1
  O  O351  1  0.75202149  0.38870471  0.24035790  1
  O  O352  1  0.74409982  0.38048877  0.74000719  1
  O  O353  1  0.74464088  0.88756901  0.24668357  1
  O  O354  1  0.75619186  0.88338962  0.74014617  1
  O  O355  1  0.25409768  0.11758640  0.25410967  1
  O  O356  1  0.24742031  0.10797773  0.74773345  1
  O  O357  1  0.25372838  0.61709972  0.25813420  1
  O  O358  1  0.25565807  0.61873352  0.75500410  1
  O  O359  1  0.74835791  0.11060181  0.24340472  1
  O  O360  1  0.75250580  0.12233019  0.75221611  1
  O  O361  1  0.75441937  0.61506005  0.25364368  1
  O  O362  1  0.76436570  0.62542163  0.74658694  1
  O  O363  1  0.36558414  0.13129058  0.36310889  1
  O  O364  1  0.36936993  0.13168122  0.87159246  1
  O  O365  1  0.36454985  0.62011808  0.36882494  1
  O  O366  1  0.36913052  0.61992180  0.87112646  1
  O  O367  1  0.88237153  0.10631334  0.37310898  1
  O  O368  1  0.87909733  0.12745999  0.86201916  1
  O  O369  1  0.86852790  0.61951004  0.36971473  1
  O  O370  1  0.88235943  0.61455460  0.86781735  1
  O  O371  1  0.12235742  0.38283399  0.12978718  1
  O  O372  1  0.13325076  0.37976884  0.63275174  1
  O  O373  1  0.12149669  0.86429862  0.12125338  1
  O  O374  1  0.13536118  0.87504925  0.63197343  1
  O  O375  1  0.63130008  0.38530824  0.11513658  1
  O  O376  1  0.63140789  0.38329364  0.62815670  1
  O  O377  1  0.62540768  0.88307252  0.12593329  1
  O  O378  1  0.64276730  0.87615175  0.62079666  1
  O  O379  1  0.12951154  0.26458582  0.24656499  1
  O  O380  1  0.12713282  0.26290565  0.74764486  1
  O  O381  1  0.11540233  0.74900266  0.25797822  1
  O  O382  1  0.11546858  0.76207515  0.74555130  1
  O  O383  1  0.61561012  0.25422384  0.25654408  1
  O  O384  1  0.63995623  0.23473933  0.75126565  1
  O  O385  1  0.61573529  0.74735899  0.25473418  1
  O  O386  1  0.61767810  0.74363499  0.76622349  1
  O  O387  1  0.37838488  0.24352072  0.24183517  1
  O  O388  1  0.37798577  0.24933083  0.73074787  1
  O  O389  1  0.38009276  0.74384305  0.24317379  1
  O  O390  1  0.38291159  0.74879644  0.74304776  1
  O  O391  1  0.87991688  0.25537558  0.23586980  1
  O  O392  1  0.87942273  0.24415843  0.73965611  1
  O  O393  1  0.87967863  0.74334797  0.24550837  1
  O  O394  1  0.88323057  0.74276025  0.74435419  1
  O  O395  1  0.37608005  0.50270332  0.48596981  1
  O  O396  1  0.36852443  0.49067685  0.99120228  1
  O  O397  1  0.37312822  0.98664109  0.50480248  1
  O  O398  1  0.38721381  0.99342041  1.00924658  1
  O  O399  1  0.88408610  0.50131699  0.49441482  1
  O  O400  1  0.87768232  0.48721153  0.99462717  1
  O  O401  1  0.87962505  1.00300906  0.49086941  1
  O  O402  1  0.88249745  0.99486179  0.99847532  1
  O  O403  1  0.10890385  0.00870759  -0.00226065  1
  O  O404  1  0.11561923  0.00932334  0.50171352  1
  O  O405  1  0.12962599  0.50672398  0.01261866  1
  O  O406  1  0.12075656  0.49586385  0.51425822  1
  O  O407  1  0.62046640  0.00833868  0.01417757  1
  O  O408  1  0.63425633  -0.00343659  0.50831525  1
  O  O409  1  0.62890213  0.51510386  0.00764454  1
  O  O410  1  0.62496416  0.50977609  0.51137780  1
  O  O411  1  0.37416505  0.37040286  0.11628408  1
  O  O412  1  0.37041569  0.36689702  0.62310161  1
  O  O413  1  0.37657767  0.86422323  0.11569145  1
  O  O414  1  0.35968878  0.86705703  0.61494039  1
  O  O415  1  0.87171577  0.36800278  0.11996551  1
  O  O416  1  0.87177945  0.37035315  0.62686048  1
  O  O417  1  0.87580039  0.86432292  0.11655953  1
  O  O418  1  0.86829328  0.86099304  0.62895749  1
  O  O419  1  0.12914315  0.12625783  0.38293762  1
  O  O420  1  0.12698424  0.12376205  0.88586150  1
  O  O421  1  0.13591156  0.63335866  0.36976069  1
  O  O422  1  0.13270638  0.61779072  0.88421223  1
  O  O423  1  0.63884901  0.14543723  0.36456924  1
  O  O424  1  0.63207925  0.12704610  0.88389127  1
  O  O425  1  0.63078487  0.62813318  0.38151162  1
  O  O426  1  0.62446944  0.63353449  0.88849524  1
