# generated using pymatgen
data_V85Zn86O256
_symmetry_space_group_name_H-M   'P 1'
_cell_length_a   16.94211121
_cell_length_b   16.96371105
_cell_length_c   16.96897802
_cell_angle_alpha   89.97283020
_cell_angle_beta   89.95925653
_cell_angle_gamma   89.92243181
_symmetry_Int_Tables_number   1
_chemical_formula_structural   V85Zn86O256
_chemical_formula_sum   'V85 Zn86 O256'
_cell_volume   4876.89634826
_cell_formula_units_Z   1
loop_
 _symmetry_equiv_pos_site_id
 _symmetry_equiv_pos_as_xyz
  1  'x, y, z'
loop_
 _atom_site_type_symbol
 _atom_site_label
 _atom_site_symmetry_multiplicity
 _atom_site_fract_x
 _atom_site_fract_y
 _atom_site_fract_z
 _atom_site_occupancy
  V  V0  1  0.12552877  0.25403577  0.37239753  1
  V  V1  1  0.87445889  0.24318839  0.62557754  1
  V  V2  1  0.62316482  0.37407646  0.24705137  1
  V  V3  1  0.87408738  0.25275712  0.12590242  1
  V  V4  1  0.12454158  0.00172728  0.12401888  1
  V  V5  1  0.74968908  0.38329515  0.12221310  1
  V  V6  1  0.37441148  0.87085481  0.50892789  1
  V  V7  1  0.75900400  0.12704834  0.87080381  1
  V  V8  1  0.24608457  0.74015359  0.00232163  1
  V  V9  1  0.62278084  0.24868138  0.37091311  1
  V  V10  1  0.12615506  0.74791920  0.87745144  1
  V  V11  1  0.37029121  0.87481909  -0.00300689  1
  V  V12  1  0.37682970  0.38547777  -0.00137057  1
  V  V13  1  0.25367873  0.75302388  0.51203215  1
  V  V14  1  -0.00346893  0.88820763  0.37773776  1
  V  V15  1  0.00217693  0.25367397  0.25048710  1
  V  V16  1  0.00105835  0.12660940  0.12394390  1
  V  V17  1  0.75094186  -0.01192824  0.24745068  1
  V  V18  1  0.49693717  0.38972295  0.87668776  1
  V  V19  1  0.37618394  0.25280748  0.62371660  1
  V  V20  1  0.74808086  0.73458574  0.50219201  1
  V  V21  1  0.12522655  0.49737232  0.13825179  1
  V  V22  1  0.37980159  0.11875053  0.25011983  1
  V  V23  1  0.49320368  0.37970837  0.37704803  1
  V  V24  1  -0.00336486  0.75055774  0.25294755  1
  V  V25  1  0.25246871  -0.00343192  0.25002244  1
  V  V26  1  0.12474559  0.75208241  0.37834169  1
  V  V27  1  0.74755290  0.25435193  0.50046359  1
  V  V28  1  0.12366257  0.62634167  0.50394296  1
  V  V29  1  0.12970223  0.88196694  0.73920522  1
  V  V30  1  0.52332454  0.87414132  0.37489357  1
  V  V31  1  0.60617008  0.50319296  0.11980967  1
  V  V32  1  0.75862901  0.00007711  0.75130092  1
  V  V33  1  0.50556174  0.12757778  0.62568709  1
  V  V34  1  0.87460340  0.12011107  0.25176482  1
  V  V35  1  0.87038257  0.37576665  0.50213067  1
  V  V36  1  0.75615200  0.86512049  0.62547795  1
  V  V37  1  0.37968418  -0.00929156  0.37336731  1
  V  V38  1  0.74975549  0.50426141  0.25402118  1
  V  V39  1  0.87676499  0.50216545  0.88498287  1
  V  V40  1  0.62809458  0.12561172  0.49934890  1
  V  V41  1  0.87382899  0.87545224  0.49444768  1
  V  V42  1  0.37008569  0.61259348  0.75313513  1
  V  V43  1  -0.00148838  0.49996124  0.50038467  1
  V  V44  1  0.60769423  0.62234099  0.00131298  1
  V  V45  1  0.11721114  0.26186043  0.87155030  1
  V  V46  1  0.49567722  0.63061375  0.61808073  1
  V  V47  1  0.75035076  0.50058312  0.74687009  1
  V  V48  1  0.00107536  0.37880590  0.36993204  1
  V  V49  1  0.63264280  -0.01586238  0.12546485  1
  V  V50  1  -0.00095820  0.75228320  0.75071127  1
  V  V51  1  0.24658868  0.37232501  0.13193204  1
  V  V52  1  0.24934064  0.25058607  0.50143899  1
  V  V53  1  0.49852976  0.87951130  0.86912516  1
  V  V54  1  0.62728775  0.12548826  -0.00097529  1
  V  V55  1  0.62503378  0.75190531  0.87503320  1
  V  V56  1  0.63077903  0.37711492  0.74590802  1
  V  V57  1  0.62357535  0.50424448  0.61785723  1
  V  V58  1  0.87300051  0.63185230  0.75081583  1
  V  V59  1  0.74578881  0.62742227  0.87995759  1
  V  V60  1  0.63251706  0.72484447  0.37367517  1
  V  V61  1  0.25095833  0.12238692  0.37607761  1
  V  V62  1  0.00477132  0.63241243  0.12016648  1
  V  V63  1  0.37323958  0.12552033  0.74943059  1
  V  V64  1  0.24489913  0.37412907  0.63277149  1
  V  V65  1  0.62718693  0.25246256  0.87437879  1
  V  V66  1  0.50237129  -0.00013868  -0.00258390  1
  V  V67  1  0.75081678  0.25251407  -0.00144508  1
  V  V68  1  0.24864201  0.87203797  0.12508444  1
  V  V69  1  0.50402879  0.12263731  0.12512375  1
  V  V70  1  0.87286114  0.86846428  0.01105544  1
  V  V71  1  0.12166543  0.49385763  0.63520280  1
  V  V72  1  0.00840985  0.49744524  -0.00004836  1
  V  V73  1  0.87526024  0.62585371  0.25509856  1
  V  V74  1  -0.00583110  0.62809284  0.62672346  1
  V  V75  1  0.25728089  0.61984397  0.37397906  1
  V  V76  1  0.36463115  0.00400821  0.87534016  1
  V  V77  1  0.62344570  0.87427250  0.74801818  1
  V  V78  1  0.11669406  0.11369892  0.50578400  1
  V  V79  1  0.62975380  -0.00007209  0.62608062  1
  V  V80  1  0.75373998  0.12162345  0.37335681  1
  V  V81  1  0.50265218  0.25309227  0.75167894  1
  V  V82  1  0.48601233  0.75412694  0.74630713  1
  V  V83  1  0.25098443  0.24564985  -0.00117827  1
  V  V84  1  0.50387522  -0.00053016  0.50067057  1
  Zn  Zn85  1  0.50435283  0.74838661  0.24629629  1
  Zn  Zn86  1  -0.00089569  0.88076762  0.87643866  1
  Zn  Zn87  1  0.12410400  0.12541443  -0.00401524  1
  Zn  Zn88  1  0.24382637  0.12728115  0.86804854  1
  Zn  Zn89  1  0.00472017  0.25373806  0.74987920  1
  Zn  Zn90  1  0.24499912  0.48965801  0.76084733  1
  Zn  Zn91  1  0.87783007  0.37913191  0.00142526  1
  Zn  Zn92  1  0.49388495  0.50956952  0.49486286  1
  Zn  Zn93  1  0.25278434  0.49175474  0.26116381  1
  Zn  Zn94  1  0.24955602  0.61534817  0.88231288  1
  Zn  Zn95  1  0.74612287  0.76293669  0.02882137  1
  Zn  Zn96  1  0.88046543  -0.00044643  0.87808600  1
  Zn  Zn97  1  0.36956443  0.38635955  0.49645119  1
  Zn  Zn98  1  0.37720213  0.24842357  0.12263877  1
  Zn  Zn99  1  0.12326439  0.87621824  0.25307660  1
  Zn  Zn100  1  -0.00300126  -0.00218671  0.00016932  1
  Zn  Zn101  1  1.00801245  0.10206912  0.63965692  1
  Zn  Zn102  1  0.23041667  0.00602341  0.71544147  1
  Zn  Zn103  1  0.86630306  0.50342420  0.37861707  1
  Zn  Zn104  1  0.38330430  0.74290773  0.12828535  1
  Zn  Zn105  1  0.38884888  0.61665805  0.24101193  1
  Zn  Zn106  1  0.49894959  0.24893200  0.24754467  1
  Zn  Zn107  1  0.18922418  0.18751915  0.18858290  1
  Zn  Zn108  1  0.18198920  0.19018596  0.69027532  1
  Zn  Zn109  1  0.18521064  0.68767595  0.19081412  1
  Zn  Zn110  1  0.18329511  0.68727599  0.69018243  1
  Zn  Zn111  1  0.68868659  0.18634604  0.18551320  1
  Zn  Zn112  1  0.69886831  0.19073067  0.68827119  1
  Zn  Zn113  1  0.68261540  0.68268833  0.19176112  1
  Zn  Zn114  1  0.68189095  0.68692644  0.68789501  1
  Zn  Zn115  1  0.31507392  0.30663545  0.31006547  1
  Zn  Zn116  1  0.31225431  0.31213705  0.81732212  1
  Zn  Zn117  1  0.31600425  0.80742898  0.31397442  1
  Zn  Zn118  1  0.30596175  0.81479842  0.81211278  1
  Zn  Zn119  1  0.81323874  0.31433434  0.31242394  1
  Zn  Zn120  1  0.84185494  0.33169211  0.79470158  1
  Zn  Zn121  1  0.81114451  0.80521147  0.31603371  1
  Zn  Zn122  1  0.81393715  0.81547066  0.82053825  1
  Zn  Zn123  1  0.18344705  0.43767686  0.44481654  1
  Zn  Zn124  1  0.18934334  0.43708296  0.94407283  1
  Zn  Zn125  1  0.18969770  0.93436698  0.44013682  1
  Zn  Zn126  1  0.18062485  0.93313519  0.93597642  1
  Zn  Zn127  1  0.68129060  0.43728100  0.43583259  1
  Zn  Zn128  1  0.68585625  0.44149106  0.93630142  1
  Zn  Zn129  1  0.70380488  0.94206564  0.44327820  1
  Zn  Zn130  1  0.69331514  0.93659414  0.93912394  1
  Zn  Zn131  1  0.31337277  0.06113220  0.06297357  1
  Zn  Zn132  1  0.31444755  0.06487332  0.55798099  1
  Zn  Zn133  1  0.31402951  0.56012908  0.07055062  1
  Zn  Zn134  1  0.31350822  0.56307793  0.56489137  1
  Zn  Zn135  1  0.81446768  0.06046095  0.06129273  1
  Zn  Zn136  1  0.84966022  0.03642096  0.57915584  1
  Zn  Zn137  1  0.80251938  0.59180822  0.07795502  1
  Zn  Zn138  1  0.81448005  0.55906624  0.56735294  1
  Zn  Zn139  1  0.42790719  0.43661972  0.19314805  1
  Zn  Zn140  1  0.43820811  0.43808759  0.68198640  1
  Zn  Zn141  1  0.45432832  0.90880922  0.17520617  1
  Zn  Zn142  1  0.40906913  0.95130509  0.67237286  1
  Zn  Zn143  1  0.93634464  0.44214853  0.18701537  1
  Zn  Zn144  1  0.93678817  0.43483284  0.68738644  1
  Zn  Zn145  1  0.93620850  0.93624370  0.18826080  1
  Zn  Zn146  1  0.94093940  0.93166900  0.68673797  1
  Zn  Zn147  1  0.06578791  0.06565208  0.31199794  1
  Zn  Zn148  1  0.05676315  0.07168420  0.81507992  1
  Zn  Zn149  1  0.06534555  0.56507479  0.31481701  1
  Zn  Zn150  1  0.06428578  0.56371724  0.81715740  1
  Zn  Zn151  1  0.56805145  0.05588816  0.30943616  1
  Zn  Zn152  1  0.56574737  0.06354709  0.81139480  1
  Zn  Zn153  1  0.56081088  0.55924630  0.30776990  1
  Zn  Zn154  1  0.56015899  0.56665743  0.80658747  1
  Zn  Zn155  1  0.43767911  0.18827389  0.43702187  1
  Zn  Zn156  1  0.43732332  0.19190800  0.93675778  1
  Zn  Zn157  1  0.43876909  0.69213558  0.43143469  1
  Zn  Zn158  1  0.43020871  0.69112619  0.93340290  1
  Zn  Zn159  1  0.93702923  0.18669436  0.43843889  1
  Zn  Zn160  1  0.93819814  0.18967328  0.93895762  1
  Zn  Zn161  1  0.93353060  0.69128360  0.43766392  1
  Zn  Zn162  1  0.93639174  0.69104544  0.93921445  1
  Zn  Zn163  1  0.06586999  0.31477775  0.05975675  1
  Zn  Zn164  1  0.05930045  0.30994495  0.55955967  1
  Zn  Zn165  1  0.06181591  0.81406402  0.06136013  1
  Zn  Zn166  1  0.05782517  0.81399227  0.56428026  1
  Zn  Zn167  1  0.55961729  0.31359457  0.06142546  1
  Zn  Zn168  1  0.56463166  0.31625053  0.56215634  1
  Zn  Zn169  1  0.56051480  0.80961795  0.05626628  1
  Zn  Zn170  1  0.56712993  0.80953200  0.55884348  1
  O  O171  1  0.11706389  0.11937538  0.12591757  1
  O  O172  1  0.12438740  0.12711899  0.61122065  1
  O  O173  1  0.11264298  0.61547052  0.13176177  1
  O  O174  1  0.11273145  0.61765852  0.62344039  1
  O  O175  1  0.61628586  0.11925808  0.11963061  1
  O  O176  1  0.62414365  0.12152734  0.62009614  1
  O  O177  1  0.61708856  0.61035260  0.11667129  1
  O  O178  1  0.60851536  0.61545130  0.63535239  1
  O  O179  1  0.39006207  0.36422524  0.37577482  1
  O  O180  1  0.38343802  0.36972695  0.88771489  1
  O  O181  1  0.38222137  0.87914446  0.38444828  1
  O  O182  1  0.37819809  0.88593950  0.87580648  1
  O  O183  1  0.88337435  0.37698089  0.38229664  1
  O  O184  1  0.85898152  0.39952552  0.88625652  1
  O  O185  1  0.88420989  0.86541104  0.38471974  1
  O  O186  1  0.87897904  0.87868542  0.88608712  1
  O  O187  1  0.25828560  0.00159865  0.36921184  1
  O  O188  1  0.26087102  0.00201052  0.87896487  1
  O  O189  1  0.23845110  0.51630388  0.38079604  1
  O  O190  1  0.23871106  0.50386482  0.87147096  1
  O  O191  1  0.73944772  0.01564720  0.36168021  1
  O  O192  1  0.74654742  0.01031052  0.86725284  1
  O  O193  1  0.74611634  0.49007942  0.35804732  1
  O  O194  1  0.75056048  0.51086105  0.86468361  1
  O  O195  1  0.23804536  0.48955794  0.12292287  1
  O  O196  1  0.23874320  0.49100074  0.62867924  1
  O  O197  1  0.24279786  0.99656455  0.13111377  1
  O  O198  1  0.30113703  0.98599228  0.63343613  1
  O  O199  1  0.74555623  0.49515485  0.13321396  1
  O  O200  1  0.74052507  0.50823667  0.63892749  1
  O  O201  1  0.73826102  1.00840285  0.13216991  1
  O  O202  1  0.74910071  0.99034801  0.63364352  1
  O  O203  1  -0.00580914  0.37118837  0.26253210  1
  O  O204  1  -0.04833803  0.35416398  0.76021462  1
  O  O205  1  -0.00058214  0.86753220  0.25878419  1
  O  O206  1  0.00483483  0.86575936  0.75251831  1
  O  O207  1  0.50441704  0.37002168  0.25954572  1
  O  O208  1  0.50536458  0.37091960  0.75693845  1
  O  O209  1  0.50273948  0.87819677  0.27511770  1
  O  O210  1  0.50336614  0.87080774  0.75389151  1
  O  O211  1  0.49613996  0.12081090  0.24239596  1
  O  O212  1  0.49804958  0.13467442  0.74525191  1
  O  O213  1  0.50103258  0.63537404  0.25890185  1
  O  O214  1  0.48762776  0.63427827  0.74509381  1
  O  O215  1  0.99352726  0.13065320  0.24278455  1
  O  O216  1  1.00219738  0.13941238  0.74431844  1
  O  O217  1  0.99940085  0.63326033  0.24613611  1
  O  O218  1  0.99186702  0.62976128  0.74603483  1
  O  O219  1  0.36650832  0.25465405  0.00211161  1
  O  O220  1  0.36355609  0.24831763  0.50540434  1
  O  O221  1  0.36558152  0.76089451  0.00094783  1
  O  O222  1  0.35998742  0.75541709  0.49262120  1
  O  O223  1  0.86766504  0.25567553  0.00698943  1
  O  O224  1  0.86544359  0.25772622  0.49934269  1
  O  O225  1  0.86982051  0.76281294  -0.00371929  1
  O  O226  1  0.85739427  0.75740743  0.49430809  1
  O  O227  1  0.13315142  0.24236707  0.49187606  1
  O  O228  1  0.13492945  0.24803307  0.99570743  1
  O  O229  1  0.13147041  0.74808488  0.49673546  1
  O  O230  1  0.13325698  0.75621041  0.99024685  1
  O  O231  1  0.62953718  0.24747797  0.49009682  1
  O  O232  1  0.63108254  0.24624604  0.99495824  1
  O  O233  1  0.63889221  0.74893748  0.48918589  1
  O  O234  1  0.62801970  0.74269892  0.99296092  1
  O  O235  1  0.49984647  0.23657897  0.12644074  1
  O  O236  1  0.49683892  0.24790369  0.63080651  1
  O  O237  1  0.48847672  0.79674802  0.13883983  1
  O  O238  1  0.51069543  0.73824795  0.63405529  1
  O  O239  1  0.99740808  0.24615333  0.13109815  1
  O  O240  1  0.98145642  0.25165522  0.62263237  1
  O  O241  1  1.00982847  0.73867240  0.13490296  1
  O  O242  1  1.00303044  0.74009424  0.63906574  1
  O  O243  1  0.00723306  0.25672228  0.37106435  1
  O  O244  1  0.01391349  0.25106171  0.88173516  1
  O  O245  1  0.00967155  0.75530075  0.37135347  1
  O  O246  1  0.00661173  0.74692430  0.86401853  1
  O  O247  1  0.51080643  0.25286486  0.37221067  1
  O  O248  1  0.50996028  0.25552033  0.86858901  1
  O  O249  1  0.52054054  0.76026825  0.38346658  1
  O  O250  1  0.50679387  0.75827063  0.86664397  1
  O  O251  1  0.24567612  0.13310393  0.49515288  1
  O  O252  1  0.25163675  0.13721573  1.00271707  1
  O  O253  1  0.24415045  0.63540819  0.49524873  1
  O  O254  1  0.25305534  0.63799841  1.00130014  1
  O  O255  1  0.74236907  0.13513336  0.48534172  1
  O  O256  1  0.74432557  0.13157839  0.99462143  1
  O  O257  1  0.75589213  0.63546620  0.50619552  1
  O  O258  1  0.73568423  0.61556232  0.98231717  1
  O  O259  1  0.25964365  0.36447747  0.00863540  1
  O  O260  1  0.24983606  0.36407098  0.50773362  1
  O  O261  1  0.25210470  0.87011436  0.00679701  1
  O  O262  1  0.25809773  0.86213392  0.49851677  1
  O  O263  1  0.74730277  0.37332384  0.01093854  1
  O  O264  1  0.75719232  0.36582796  0.48621929  1
  O  O265  1  0.76286557  0.87147150  -0.00075156  1
  O  O266  1  0.75275754  0.86031984  0.50850359  1
  O  O267  1  0.12889713  0.49906377  0.24178664  1
  O  O268  1  0.11958413  0.50029586  0.73844322  1
  O  O269  1  0.13256368  1.00011998  0.24017329  1
  O  O270  1  0.12286294  0.98799363  0.75150584  1
  O  O271  1  0.63043648  0.49418055  0.23679218  1
  O  O272  1  0.63142600  0.49528598  0.74464272  1
  O  O273  1  0.63401081  0.99917341  0.23365109  1
  O  O274  1  0.63156297  0.99219507  0.74399707  1
  O  O275  1  0.37411628  0.00581271  0.25513923  1
  O  O276  1  0.39073984  0.01805990  0.76433801  1
  O  O277  1  0.36447893  0.50424899  0.25169587  1
  O  O278  1  0.37316074  0.51065481  0.74758657  1
  O  O279  1  0.86810589  0.01419525  0.24273634  1
  O  O280  1  0.86057303  -0.00879901  0.75542651  1
  O  O281  1  0.86635486  0.50522928  0.25368350  1
  O  O282  1  0.86754221  0.51360381  0.75807155  1
  O  O283  1  0.11602903  0.36457815  0.38275195  1
  O  O284  1  0.12622822  0.36020613  0.88535216  1
  O  O285  1  0.11689661  0.86787598  0.37771890  1
  O  O286  1  0.12028084  0.86436672  0.86523775  1
  O  O287  1  0.61684195  0.36484288  0.36782336  1
  O  O288  1  0.61906403  0.37132241  0.86766889  1
  O  O289  1  0.62294779  0.88027352  0.38194460  1
  O  O290  1  0.61984261  0.86939352  0.87108479  1
  O  O291  1  0.38970068  0.11777758  0.13185047  1
  O  O292  1  0.38542668  0.13462336  0.63189306  1
  O  O293  1  0.37300767  0.63123844  0.12649942  1
  O  O294  1  0.38791953  0.62589777  0.63723920  1
  O  O295  1  0.88103607  0.13275785  0.13172142  1
  O  O296  1  0.86458522  0.14501530  0.60635119  1
  O  O297  1  0.89920252  0.61529775  0.14260703  1
  O  O298  1  0.88633819  0.62028805  0.63585903  1
  O  O299  1  0.25098435  0.25499133  0.11838918  1
  O  O300  1  0.25307546  0.25458263  0.61828384  1
  O  O301  1  0.24425241  0.75938699  0.11956663  1
  O  O302  1  0.24453039  0.74543430  0.61000337  1
  O  O303  1  0.75264969  0.25892465  0.11809614  1
  O  O304  1  0.74596673  0.25326376  0.60335001  1
  O  O305  1  0.76091421  0.69632505  0.11487820  1
  O  O306  1  0.74082512  0.75326218  0.61445877  1
  O  O307  1  0.24447844  0.24534291  0.38188413  1
  O  O308  1  0.24356537  0.24894272  0.88469989  1
  O  O309  1  0.23770814  0.74405158  0.38283659  1
  O  O310  1  0.24323260  0.75004858  0.88529072  1
  O  O311  1  0.73923652  0.24374101  0.37548437  1
  O  O312  1  0.74379914  0.24440453  0.88165206  1
  O  O313  1  0.73904140  0.74696958  0.38574952  1
  O  O314  1  0.73449625  0.74393073  0.87039707  1
  O  O315  1  -0.00101098  0.12523850  0.01617679  1
  O  O316  1  0.01555598  0.12745265  0.49686269  1
  O  O317  1  -0.00319136  0.62185063  0.01618342  1
  O  O318  1  0.00096577  0.62296999  0.50978347  1
  O  O319  1  0.50526320  0.11908520  0.00599578  1
  O  O320  1  0.50819505  0.12116560  0.50442190  1
  O  O321  1  0.50889754  0.63168575  -0.00916340  1
  O  O322  1  0.49525112  0.63134987  0.51467550  1
  O  O323  1  0.49937218  0.37047406  0.48467318  1
  O  O324  1  0.48592039  0.36996897  0.99225884  1
  O  O325  1  0.49984337  0.87924643  0.48982628  1
  O  O326  1  0.49241041  0.88155049  0.98740973  1
  O  O327  1  0.99152887  0.37855195  0.48971986  1
  O  O328  1  0.99573438  0.39408426  1.00798840  1
  O  O329  1  0.98229119  0.86802643  0.49470452  1
  O  O330  1  0.98987234  0.87566154  0.99907843  1
  O  O331  1  0.51003745  0.48222104  0.37816795  1
  O  O332  1  0.50522467  0.48843010  0.87059441  1
  O  O333  1  0.50126862  0.99204479  0.38224412  1
  O  O334  1  0.49591162  0.99796133  0.88118904  1
  O  O335  1  1.00370352  0.49221938  0.38281224  1
  O  O336  1  0.99293203  0.51237266  0.89237875  1
  O  O337  1  1.00456391  0.98721151  0.36902497  1
  O  O338  1  0.99912044  1.00081099  0.88238834  1
  O  O339  1  0.00846890  0.00941415  0.12801420  1
  O  O340  1  -0.04223647  0.00753900  0.60944546  1
  O  O341  1  0.00789309  0.50679552  0.11934139  1
  O  O342  1  0.00193039  0.50349787  0.62081006  1
  O  O343  1  0.51387249  -0.00023501  0.11857971  1
  O  O344  1  0.50667545  0.00836793  0.61867520  1
  O  O345  1  0.50961609  0.48832996  0.12584979  1
  O  O346  1  0.50697415  0.51293452  0.62601900  1
  O  O347  1  0.25533094  0.37023662  0.23631340  1
  O  O348  1  0.25643936  0.37236454  0.73611579  1
  O  O349  1  0.24839143  0.88022219  0.24352535  1
  O  O350  1  0.23324709  0.87804011  0.75014083  1
  O  O351  1  0.74354547  0.37789385  0.23803242  1
  O  O352  1  0.74160231  0.38831043  0.75583097  1
  O  O353  1  0.76294295  0.88940553  0.25525552  1
  O  O354  1  0.74374813  0.87647559  0.74361303  1
  O  O355  1  0.25910567  0.11710598  0.25566724  1
  O  O356  1  0.25919746  0.11972622  0.74692357  1
  O  O357  1  0.24244945  0.62627329  0.27027735  1
  O  O358  1  0.26498676  0.62548215  0.74322918  1
  O  O359  1  0.75768165  0.12158214  0.25413172  1
  O  O360  1  0.74130710  0.11268445  0.76027547  1
  O  O361  1  0.76148976  0.61426013  0.25113984  1
  O  O362  1  0.75468937  0.62308634  0.75770656  1
  O  O363  1  0.37231110  0.11513508  0.36928012  1
  O  O364  1  0.37180932  0.12159109  0.86765636  1
  O  O365  1  0.35799197  0.62993401  0.37804281  1
  O  O366  1  0.37094265  0.62993676  0.85689964  1
  O  O367  1  0.86516415  0.13218480  0.36523612  1
  O  O368  1  0.86169386  0.12455880  0.88107513  1
  O  O369  1  0.88570232  0.61933680  0.36132605  1
  O  O370  1  0.86477066  0.62108943  0.87164721  1
  O  O371  1  0.13463384  0.38288994  0.12241892  1
  O  O372  1  0.13124574  0.38120012  0.61845132  1
  O  O373  1  0.13327902  0.88393519  0.12761131  1
  O  O374  1  0.11835713  0.87460773  0.63977403  1
  O  O375  1  0.62976142  0.38383046  0.12636643  1
  O  O376  1  0.61751556  0.38495779  0.63936633  1
  O  O377  1  0.63294862  0.88630967  0.11412484  1
  O  O378  1  0.63465987  0.88006126  0.62786315  1
  O  O379  1  0.11978273  0.24249840  0.26490546  1
  O  O380  1  0.12674062  0.25600171  0.76562178  1
  O  O381  1  0.11538209  0.75329524  0.26120054  1
  O  O382  1  0.11772932  0.75905538  0.75451833  1
  O  O383  1  0.62414544  0.25497153  0.25513969  1
  O  O384  1  0.62552682  0.26021347  0.75369818  1
  O  O385  1  0.62914434  0.74646343  0.26937619  1
  O  O386  1  0.61513242  0.75614614  0.75795290  1
  O  O387  1  0.37734810  0.23061638  0.24672159  1
  O  O388  1  0.38015903  0.24059351  0.74706351  1
  O  O389  1  0.38096191  0.74534665  0.24901573  1
  O  O390  1  0.38388971  0.75134297  0.75247787  1
  O  O391  1  0.88027189  0.24225900  0.24450169  1
  O  O392  1  0.84070876  0.24296641  0.72160171  1
  O  O393  1  0.88835670  0.74230331  0.25654176  1
  O  O394  1  0.88065916  0.73885910  0.75768396  1
  O  O395  1  0.38111434  0.49801244  0.50577163  1
  O  O396  1  0.36778017  0.48350965  0.99995019  1
  O  O397  1  0.38542174  0.99241233  0.49025471  1
  O  O398  1  0.38102248  0.99629178  0.99163154  1
  O  O399  1  0.87896168  0.49326450  0.49774308  1
  O  O400  1  0.88391969  0.50914289  0.99735419  1
  O  O401  1  0.84646276  0.97300391  0.48379909  1
  O  O402  1  0.87531921  0.98885663  0.99974403  1
  O  O403  1  0.12556500  0.00304606  0.01363181  1
  O  O404  1  0.13306226  0.01556731  0.49723885  1
  O  O405  1  0.11134949  0.50075785  0.01014071  1
  O  O406  1  0.11643581  0.50730100  0.51270853  1
  O  O407  1  0.62436042  0.00622140  0.00781913  1
  O  O408  1  0.62532673  0.00658889  0.50747343  1
  O  O409  1  0.62342103  0.50572974  0.01192229  1
  O  O410  1  0.62059402  0.49412054  0.51492668  1
  O  O411  1  0.37001368  0.36979493  0.11376927  1
  O  O412  1  0.36820132  0.36646420  0.62193533  1
  O  O413  1  0.35632522  0.88504770  0.11555791  1
  O  O414  1  0.39839100  0.86023674  0.60525721  1
  O  O415  1  0.86551709  0.37144231  0.12508446  1
  O  O416  1  0.87190710  0.36703789  0.60659333  1
  O  O417  1  0.87873490  0.87538154  0.11148326  1
  O  O418  1  0.86184300  0.86844171  0.61420766  1
  O  O419  1  0.13306717  0.13139379  0.38293986  1
  O  O420  1  0.12931563  0.13724153  0.87987692  1
  O  O421  1  0.12699442  0.63470216  0.38702919  1
  O  O422  1  0.13061713  0.64322892  0.86486097  1
  O  O423  1  0.62921226  0.13233355  0.37652153  1
  O  O424  1  0.63110593  0.13281097  0.88132929  1
  O  O425  1  0.62672136  0.62720762  0.38021204  1
  O  O426  1  0.62638614  0.63338775  0.87699224  1
