# generated using pymatgen
data_V85Zn86O256
_symmetry_space_group_name_H-M   'P 1'
_cell_length_a   16.94032441
_cell_length_b   16.92954142
_cell_length_c   16.92722049
_cell_angle_alpha   90.02151737
_cell_angle_beta   89.93400339
_cell_angle_gamma   89.95756599
_symmetry_Int_Tables_number   1
_chemical_formula_structural   V85Zn86O256
_chemical_formula_sum   'V85 Zn86 O256'
_cell_volume   4854.58523456
_cell_formula_units_Z   1
loop_
 _symmetry_equiv_pos_site_id
 _symmetry_equiv_pos_as_xyz
  1  'x, y, z'
loop_
 _atom_site_type_symbol
 _atom_site_label
 _atom_site_symmetry_multiplicity
 _atom_site_fract_x
 _atom_site_fract_y
 _atom_site_fract_z
 _atom_site_occupancy
  V  V0  1  0.50263477  0.74728301  0.24618294  1
  V  V1  1  -0.00378702  0.48625824  0.49890123  1
  V  V2  1  0.12494378  0.86676398  0.26024141  1
  V  V3  1  0.50244247  0.62702368  0.62208423  1
  V  V4  1  0.87212157  0.27367730  0.62135722  1
  V  V5  1  0.62712440  0.36978318  0.24082974  1
  V  V6  1  0.62784936  0.74715388  0.87931177  1
  V  V7  1  0.63000664  0.49884061  0.62111223  1
  V  V8  1  0.75394338  0.61927188  0.37365515  1
  V  V9  1  0.36769199  0.25377264  0.10615604  1
  V  V10  1  0.25115558  0.62448614  0.37230407  1
  V  V11  1  -0.00265993  0.87575560  0.87968605  1
  V  V12  1  0.00013640  0.12815991  0.62868928  1
  V  V13  1  0.36679992  0.11920993  0.74862611  1
  V  V14  1  0.11911784  0.37606056  0.25672626  1
  V  V15  1  -0.00008645  0.62572895  0.62420094  1
  V  V16  1  0.12826529  0.13457907  0.00965183  1
  V  V17  1  0.00234754  0.25708227  0.75936522  1
  V  V18  1  0.50497787  0.62190206  0.11520553  1
  V  V19  1  0.37892717  0.25085660  0.62299720  1
  V  V20  1  0.75586521  0.87824436  0.61985791  1
  V  V21  1  0.24822719  0.00246750  0.25376586  1
  V  V22  1  0.12553564  0.37827110  0.75682280  1
  V  V23  1  0.75038787  0.00785524  0.75228482  1
  V  V24  1  0.63834265  0.87126587  0.23945746  1
  V  V25  1  0.25191207  0.25102211  0.49973303  1
  V  V26  1  0.75496886  0.49064458  0.23601453  1
  V  V27  1  0.25072537  0.87952030  0.63006827  1
  V  V28  1  0.00114097  0.62490328  0.12015043  1
  V  V29  1  0.25490216  0.62532120  0.87820927  1
  V  V30  1  0.24129297  0.75110065  0.49424849  1
  V  V31  1  0.87584935  0.12829141  0.75494627  1
  V  V32  1  0.11715060  0.25342235  0.38007294  1
  V  V33  1  0.50193463  0.12255840  0.61626438  1
  V  V34  1  0.37590680  0.87640115  0.49588504  1
  V  V35  1  0.36536553  -0.00148075  0.87318450  1
  V  V36  1  0.50009012  0.38093705  0.36453625  1
  V  V37  1  0.62578841  0.62479251  0.49749000  1
  V  V38  1  0.87622241  0.75426160  0.62339349  1
  V  V39  1  0.86875594  0.00835192  0.38241403  1
  V  V40  1  0.87070140  0.87713599  0.01369053  1
  V  V41  1  0.12442757  0.49382704  0.12230468  1
  V  V42  1  0.36007156  0.38475804  -0.00935617  1
  V  V43  1  0.74854061  0.75223327  0.00874982  1
  V  V44  1  0.62514849  0.37127163  0.74596422  1
  V  V45  1  0.75378041  0.75031309  0.50045762  1
  V  V46  1  0.62875114  0.87883838  0.74859233  1
  V  V47  1  0.87306526  0.62496504  0.75534829  1
  V  V48  1  0.00193530  0.24309468  0.24555613  1
  V  V49  1  0.37318577  0.74533997  0.12801718  1
  V  V50  1  0.87695451  0.48094456  0.37915400  1
  V  V51  1  0.25471686  0.37753534  0.62350293  1
  V  V52  1  0.62488035  0.23036193  0.37494665  1
  V  V53  1  0.38105129  0.12790957  0.24144911  1
  V  V54  1  0.63160337  0.00470435  0.12181524  1
  V  V55  1  -0.00207115  -0.00341736  0.50258869  1
  V  V56  1  0.87033580  0.00337653  0.87946060  1
  V  V57  1  0.62616983  0.49566697  0.11214114  1
  V  V58  1  0.37785437  0.62566039  0.75168997  1
  V  V59  1  0.74998914  0.49757706  0.75208706  1
  V  V60  1  0.37399982  0.87626894  0.00282145  1
  V  V61  1  0.12693305  0.50381897  0.62226002  1
  V  V62  1  0.25745927  0.48982096  0.25362556  1
  V  V63  1  0.63648984  0.24227894  0.87056657  1
  V  V64  1  0.50044724  0.87749776  0.87565968  1
  V  V65  1  -0.00309128  0.86929449  0.38120566  1
  V  V66  1  0.12823449  0.00336874  0.63202714  1
  V  V67  1  0.12747937  0.12601355  0.50307004  1
  V  V68  1  0.24570303  0.87439932  0.12801684  1
  V  V69  1  0.50272385  0.75178990  0.74941154  1
  V  V70  1  0.38097859  0.38138299  0.49213945  1
  V  V71  1  -0.05745498  0.43624007  0.92676267  1
  V  V72  1  0.87289431  0.12457289  0.23941562  1
  V  V73  1  0.87965092  0.62385445  0.24865419  1
  V  V74  1  0.62873354  0.74867289  0.37167813  1
  V  V75  1  0.12766447  0.88276779  0.75570999  1
  V  V76  1  0.25953726  0.50278916  0.75064243  1
  V  V77  1  0.49822182  0.00914103  0.00536849  1
  V  V78  1  -0.00175775  0.00847800  0.01190557  1
  V  V79  1  0.75045509  0.62203474  0.88517120  1
  V  V80  1  0.49992763  0.24725266  0.75102337  1
  V  V81  1  0.50214619  0.87346641  0.37128234  1
  V  V82  1  0.12402142  0.75052869  0.87860606  1
  V  V83  1  0.37596501  0.75214298  0.62404343  1
  V  V84  1  0.75648836  0.25054276  0.01048665  1
  Zn  Zn85  1  0.50133964  0.24638980  0.23794429  1
  Zn  Zn86  1  0.63414057  0.00928431  0.61332815  1
  Zn  Zn87  1  0.38144242  0.61231355  0.25481739  1
  Zn  Zn88  1  0.75183239  0.00053433  0.25034749  1
  Zn  Zn89  1  -0.00076558  0.75195152  0.75248940  1
  Zn  Zn90  1  0.88030077  0.26269152  0.12263478  1
  Zn  Zn91  1  0.49821151  0.50502961  0.48835117  1
  Zn  Zn92  1  0.49470672  0.50047203  -0.01040485  1
  Zn  Zn93  1  0.50604358  0.00452316  0.49330627  1
  Zn  Zn94  1  0.12935830  0.25584872  0.88680204  1
  Zn  Zn95  1  0.24674756  0.74790928  0.00441351  1
  Zn  Zn96  1  0.11815795  0.00472956  0.13226324  1
  Zn  Zn97  1  0.24611168  0.12609931  0.87813979  1
  Zn  Zn98  1  0.37666928  0.00483361  0.37322160  1
  Zn  Zn99  1  0.49369776  0.38368731  0.87235217  1
  Zn  Zn100  1  0.87383423  0.75238790  0.13216539  1
  Zn  Zn101  1  0.62379421  0.12898376  -0.00209180  1
  Zn  Zn102  1  0.12106036  0.61982755  -0.00218944  1
  Zn  Zn103  1  0.00298317  0.74694610  0.25683877  1
  Zn  Zn104  1  0.12098714  0.62950732  0.49229653  1
  Zn  Zn105  1  0.25284458  0.12741525  0.37426408  1
  Zn  Zn106  1  0.75233679  0.25061195  0.49322619  1
  Zn  Zn107  1  0.18956769  0.18981936  0.18618342  1
  Zn  Zn108  1  0.19401449  0.19348723  0.70068683  1
  Zn  Zn109  1  0.18675703  0.68244486  0.19217565  1
  Zn  Zn110  1  0.18706576  0.69270862  0.68929113  1
  Zn  Zn111  1  0.68902990  0.18270083  0.18821771  1
  Zn  Zn112  1  0.70156665  0.17999036  0.65372749  1
  Zn  Zn113  1  0.68912833  0.67780783  0.18489501  1
  Zn  Zn114  1  0.68945276  0.68744685  0.68948299  1
  Zn  Zn115  1  0.31087219  0.30916289  0.31217732  1
  Zn  Zn116  1  0.30969661  0.30909808  0.81569507  1
  Zn  Zn117  1  0.31260850  0.80893829  0.31223336  1
  Zn  Zn118  1  0.31117676  0.81241632  0.81337000  1
  Zn  Zn119  1  0.80702219  0.30510930  0.30948450  1
  Zn  Zn120  1  0.81310056  0.31532362  0.80950532  1
  Zn  Zn121  1  0.81851177  0.81453200  0.31741048  1
  Zn  Zn122  1  0.81282591  0.81456080  0.81444601  1
  Zn  Zn123  1  0.18859470  0.43900738  0.43618131  1
  Zn  Zn124  1  0.18829204  0.44224232  0.93614481  1
  Zn  Zn125  1  0.18568160  0.93937873  0.43885680  1
  Zn  Zn126  1  0.18394533  0.94115638  0.94536827  1
  Zn  Zn127  1  0.69103604  0.43040286  0.43016032  1
  Zn  Zn128  1  0.68546738  0.42996992  0.92907707  1
  Zn  Zn129  1  0.68773302  0.93742508  0.43691807  1
  Zn  Zn130  1  0.68882883  0.93717949  0.93861429  1
  Zn  Zn131  1  0.30799825  0.06299521  0.06630208  1
  Zn  Zn132  1  0.31548035  0.06112452  0.56150280  1
  Zn  Zn133  1  0.30743370  0.56088462  0.06772393  1
  Zn  Zn134  1  0.31453876  0.56523304  0.55953463  1
  Zn  Zn135  1  0.80563340  0.07137691  0.06023452  1
  Zn  Zn136  1  0.81288595  0.07117996  0.56050401  1
  Zn  Zn137  1  0.81653577  0.43005890  0.05784440  1
  Zn  Zn138  1  0.81473042  0.55936586  0.56376844  1
  Zn  Zn139  1  0.43812941  0.42903800  0.17335831  1
  Zn  Zn140  1  0.44378086  0.43755081  0.68381517  1
  Zn  Zn141  1  0.43846912  0.93863555  0.18703651  1
  Zn  Zn142  1  0.43847789  0.93960850  0.68712828  1
  Zn  Zn143  1  0.94474482  0.43631821  0.19312855  1
  Zn  Zn144  1  0.94004529  0.44320879  0.70028849  1
  Zn  Zn145  1  0.93768686  0.93704087  0.19556346  1
  Zn  Zn146  1  0.93907849  0.93849900  0.69111777  1
  Zn  Zn147  1  0.06152371  0.06315640  0.31658270  1
  Zn  Zn148  1  0.06051459  0.06466528  0.82208645  1
  Zn  Zn149  1  0.06420970  0.56060195  0.31650765  1
  Zn  Zn150  1  0.06538983  0.56452668  0.80977227  1
  Zn  Zn151  1  0.55903639  0.05500206  0.30335111  1
  Zn  Zn152  1  0.55745736  0.06312190  0.80972599  1
  Zn  Zn153  1  0.56700734  0.55827650  0.30329232  1
  Zn  Zn154  1  0.56549475  0.56276049  0.81439807  1
  Zn  Zn155  1  0.44112300  0.19412330  0.42898725  1
  Zn  Zn156  1  0.43695774  0.18808925  0.93293018  1
  Zn  Zn157  1  0.43321364  0.68825134  0.43447964  1
  Zn  Zn158  1  0.43652028  0.68931560  0.93870437  1
  Zn  Zn159  1  0.93660019  0.18875267  0.44086977  1
  Zn  Zn160  1  0.94070445  0.18989294  0.93972666  1
  Zn  Zn161  1  0.93558928  0.68215501  0.44068648  1
  Zn  Zn162  1  0.93406781  0.68611480  0.94129151  1
  Zn  Zn163  1  0.05821848  0.31942245  0.06426067  1
  Zn  Zn164  1  0.06431203  0.31260617  0.57188343  1
  Zn  Zn165  1  0.05901259  0.81162774  0.06600622  1
  Zn  Zn166  1  0.06248302  0.81533652  0.56559606  1
  Zn  Zn167  1  0.55149617  0.31159199  0.05632296  1
  Zn  Zn168  1  0.59582652  0.33144255  0.53742627  1
  Zn  Zn169  1  0.56181177  0.81565653  0.06180960  1
  Zn  Zn170  1  0.56710907  0.81798399  0.56022847  1
  O  O171  1  0.12608360  0.12281231  0.11533126  1
  O  O172  1  0.11727826  0.12370009  0.62595690  1
  O  O173  1  0.11750409  0.61739670  0.12603856  1
  O  O174  1  0.11735888  0.62089794  0.62695575  1
  O  O175  1  0.62347764  0.10883181  0.12352622  1
  O  O176  1  0.60369995  0.12229865  0.63669446  1
  O  O177  1  0.61620540  0.61048187  0.12788498  1
  O  O178  1  0.62106888  0.62252101  0.61885934  1
  O  O179  1  0.38528948  0.36745519  0.38119755  1
  O  O180  1  0.37423804  0.36933206  0.88553375  1
  O  O181  1  0.38371327  0.87254208  0.38042415  1
  O  O182  1  0.37986753  0.87986433  0.88030598  1
  O  O183  1  0.86811914  0.38197819  0.37385092  1
  O  O184  1  0.88978497  0.38264170  0.85598446  1
  O  O185  1  0.88625783  0.89286399  0.37128600  1
  O  O186  1  0.88026493  0.88372369  0.88241025  1
  O  O187  1  0.25303147  -0.00076677  0.36457881  1
  O  O188  1  0.26275817  -0.00308781  0.88042084  1
  O  O189  1  0.25053041  0.50472543  0.36151636  1
  O  O190  1  0.24385338  0.51383733  0.86198545  1
  O  O191  1  0.76588999  -0.00447886  0.37527178  1
  O  O192  1  0.76209199  -0.00280228  0.86853113  1
  O  O193  1  0.75585706  0.50450972  0.36854379  1
  O  O194  1  0.73791404  0.51182239  0.86435753  1
  O  O195  1  0.23391680  0.50685529  0.14213775  1
  O  O196  1  0.24390205  0.50087074  0.62940606  1
  O  O197  1  0.24760021  0.99008570  0.13804502  1
  O  O198  1  0.24465814  0.98647912  0.61841868  1
  O  O199  1  0.74508104  0.49812929  0.13207247  1
  O  O200  1  0.73650826  0.50858908  0.63264292  1
  O  O201  1  0.73605770  0.99973828  0.12329172  1
  O  O202  1  0.75345330  0.99208121  0.63382155  1
  O  O203  1  0.01330513  0.36517392  0.25748382  1
  O  O204  1  0.01406689  0.36954209  0.74304798  1
  O  O205  1  0.00798858  0.87307892  0.26224598  1
  O  O206  1  0.00827218  0.87407040  0.76018446  1
  O  O207  1  0.50556599  0.37397271  0.24996281  1
  O  O208  1  0.50424309  0.36410651  0.74993532  1
  O  O209  1  0.50747265  0.86676586  0.25433944  1
  O  O210  1  0.50958819  0.87186128  0.75348199  1
  O  O211  1  0.48354763  0.12084935  0.24572231  1
  O  O212  1  0.48752549  0.12858791  0.74246403  1
  O  O213  1  0.49926595  0.63011894  0.24008759  1
  O  O214  1  0.49668865  0.63403862  0.74322414  1
  O  O215  1  0.99011125  0.13136431  0.25544789  1
  O  O216  1  0.99697824  0.13199969  0.74621400  1
  O  O217  1  0.99476597  0.62721884  0.25074053  1
  O  O218  1  0.99245236  0.62719353  0.74056534  1
  O  O219  1  0.36940233  0.25071376  0.00153488  1
  O  O220  1  0.37235745  0.25985287  0.50369871  1
  O  O221  1  0.37356702  0.75743180  0.01322054  1
  O  O222  1  0.36673596  0.76009723  0.50509475  1
  O  O223  1  0.86207776  0.24416266  0.00273425  1
  O  O224  1  0.87472446  0.24987536  0.51725299  1
  O  O225  1  0.86707671  0.76057020  0.00344721  1
  O  O226  1  0.86938077  0.74372392  0.51534973  1
  O  O227  1  0.12942858  0.24640006  0.49848491  1
  O  O228  1  0.11920473  0.23896369  1.00387223  1
  O  O229  1  0.13783580  0.75002750  0.50768053  1
  O  O230  1  0.12517254  0.75090914  0.98909657  1
  O  O231  1  0.60596356  0.23521944  0.47493432  1
  O  O232  1  0.62774252  0.25128220  0.98359013  1
  O  O233  1  0.63285511  0.74473254  0.49220286  1
  O  O234  1  0.63324142  0.75970008  0.98906831  1
  O  O235  1  0.47843303  0.25007263  0.12365172  1
  O  O236  1  0.49348738  0.23846029  0.63407534  1
  O  O237  1  0.49506517  0.74321335  0.12748154  1
  O  O238  1  0.49751625  0.74691830  0.62842302  1
  O  O239  1  1.00062168  0.25386711  0.14197069  1
  O  O240  1  0.99179328  0.24348940  0.63287925  1
  O  O241  1  0.99736345  0.74059014  0.13300569  1
  O  O242  1  0.99381796  0.74466322  0.62745854  1
  O  O243  1  0.01210343  0.24461118  0.37172559  1
  O  O244  1  0.00853539  0.24575498  0.86193378  1
  O  O245  1  -0.00800078  0.76499988  0.38269172  1
  O  O246  1  0.00651568  0.75563087  0.87552101  1
  O  O247  1  0.50877396  0.25930141  0.36003700  1
  O  O248  1  0.50650128  0.24750952  0.85994901  1
  O  O249  1  0.50618670  0.75583729  0.36727330  1
  O  O250  1  0.50846379  0.75660485  0.87135708  1
  O  O251  1  0.24585589  0.13265436  0.50169932  1
  O  O252  1  0.23282810  0.11858654  0.99959942  1
  O  O253  1  0.25059834  0.63476114  0.49378518  1
  O  O254  1  0.24701171  0.62715854  0.99137334  1
  O  O255  1  0.73710028  0.14889152  0.54556682  1
  O  O256  1  0.74147265  0.14274862  0.99658074  1
  O  O257  1  0.74635187  0.62838192  0.49181734  1
  O  O258  1  0.75494914  0.63721588  0.98516006  1
  O  O259  1  0.25977752  0.37369269  -0.00774582  1
  O  O260  1  0.25959956  0.37166657  0.50401914  1
  O  O261  1  0.25447444  0.87381496  0.01232826  1
  O  O262  1  0.25595624  0.86938816  0.50442738  1
  O  O263  1  0.74833840  0.35713776  -0.00776959  1
  O  O264  1  0.70736987  0.35636780  0.50998499  1
  O  O265  1  0.76039011  0.86601492  -0.00565980  1
  O  O266  1  0.74873578  0.86797010  0.51362613  1
  O  O267  1  0.13177515  0.49090170  0.24904839  1
  O  O268  1  0.13401181  0.49757146  0.73883825  1
  O  O269  1  0.13102600  0.99159778  0.25091887  1
  O  O270  1  0.11927466  0.99025753  0.74929275  1
  O  O271  1  0.63677144  0.49107847  0.23837259  1
  O  O272  1  0.63142886  0.49543528  0.74093476  1
  O  O273  1  0.62803746  0.99027869  0.23720551  1
  O  O274  1  0.63439503  0.99462978  0.75027492  1
  O  O275  1  0.36736471  0.00926436  0.24810849  1
  O  O276  1  0.38209211  0.00550276  0.76233649  1
  O  O277  1  0.35978925  0.49302646  0.23813742  1
  O  O278  1  0.36503336  0.50653255  0.73972953  1
  O  O279  1  0.87633097  0.01111994  0.25994134  1
  O  O280  1  0.87097188  0.00701582  0.75931907  1
  O  O281  1  0.87007499  0.50503104  0.26065966  1
  O  O282  1  0.86181972  0.51339131  0.74216223  1
  O  O283  1  0.12885903  0.36551480  0.37058179  1
  O  O284  1  0.13180342  0.37586380  0.86024615  1
  O  O285  1  0.11293891  0.88141853  0.37084958  1
  O  O286  1  0.12067632  0.87214853  0.87264165  1
  O  O287  1  0.61570597  0.37124626  0.35651178  1
  O  O288  1  0.61921446  0.36246752  0.85997605  1
  O  O289  1  0.61953086  0.86663564  0.36468487  1
  O  O290  1  0.62307704  0.87001794  0.86420470  1
  O  O291  1  0.37027342  0.13148031  0.13462413  1
  O  O292  1  0.38202684  0.12902432  0.62977476  1
  O  O293  1  0.38101333  0.63157810  0.12877239  1
  O  O294  1  0.38200716  0.63324687  0.62914788  1
  O  O295  1  0.87617197  0.12688853  0.13726293  1
  O  O296  1  0.89011842  0.12403809  0.63877047  1
  O  O297  1  0.88598495  0.62254578  0.14275182  1
  O  O298  1  0.88133366  0.63182774  0.63345569  1
  O  O299  1  0.26924418  0.24909328  0.13126552  1
  O  O300  1  0.25891421  0.25682908  0.61996131  1
  O  O301  1  0.25693239  0.75425255  0.12781380  1
  O  O302  1  0.25519623  0.76142268  0.61971224  1
  O  O303  1  0.74965646  0.24933951  0.11282816  1
  O  O304  1  0.77411287  0.26831550  0.64674933  1
  O  O305  1  0.75092333  0.74240692  0.11201529  1
  O  O306  1  0.75736330  0.75712896  0.62292409  1
  O  O307  1  0.23905045  0.24894516  0.38453322  1
  O  O308  1  0.23228574  0.23424248  0.84004837  1
  O  O309  1  0.25237614  0.74301646  0.38428119  1
  O  O310  1  0.24182101  0.74424172  0.87752237  1
  O  O311  1  0.73049960  0.24842907  0.37466077  1
  O  O312  1  0.73840215  0.25076349  0.87130672  1
  O  O313  1  0.74896125  0.74176651  0.38018821  1
  O  O314  1  0.74368527  0.74687539  0.88030365  1
  O  O315  1  0.00948745  0.11742422  -0.00071106  1
  O  O316  1  0.00560413  0.11751611  0.51083291  1
  O  O317  1  0.00018026  0.62863372  0.01588228  1
  O  O318  1  0.00190639  0.61910954  0.51257883  1
  O  O319  1  0.50233775  0.11228764  -0.00690791  1
  O  O320  1  0.48831435  0.12415000  0.51284162  1
  O  O321  1  0.49602892  0.62414521  0.01130848  1
  O  O322  1  0.50627221  0.62643045  0.50238207  1
  O  O323  1  0.49707354  0.37797317  0.48588614  1
  O  O324  1  0.48371997  0.37788407  0.99266488  1
  O  O325  1  0.49107598  0.86900947  0.48896267  1
  O  O326  1  0.49228033  0.88217464  0.99372642  1
  O  O327  1  1.00766066  0.38782815  0.50620021  1
  O  O328  1  0.99494954  0.37300140  0.98884942  1
  O  O329  1  1.00406256  0.88916435  0.49892173  1
  O  O330  1  0.99067493  0.88171033  0.99684596  1
  O  O331  1  0.50390816  0.48766461  0.36966981  1
  O  O332  1  0.50156374  0.49943608  0.87553355  1
  O  O333  1  0.49742844  0.98415789  0.37158355  1
  O  O334  1  0.49324009  0.99338431  0.88281479  1
  O  O335  1  0.98920264  0.50454524  0.38702019  1
  O  O336  1  1.00505343  0.50314078  0.88028252  1
  O  O337  1  0.99336637  0.99533333  0.38679824  1
  O  O338  1  0.98750672  0.99521409  0.88635883  1
  O  O339  1  -0.00227980  -0.00554179  0.11510517  1
  O  O340  1  0.00590991  0.00683053  0.62192587  1
  O  O341  1  0.01699967  0.50969839  0.13791885  1
  O  O342  1  0.00766520  0.50876732  0.62236454  1
  O  O343  1  0.51097038  -0.00828727  0.11401796  1
  O  O344  1  0.49740327  0.01346342  0.62254885  1
  O  O345  1  0.50798718  0.50626178  0.11942109  1
  O  O346  1  0.51219770  0.51184579  0.62311138  1
  O  O347  1  0.24071115  0.38458607  0.25598915  1
  O  O348  1  0.24815100  0.38664442  0.74209098  1
  O  O349  1  0.24435937  0.88023391  0.24766645  1
  O  O350  1  0.24170468  0.87251796  0.74185432  1
  O  O351  1  0.74062758  0.38201623  0.25315042  1
  O  O352  1  0.74012948  0.38931516  0.75468070  1
  O  O353  1  0.74084242  0.87562261  0.25427559  1
  O  O354  1  0.74613694  0.88492041  0.74451416  1
  O  O355  1  0.25552349  0.11597771  0.25130888  1
  O  O356  1  0.26469789  0.11304985  0.73961657  1
  O  O357  1  0.25381778  0.61356086  0.25719952  1
  O  O358  1  0.25678946  0.62197630  0.75389006  1
  O  O359  1  0.76745727  0.12131333  0.24914089  1
  O  O360  1  0.76003171  0.11409967  0.74135623  1
  O  O361  1  0.75820128  0.61340526  0.25556122  1
  O  O362  1  0.75645216  0.62054406  0.75672044  1
  O  O363  1  0.37299203  0.12446830  0.36170176  1
  O  O364  1  0.37030881  0.11611219  0.86697811  1
  O  O365  1  0.36164526  0.62673973  0.37114111  1
  O  O366  1  0.36358836  0.63560938  0.86677348  1
  O  O367  1  0.88027089  0.11245605  0.37092680  1
  O  O368  1  0.88126005  0.11904900  0.86326524  1
  O  O369  1  0.86524912  0.61961329  0.36943911  1
  O  O370  1  0.86706223  0.63419104  0.86209875  1
  O  O371  1  0.12128292  0.38743111  0.13588673  1
  O  O372  1  0.13579781  0.38671840  0.63006130  1
  O  O373  1  0.13512281  0.87462800  0.13327153  1
  O  O374  1  0.13162697  0.88001925  0.63634985  1
  O  O375  1  0.61635752  0.37955671  0.13285619  1
  O  O376  1  0.61296818  0.38683455  0.63839706  1
  O  O377  1  0.62329703  0.88273854  0.13225095  1
  O  O378  1  0.63479798  0.87416645  0.63747450  1
  O  O379  1  0.12049921  0.25335083  0.25921592  1
  O  O380  1  0.11380947  0.26566553  0.73611876  1
  O  O381  1  0.12613965  0.76310171  0.25162761  1
  O  O382  1  0.12383583  0.76204202  0.76210724  1
  O  O383  1  0.62331268  0.25483940  0.24932909  1
  O  O384  1  0.62050346  0.25530124  0.75246466  1
  O  O385  1  0.62376196  0.75350663  0.25115212  1
  O  O386  1  0.62269572  0.75939916  0.75642344  1
  O  O387  1  0.37417116  0.23666516  0.24709453  1
  O  O388  1  0.38210911  0.24148115  0.74313242  1
  O  O389  1  0.38248987  0.75044036  0.23832767  1
  O  O390  1  0.38270216  0.74848517  0.74315054  1
  O  O391  1  0.88296514  0.23680159  0.25440887  1
  O  O392  1  0.88564947  0.24459244  0.74491553  1
  O  O393  1  0.87606620  0.73930229  0.25195901  1
  O  O394  1  0.87486565  0.74431352  0.74026266  1
  O  O395  1  0.37907290  0.48592224  0.50585386  1
  O  O396  1  0.36988970  0.48812843  1.00414809  1
  O  O397  1  0.37812497  0.98623727  0.49570908  1
  O  O398  1  0.38081865  0.99583403  0.99730380  1
  O  O399  1  0.88287460  0.50194915  0.49220090  1
  O  O400  1  0.87557756  0.49048062  0.98258630  1
  O  O401  1  0.88235445  1.00823801  0.49233719  1
  O  O402  1  0.87628736  0.99835912  0.99671058  1
  O  O403  1  0.11285701  0.00616622  0.00763802  1
  O  O404  1  0.11832656  0.00695213  0.50993299  1
  O  O405  1  0.13094397  0.50017141  0.01849410  1
  O  O406  1  0.12151728  0.50403937  0.51071673  1
  O  O407  1  0.61882541  -0.00074337  0.00763225  1
  O  O408  1  0.61704916  -0.01262448  0.50450797  1
  O  O409  1  0.62782794  0.49085515  0.01013561  1
  O  O410  1  0.62381300  0.50873799  0.50528427  1
  O  O411  1  0.37160256  0.36329104  0.10634641  1
  O  O412  1  0.37379388  0.36886931  0.61789762  1
  O  O413  1  0.36381445  0.86839862  0.12504568  1
  O  O414  1  0.36943012  0.87230541  0.61865683  1
  O  O415  1  0.87154103  0.37515727  0.13795830  1
  O  O416  1  0.88702864  0.37143848  0.62573366  1
  O  O417  1  0.87650579  0.87485618  0.11733783  1
  O  O418  1  0.86802083  0.86708151  0.63259644  1
  O  O419  1  0.12844234  0.13090884  0.38692131  1
  O  O420  1  0.12615901  0.12252550  0.89316678  1
  O  O421  1  0.14165884  0.62126692  0.37756347  1
  O  O422  1  0.13357541  0.63520348  0.87444376  1
  O  O423  1  0.62056460  0.13167181  0.35926997  1
  O  O424  1  0.62106747  0.13944975  0.87013559  1
  O  O425  1  0.63727893  0.62777034  0.37413332  1
  O  O426  1  0.63509898  0.64098784  0.86631679  1
