# generated using pymatgen
data_V85Zn86O256
_symmetry_space_group_name_H-M   'P 1'
_cell_length_a   16.94028251
_cell_length_b   16.94789013
_cell_length_c   16.95213848
_cell_angle_alpha   90.06363074
_cell_angle_beta   89.98952244
_cell_angle_gamma   89.92320016
_symmetry_Int_Tables_number   1
_chemical_formula_structural   V85Zn86O256
_chemical_formula_sum   'V85 Zn86 O256'
_cell_volume   4866.98620002
_cell_formula_units_Z   1
loop_
 _symmetry_equiv_pos_site_id
 _symmetry_equiv_pos_as_xyz
  1  'x, y, z'
loop_
 _atom_site_type_symbol
 _atom_site_label
 _atom_site_symmetry_multiplicity
 _atom_site_fract_x
 _atom_site_fract_y
 _atom_site_fract_z
 _atom_site_occupancy
  V  V0  1  0.25334639  0.12597270  0.86717810  1
  V  V1  1  0.37970650  0.49962755  0.38672873  1
  V  V2  1  0.74699237  0.37872033  0.12672105  1
  V  V3  1  0.87316489  0.38071008  0.50502608  1
  V  V4  1  0.38598096  0.86776649  0.49934511  1
  V  V5  1  0.00169286  0.50423297  0.49553140  1
  V  V6  1  0.75255553  -0.01827515  0.75056446  1
  V  V7  1  0.62482161  0.37648506  0.24823959  1
  V  V8  1  0.38460733  0.62317462  0.24826077  1
  V  V9  1  0.74728961  0.73791422  -0.00308897  1
  V  V10  1  0.00188774  0.74697970  0.24531093  1
  V  V11  1  0.26225027  0.62175316  0.87062428  1
  V  V12  1  0.87597603  0.12564562  0.24507613  1
  V  V13  1  0.37765553  0.24086314  0.63903274  1
  V  V14  1  0.12626984  0.00316698  0.12550596  1
  V  V15  1  0.87128841  0.25771710  0.63167042  1
  V  V16  1  0.63474892  -0.00157969  0.62614085  1
  V  V17  1  0.11916713  0.87751542  0.25484993  1
  V  V18  1  0.25607084  0.87067790  0.62282197  1
  V  V19  1  0.24980453  0.62731216  0.37742706  1
  V  V20  1  0.25092739  0.75037373  0.00017051  1
  V  V21  1  0.74586796  0.25233706  -0.00239844  1
  V  V22  1  0.49493083  0.38987120  0.87175408  1
  V  V23  1  0.74904521  0.75582350  0.50921681  1
  V  V24  1  0.00150929  0.37976090  0.87617363  1
  V  V25  1  0.25128057  0.00117832  0.25395365  1
  V  V26  1  0.26515255  0.50305434  0.75112634  1
  V  V27  1  0.75237860  -0.00235435  0.25479574  1
  V  V28  1  0.50380058  0.37752101  0.38036928  1
  V  V29  1  0.37615680  0.35895827  0.49837148  1
  V  V30  1  0.24576989  0.37713832  0.12500002  1
  V  V31  1  0.50000919  0.75409741  0.25645064  1
  V  V32  1  0.74465658  0.62789286  0.37326615  1
  V  V33  1  0.62730184  0.12555023  0.50261480  1
  V  V34  1  0.12697336  0.50263449  0.62779792  1
  V  V35  1  0.60940427  0.50349381  0.12167743  1
  V  V36  1  0.25215997  0.36899023  0.62073829  1
  V  V37  1  0.00120871  0.62743550  0.62919756  1
  V  V38  1  0.48576440  0.74697062  0.73943803  1
  V  V39  1  0.37701240  0.00241641  0.86427344  1
  V  V40  1  0.11891695  0.00068365  0.61021837  1
  V  V41  1  0.37682810  0.24897334  0.12575439  1
  V  V42  1  0.87930895  0.62279947  0.24431288  1
  V  V43  1  0.50146190  0.12598457  0.63723352  1
  V  V44  1  0.74910127  0.12419891  0.87264358  1
  V  V45  1  0.62886618  0.25159465  0.37423008  1
  V  V46  1  -0.00777497  0.74890955  0.75015463  1
  V  V47  1  0.12167949  0.37271267  0.26805215  1
  V  V48  1  0.25225631  0.50020875  0.25157129  1
  V  V49  1  0.62423265  -0.00195741  0.12487914  1
  V  V50  1  0.49783953  -0.00259589  -0.00001225  1
  V  V51  1  0.25211484  0.87592912  0.12651333  1
  V  V52  1  0.62361470  0.74445569  0.87097084  1
  V  V53  1  0.37943788  0.38834417  -0.00087394  1
  V  V54  1  0.62173147  0.87458800  0.26185716  1
  V  V55  1  0.87381430  0.87326235  0.00055165  1
  V  V56  1  0.61055804  0.25035496  0.86753247  1
  V  V57  1  0.62190560  0.86858099  0.74602346  1
  V  V58  1  0.87711340  0.49945290  0.37237221  1
  V  V59  1  0.00122877  0.24497933  0.75076820  1
  V  V60  1  0.38071844  0.74758866  0.12507133  1
  V  V61  1  -0.00022141  0.00213055  0.00169596  1
  V  V62  1  0.86231597  0.50943319  0.87334262  1
  V  V63  1  0.74806007  0.87269669  0.12381729  1
  V  V64  1  0.87724106  0.74628073  0.12433467  1
  V  V65  1  -0.00269150  0.87607481  0.87609429  1
  V  V66  1  0.37518344  0.12588208  0.25510589  1
  V  V67  1  0.87451934  0.12185554  0.74463598  1
  V  V68  1  0.48599279  0.61492758  0.62334111  1
  V  V69  1  0.87770715  0.76407331  0.61558527  1
  V  V70  1  0.60376168  0.62234175  0.00208507  1
  V  V71  1  0.12211627  0.62251541  0.00608878  1
  V  V72  1  0.12681294  0.74869505  0.87492812  1
  V  V73  1  0.75653372  0.12455253  0.37436187  1
  V  V74  1  0.12773047  0.37524120  0.75119645  1
  V  V75  1  0.62440759  0.12364641  0.00145974  1
  V  V76  1  0.12193343  0.75417195  0.37793255  1
  V  V77  1  0.25037917  0.24883222  -0.00202538  1
  V  V78  1  0.23787053  0.13490029  0.38974595  1
  V  V79  1  -0.06856969  -0.06732012  0.43464090  1
  V  V80  1  0.12757968  0.88010033  0.75000689  1
  V  V81  1  0.62097726  0.61311547  0.51053779  1
  V  V82  1  0.38396723  -0.00140008  0.37933495  1
  V  V83  1  0.75166248  0.25527653  0.50394030  1
  V  V84  1  0.87456174  0.37561952  -0.00120310  1
  Zn  Zn85  1  0.83251675  0.58921172  0.72022736  1
  Zn  Zn86  1  0.04585484  0.15133160  0.57049341  1
  Zn  Zn87  1  0.12621190  0.62924077  0.50121264  1
  Zn  Zn88  1  0.49655227  0.87254343  0.87319000  1
  Zn  Zn89  1  0.74008861  0.40837669  0.63579025  1
  Zn  Zn90  1  0.74871819  0.50391515  0.24528982  1
  Zn  Zn91  1  0.50041585  0.12454632  0.12782720  1
  Zn  Zn92  1  0.11602415  0.50591315  0.13264649  1
  Zn  Zn93  1  0.87508773  0.00166844  0.87563672  1
  Zn  Zn94  1  0.12572909  0.12656300  -0.00059529  1
  Zn  Zn95  1  0.25332628  0.74853284  0.50549618  1
  Zn  Zn96  1  0.62427651  0.39191698  0.74274962  1
  Zn  Zn97  1  0.87909787  0.25033824  0.12212647  1
  Zn  Zn98  1  0.12599361  0.24954428  0.87605575  1
  Zn  Zn99  1  -0.00318680  0.50589347  0.00471383  1
  Zn  Zn100  1  0.01269448  0.24821270  0.25036559  1
  Zn  Zn101  1  0.37437318  0.87725480  0.00006666  1
  Zn  Zn102  1  0.61882974  0.75220599  0.38387410  1
  Zn  Zn103  1  -0.00001452  0.12943522  0.12360314  1
  Zn  Zn104  1  0.25430376  0.00446624  0.74435009  1
  Zn  Zn105  1  0.50178036  0.24891111  0.25159608  1
  Zn  Zn106  1  0.51084883  -0.00697448  0.49714756  1
  Zn  Zn107  1  0.19091782  0.18848762  0.19190284  1
  Zn  Zn108  1  0.19104772  0.18796844  0.68588533  1
  Zn  Zn109  1  0.19289499  0.68893032  0.18948132  1
  Zn  Zn110  1  0.18747695  0.69023153  0.69071108  1
  Zn  Zn111  1  0.69072272  0.18911223  0.18619069  1
  Zn  Zn112  1  0.69023346  0.19086018  0.69029865  1
  Zn  Zn113  1  0.68516802  0.68651354  0.18470415  1
  Zn  Zn114  1  0.67673592  0.57796691  0.70176454  1
  Zn  Zn115  1  0.30990746  0.31018854  0.31470756  1
  Zn  Zn116  1  0.31562260  0.31504899  0.81247814  1
  Zn  Zn117  1  0.31268616  0.81432682  0.31629268  1
  Zn  Zn118  1  0.31208565  0.81688004  0.81473518  1
  Zn  Zn119  1  0.84773669  0.29322191  0.33211480  1
  Zn  Zn120  1  0.80785072  0.31932941  0.81312548  1
  Zn  Zn121  1  0.80903557  0.80875380  0.31389095  1
  Zn  Zn122  1  0.77395451  0.75915257  0.77190014  1
  Zn  Zn123  1  0.19143141  0.43917577  0.44244061  1
  Zn  Zn124  1  0.19078782  0.43986767  0.93576903  1
  Zn  Zn125  1  0.19541263  0.93909022  0.43683483  1
  Zn  Zn126  1  0.18939897  0.93934498  0.93683868  1
  Zn  Zn127  1  0.69258090  0.44006781  0.43757175  1
  Zn  Zn128  1  0.68061784  0.44220898  0.93163199  1
  Zn  Zn129  1  0.74018910  0.96146607  0.46659890  1
  Zn  Zn130  1  0.68624791  0.93131311  0.93344616  1
  Zn  Zn131  1  0.31368792  0.06467310  0.06085473  1
  Zn  Zn132  1  0.31240272  0.05807165  0.56201300  1
  Zn  Zn133  1  0.30900504  0.56639329  0.06440217  1
  Zn  Zn134  1  0.31357995  0.55886933  0.56251313  1
  Zn  Zn135  1  0.81129344  0.06108239  0.06319209  1
  Zn  Zn136  1  0.86383787  0.08884026  0.53158220  1
  Zn  Zn137  1  0.81036975  0.55951804  0.06161994  1
  Zn  Zn138  1  0.81455802  0.57355006  0.55529339  1
  Zn  Zn139  1  0.43612173  0.43407656  0.19186990  1
  Zn  Zn140  1  0.44233674  0.43182293  0.68618508  1
  Zn  Zn141  1  0.43863283  0.93694102  0.18871106  1
  Zn  Zn142  1  0.44319626  0.93790995  0.68102856  1
  Zn  Zn143  1  0.94025926  0.43888473  0.18327917  1
  Zn  Zn144  1  0.94020311  0.43767165  0.68983250  1
  Zn  Zn145  1  0.93697596  0.93705135  0.19079165  1
  Zn  Zn146  1  0.94024438  0.93879569  0.68531407  1
  Zn  Zn147  1  0.05664811  0.05994319  0.31940061  1
  Zn  Zn148  1  0.06606455  0.06428647  0.81388064  1
  Zn  Zn149  1  0.06318683  0.56382584  0.31210120  1
  Zn  Zn150  1  0.06640094  0.56245125  0.81575727  1
  Zn  Zn151  1  0.56471565  0.06318442  0.31385264  1
  Zn  Zn152  1  0.56506369  0.05980851  0.81412598  1
  Zn  Zn153  1  0.56369230  0.56166949  0.31374819  1
  Zn  Zn154  1  0.54595218  0.56800850  0.81730905  1
  Zn  Zn155  1  0.44301959  0.18454919  0.43817176  1
  Zn  Zn156  1  0.43480399  0.18436883  0.94019363  1
  Zn  Zn157  1  0.44017624  0.68579950  0.44008362  1
  Zn  Zn158  1  0.43728091  0.69143919  0.93510037  1
  Zn  Zn159  1  0.98916051  0.20918404  0.43414385  1
  Zn  Zn160  1  0.93653378  0.18807446  0.93441674  1
  Zn  Zn161  1  0.93797781  0.69029550  0.43381863  1
  Zn  Zn162  1  0.93866778  0.68887953  0.93678400  1
  Zn  Zn163  1  0.06206462  0.31365464  0.06629759  1
  Zn  Zn164  1  0.06215594  0.32268765  0.56028468  1
  Zn  Zn165  1  0.06464851  0.81265531  0.06510515  1
  Zn  Zn166  1  0.06306373  0.81939496  0.55969904  1
  Zn  Zn167  1  0.56024225  0.31366366  0.06007004  1
  Zn  Zn168  1  0.56227247  0.31598702  0.56704634  1
  Zn  Zn169  1  0.56137843  0.81180603  0.06582725  1
  Zn  Zn170  1  0.56751348  0.80813822  0.56610349  1
  O  O171  1  0.12614718  0.11301490  0.12669532  1
  O  O172  1  0.13013548  0.10695132  0.63139974  1
  O  O173  1  0.13687055  0.62603456  0.11021162  1
  O  O174  1  0.11771215  0.62283193  0.62261040  1
  O  O175  1  0.62407866  0.11768180  0.11890014  1
  O  O176  1  0.62251539  0.12226052  0.61956069  1
  O  O177  1  0.62669246  0.61785873  0.11204324  1
  O  O178  1  0.61270599  0.62326740  0.61351098  1
  O  O179  1  0.38108834  0.37876323  0.38036487  1
  O  O180  1  0.38427840  0.36942226  0.88842953  1
  O  O181  1  0.37077521  0.88447030  0.38835364  1
  O  O182  1  0.37668129  0.88636530  0.88078722  1
  O  O183  1  0.86385780  0.39437261  0.38774518  1
  O  O184  1  0.88189267  0.38152986  0.88185000  1
  O  O185  1  0.87962223  0.87336939  0.37101618  1
  O  O186  1  0.89172810  0.87794540  0.88244159  1
  O  O187  1  0.26265675  0.00778464  0.36903464  1
  O  O188  1  0.25921021  0.00806463  0.87436099  1
  O  O189  1  0.25800613  0.50648824  0.37009761  1
  O  O190  1  0.24708241  0.50897014  0.86352336  1
  O  O191  1  0.73914175  0.00878021  0.36074467  1
  O  O192  1  0.75097836  0.00329601  0.86646069  1
  O  O193  1  0.75689810  0.51345704  0.37144066  1
  O  O194  1  0.76349665  0.49743212  0.87643742  1
  O  O195  1  0.24972711  0.49389826  0.13622908  1
  O  O196  1  0.24555405  0.49342626  0.63079870  1
  O  O197  1  0.24474229  0.99662095  0.13141538  1
  O  O198  1  0.24252878  0.98941505  0.62733735  1
  O  O199  1  0.73939755  0.49200335  0.12305549  1
  O  O200  1  0.76460808  0.52212602  0.64146001  1
  O  O201  1  0.74190305  0.99319254  0.13158631  1
  O  O202  1  0.73799309  1.00322742  0.63993038  1
  O  O203  1  0.02180308  0.38301939  0.24767514  1
  O  O204  1  0.00680449  0.36854755  0.75831264  1
  O  O205  1  0.01296123  0.86768377  0.24472359  1
  O  O206  1  0.00667522  0.87151749  0.75920107  1
  O  O207  1  0.50542353  0.37115611  0.26208742  1
  O  O208  1  0.49951756  0.37547646  0.76853996  1
  O  O209  1  0.50872021  0.86638548  0.24666491  1
  O  O210  1  0.50530918  0.86482155  0.74789994  1
  O  O211  1  0.48857572  0.12690633  0.24953571  1
  O  O212  1  0.50721726  0.12115384  0.73646135  1
  O  O213  1  0.48866141  0.62967934  0.25209088  1
  O  O214  1  0.49724633  0.63715720  0.73647408  1
  O  O215  1  0.98764229  0.12233656  0.24744378  1
  O  O216  1  0.99082044  0.13439543  0.75960953  1
  O  O217  1  0.99139122  0.63284933  0.25123947  1
  O  O218  1  1.00981298  0.63695483  0.74368156  1
  O  O219  1  0.36588208  0.25502272  0.00858468  1
  O  O220  1  0.37645304  0.25708149  0.50243060  1
  O  O221  1  0.37007622  0.75276203  0.00929345  1
  O  O222  1  0.37257334  0.76450668  0.49112044  1
  O  O223  1  0.86504312  0.26021669  -0.00261041  1
  O  O224  1  0.87119958  0.26739563  0.51212433  1
  O  O225  1  0.86734647  0.75341519  0.00284598  1
  O  O226  1  0.86184988  0.74169221  0.50314171  1
  O  O227  1  0.08172711  0.23488437  0.49912817  1
  O  O228  1  0.13993495  0.25166268  1.00178157  1
  O  O229  1  0.12866535  0.75095292  0.49028795  1
  O  O230  1  0.13153326  0.74347235  0.99708706  1
  O  O231  1  0.63392464  0.24310283  0.49637798  1
  O  O232  1  0.62849982  0.24355072  0.99405543  1
  O  O233  1  0.63409045  0.73878643  0.50193706  1
  O  O234  1  0.62719014  0.74066854  0.99809643  1
  O  O235  1  0.48731646  0.24975135  0.12612586  1
  O  O236  1  0.48633059  0.24050546  0.61817976  1
  O  O237  1  0.48634789  0.75395322  0.13510225  1
  O  O238  1  0.50096387  0.74350251  0.63606449  1
  O  O239  1  0.99709478  0.24842661  0.13280648  1
  O  O240  1  0.98756079  0.25357766  0.64056142  1
  O  O241  1  0.99462309  0.75273761  0.13646014  1
  O  O242  1  0.99947855  0.74623152  0.62988986  1
  O  O243  1  -0.04189767  0.26378950  0.34708060  1
  O  O244  1  0.00045586  0.26110351  0.86710281  1
  O  O245  1  0.01436648  0.74387763  0.36330283  1
  O  O246  1  0.00500075  0.75707751  0.86837792  1
  O  O247  1  0.51123756  0.25656152  0.37427606  1
  O  O248  1  0.50853514  0.25172629  0.88266176  1
  O  O249  1  0.50036267  0.74591240  0.36103256  1
  O  O250  1  0.50625508  0.75108670  0.86486729  1
  O  O251  1  0.25043217  0.11988295  0.48815760  1
  O  O252  1  0.24947402  0.13403849  0.99272611  1
  O  O253  1  0.25043631  0.62619280  0.48860366  1
  O  O254  1  0.24346763  0.63204876  0.99226325  1
  O  O255  1  0.74933806  0.13152071  0.49134106  1
  O  O256  1  0.74523957  0.13160195  0.99349815  1
  O  O257  1  0.73792342  0.63224241  0.49269645  1
  O  O258  1  0.74585471  0.63654004  1.00196047  1
  O  O259  1  0.25916419  0.37005656  0.00504709  1
  O  O260  1  0.25844155  0.37739782  0.51379270  1
  O  O261  1  0.24912363  0.86807929  0.00829928  1
  O  O262  1  0.26153895  0.87336309  0.50729221  1
  O  O263  1  0.75281787  0.37041153  0.00345571  1
  O  O264  1  0.76034909  0.37871911  0.50902604  1
  O  O265  1  0.75376910  0.86734072  0.00573658  1
  O  O266  1  0.73746265  0.85308828  0.49665177  1
  O  O267  1  0.13822044  0.49412409  0.25236350  1
  O  O268  1  0.12930801  0.49213543  0.74399957  1
  O  O269  1  0.12735122  0.99320101  0.24480481  1
  O  O270  1  0.12750825  0.98762975  0.75169330  1
  O  O271  1  0.62704069  0.49479982  0.24132173  1
  O  O272  1  0.61916798  0.50456029  0.76356178  1
  O  O273  1  0.62872861  0.99260053  0.24387983  1
  O  O274  1  0.63207476  0.98993781  0.74779058  1
  O  O275  1  0.37271027  0.00647442  0.25720177  1
  O  O276  1  0.37731967  -0.00429503  0.76093396  1
  O  O277  1  0.36751983  0.50493794  0.25744948  1
  O  O278  1  0.36371118  0.49416563  0.74574550  1
  O  O279  1  0.86081804  0.00836056  0.24006432  1
  O  O280  1  0.86839423  0.00401472  0.75060335  1
  O  O281  1  0.87377221  0.50567842  0.25554962  1
  O  O282  1  0.88698220  0.50132907  0.76908661  1
  O  O283  1  0.13055364  0.37845684  0.36661346  1
  O  O284  1  0.11909602  0.37248429  0.87110769  1
  O  O285  1  0.13496866  0.86718810  0.36478577  1
  O  O286  1  0.11822190  0.86985809  0.87080997  1
  O  O287  1  0.62104704  0.37318904  0.37180464  1
  O  O288  1  0.60743576  0.36513487  0.88381671  1
  O  O289  1  0.62968631  0.87050580  0.36095940  1
  O  O290  1  0.61801138  0.86888458  0.86361032  1
  O  O291  1  0.37493324  0.13329322  0.13378194  1
  O  O292  1  0.38275002  0.13384777  0.62015219  1
  O  O293  1  0.36636878  0.63479117  0.13730516  1
  O  O294  1  0.38723559  0.63070776  0.61075347  1
  O  O295  1  0.87713175  0.12571964  0.12916723  1
  O  O296  1  0.87185563  0.13488464  0.64052125  1
  O  O297  1  0.86760463  0.62924780  0.13678346  1
  O  O298  1  0.89177439  0.63614704  0.62624945  1
  O  O299  1  0.25950659  0.25692174  0.12038551  1
  O  O300  1  0.26392639  0.25611774  0.62743359  1
  O  O301  1  0.26000759  0.75661672  0.12245134  1
  O  O302  1  0.24389702  0.76557019  0.62469543  1
  O  O303  1  0.74456719  0.25852892  0.10858523  1
  O  O304  1  0.76345667  0.24480099  0.61964476  1
  O  O305  1  0.75537949  0.75498846  0.11706046  1
  O  O306  1  0.76376666  0.74738578  0.61223955  1
  O  O307  1  0.25376204  0.23381931  0.37515646  1
  O  O308  1  0.25277776  0.24453773  0.88208689  1
  O  O309  1  0.24075152  0.74143032  0.37271138  1
  O  O310  1  0.24475755  0.74578914  0.87955129  1
  O  O311  1  0.74829620  0.24596633  0.38371132  1
  O  O312  1  0.73871273  0.24764715  0.88537712  1
  O  O313  1  0.74823282  0.73798600  0.38232336  1
  O  O314  1  0.73101472  0.75836492  0.88542596  1
  O  O315  1  0.00248074  0.11619894  0.00021346  1
  O  O316  1  -0.03342927  0.12017009  0.49831162  1
  O  O317  1  0.01903567  0.62889090  -0.00458555  1
  O  O318  1  0.00196349  0.61861641  0.50747914  1
  O  O319  1  0.50529029  0.11339104  0.00372292  1
  O  O320  1  0.51857531  0.12182914  0.50398699  1
  O  O321  1  0.50560063  0.63049770  0.00693442  1
  O  O322  1  0.51130719  0.62963854  0.50948941  1
  O  O323  1  0.49244859  0.37018952  0.48750500  1
  O  O324  1  0.48431944  0.37167308  0.99508315  1
  O  O325  1  0.49049019  0.87373328  0.50452919  1
  O  O326  1  0.50084585  0.88672720  0.99956567  1
  O  O327  1  0.98510056  0.39574364  0.50927141  1
  O  O328  1  0.99019421  0.37156309  0.99230822  1
  O  O329  1  0.98978199  0.87462959  0.49440181  1
  O  O330  1  0.99797329  0.88064005  0.99545009  1
  O  O331  1  0.49059157  0.49077957  0.36977094  1
  O  O332  1  0.49298908  0.48777195  0.88306808  1
  O  O333  1  0.48921415  1.00418612  0.37796091  1
  O  O334  1  0.49337844  0.99968834  0.88242975  1
  O  O335  1  0.99142311  0.50822801  0.38414151  1
  O  O336  1  0.99975971  0.48890972  0.88270205  1
  O  O337  1  0.98937203  0.99131603  0.37641022  1
  O  O338  1  1.00321344  0.99360214  0.88716394  1
  O  O339  1  0.00803153  -0.00157770  0.11512617  1
  O  O340  1  0.01899700  -0.00336045  0.62824997  1
  O  O341  1  0.00473910  0.49973329  0.11655618  1
  O  O342  1  0.00553219  0.51039045  0.62193011  1
  O  O343  1  0.50669886  0.00082409  0.11817882  1
  O  O344  1  0.51442138  0.00868782  0.62009896  1
  O  O345  1  0.50998335  0.49432537  0.12894455  1
  O  O346  1  0.49103958  0.51518908  0.62665950  1
  O  O347  1  0.24661348  0.38260380  0.24484138  1
  O  O348  1  0.24726140  0.38002766  0.74116659  1
  O  O349  1  0.24276633  0.88111363  0.24514170  1
  O  O350  1  0.24316175  0.87747500  0.74370672  1
  O  O351  1  0.74404365  0.37610377  0.23304602  1
  O  O352  1  0.73851624  0.36655731  0.74397422  1
  O  O353  1  0.74445614  0.87972950  0.24365070  1
  O  O354  1  0.74296741  0.87682609  0.75444784  1
  O  O355  1  0.26244741  0.11944116  0.25407947  1
  O  O356  1  0.24957041  0.12408892  0.76313010  1
  O  O357  1  0.25816858  0.61884779  0.26061234  1
  O  O358  1  0.24434933  0.61601130  0.75799697  1
  O  O359  1  0.74780407  0.11361515  0.25370920  1
  O  O360  1  0.75551093  0.11549433  0.75689577  1
  O  O361  1  0.75639019  0.62686259  0.25691039  1
  O  O362  1  0.74776349  0.65160813  0.75431097  1
  O  O363  1  0.37177865  0.11910628  0.37025762  1
  O  O364  1  0.36684256  0.11501073  0.88021722  1
  O  O365  1  0.37104524  0.61697550  0.37084520  1
  O  O366  1  0.36153681  0.62855213  0.87873884  1
  O  O367  1  0.85767049  0.12258090  0.36101120  1
  O  O368  1  0.86728140  0.12332882  0.86513247  1
  O  O369  1  0.86832657  0.61894259  0.36470538  1
  O  O370  1  0.87858767  0.60863751  0.88386193  1
  O  O371  1  0.14012512  0.37926355  0.12548605  1
  O  O372  1  0.13468110  0.38005769  0.62952280  1
  O  O373  1  0.13175330  0.88525433  0.13212937  1
  O  O374  1  0.13181839  0.88346536  0.63194796  1
  O  O375  1  0.62815881  0.38232556  0.12557282  1
  O  O376  1  0.62869028  0.37581808  0.62798733  1
  O  O377  1  0.63164663  0.87973909  0.13095432  1
  O  O378  1  0.62175288  0.88319578  0.63681030  1
  O  O379  1  0.13049892  0.26791965  0.24906327  1
  O  O380  1  0.11722914  0.25586755  0.74968462  1
  O  O381  1  0.11973219  0.75632461  0.25249533  1
  O  O382  1  0.11574758  0.76298867  0.75413754  1
  O  O383  1  0.62591475  0.25783517  0.25554782  1
  O  O384  1  0.62361479  0.24587623  0.76793766  1
  O  O385  1  0.61567947  0.75664827  0.24710417  1
  O  O386  1  0.61585068  0.75737344  0.75864123  1
  O  O387  1  0.37540638  0.24325756  0.24306818  1
  O  O388  1  0.37701739  0.25041356  0.73728321  1
  O  O389  1  0.37948117  0.74366851  0.24688042  1
  O  O390  1  0.38794352  0.75610935  0.75235408  1
  O  O391  1  0.84941023  0.22912047  0.23555469  1
  O  O392  1  0.87936557  0.24471186  0.74833776  1
  O  O393  1  0.88314002  0.74239484  0.24642630  1
  O  O394  1  0.88865188  0.75609612  0.74100716  1
  O  O395  1  0.37058879  0.48699387  0.48912743  1
  O  O396  1  0.36852091  0.48610722  1.00636111  1
  O  O397  1  0.38100448  0.99078105  0.49347756  1
  O  O398  1  0.38412474  0.99929311  0.99537791  1
  O  O399  1  0.88128367  0.50263381  0.49203642  1
  O  O400  1  0.87456282  0.48989886  0.99151974  1
  O  O401  1  0.85283795  0.98350267  0.48991000  1
  O  O402  1  0.88302877  0.99252747  0.99960447  1
  O  O403  1  0.11904999  0.00031871  0.00957539  1
  O  O404  1  0.12645330  -0.00584028  0.51112304  1
  O  O405  1  0.12988718  0.51594745  -0.00006291  1
  O  O406  1  0.11748463  0.50239777  0.50734034  1
  O  O407  1  0.61947666  0.00368922  0.00330793  1
  O  O408  1  0.63695467  0.00808783  0.50936665  1
  O  O409  1  0.62382322  0.51546264  0.00422464  1
  O  O410  1  0.62773517  0.51499246  0.49571507  1
  O  O411  1  0.36692218  0.36981457  0.11853950  1
  O  O412  1  0.37302167  0.36253395  0.61820214  1
  O  O413  1  0.36747409  0.86854912  0.12547329  1
  O  O414  1  0.36981717  0.88170425  0.61025693  1
  O  O415  1  0.86500590  0.37462214  0.11558319  1
  O  O416  1  0.87171271  0.37239516  0.62332578  1
  O  O417  1  0.86887018  0.86709502  0.12060395  1
  O  O418  1  0.88038775  0.86332404  0.62489108  1
  O  O419  1  0.13955114  0.11965678  0.36823723  1
  O  O420  1  0.13637883  0.12905544  0.87944726  1
  O  O421  1  0.13481686  0.63244478  0.37530436  1
  O  O422  1  0.13276953  0.63262089  0.88438470  1
  O  O423  1  0.63314115  0.13164813  0.38184898  1
  O  O424  1  0.62777030  0.13383124  0.88147883  1
  O  O425  1  0.62998836  0.62815397  0.38201062  1
  O  O426  1  0.61373591  0.63363835  0.89156993  1
