# generated using pymatgen
data_V85Zn86O256
_symmetry_space_group_name_H-M   'P 1'
_cell_length_a   16.96859858
_cell_length_b   16.95271050
_cell_length_c   16.96826959
_cell_angle_alpha   90.13223512
_cell_angle_beta   90.09663562
_cell_angle_gamma   90.06980240
_symmetry_Int_Tables_number   1
_chemical_formula_structural   V85Zn86O256
_chemical_formula_sum   'V85 Zn86 O256'
_cell_volume   4881.13229244
_cell_formula_units_Z   1
loop_
 _symmetry_equiv_pos_site_id
 _symmetry_equiv_pos_as_xyz
  1  'x, y, z'
loop_
 _atom_site_type_symbol
 _atom_site_label
 _atom_site_symmetry_multiplicity
 _atom_site_fract_x
 _atom_site_fract_y
 _atom_site_fract_z
 _atom_site_occupancy
  V  V0  1  0.87128748  -0.00840870  0.37341469  1
  V  V1  1  -0.00006536  0.87151113  0.87554754  1
  V  V2  1  0.24921262  0.62358137  0.37638602  1
  V  V3  1  0.37624922  0.75551992  0.12192201  1
  V  V4  1  0.24692724  0.87210558  0.12815714  1
  V  V5  1  0.50015201  0.25171481  0.75131520  1
  V  V6  1  0.38967892  0.24549223  0.11963698  1
  V  V7  1  0.37566111  0.87565986  0.50089240  1
  V  V8  1  0.12184861  0.37534337  0.75302305  1
  V  V9  1  0.13138626  0.24379333  0.37266330  1
  V  V10  1  -0.00226904  0.49221623  0.50252372  1
  V  V11  1  0.50970202  0.62246403  0.11414431  1
  V  V12  1  0.00272244  0.87551162  0.37214271  1
  V  V13  1  0.75262512  0.12213344  0.36079019  1
  V  V14  1  0.49836870  0.38866590  0.87672058  1
  V  V15  1  0.62408076  0.75516432  0.89935584  1
  V  V16  1  0.50098623  0.75262898  0.75188999  1
  V  V17  1  0.62222382  0.74871688  0.37926114  1
  V  V18  1  0.88082915  0.24665904  0.12394306  1
  V  V19  1  0.74440344  0.63645116  0.88628372  1
  V  V20  1  0.12270806  0.12147678  0.00946748  1
  V  V21  1  0.25279876  0.50499077  0.76314452  1
  V  V22  1  -0.00713399  0.74334960  0.25189073  1
  V  V23  1  0.61082050  0.11725425  0.00446694  1
  V  V24  1  0.74990588  0.36977534  0.62626704  1
  V  V25  1  0.12861275  0.74455466  0.87176209  1
  V  V26  1  0.11678009  0.25096125  0.88183241  1
  V  V27  1  -0.00522841  0.63384340  0.61998849  1
  V  V28  1  0.75518054  0.74845700  0.50241897  1
  V  V29  1  0.25011561  0.37680396  0.62532918  1
  V  V30  1  0.86947075  0.63244256  0.74291136  1
  V  V31  1  0.49794416  0.75392819  0.25416936  1
  V  V32  1  0.37479511  0.62584731  0.24864865  1
  V  V33  1  0.25397475  0.24955929  0.00265319  1
  V  V34  1  0.87158168  0.85564466  0.00341152  1
  V  V35  1  0.25272667  0.75383672  -0.00539786  1
  V  V36  1  0.37262121  0.62237263  0.76601468  1
  V  V37  1  0.88065326  0.12301860  0.75011016  1
  V  V38  1  0.86927920  -0.00314529  0.87375021  1
  V  V39  1  0.24363083  0.87953634  0.62264546  1
  V  V40  1  0.87583589  0.24368236  0.62242494  1
  V  V41  1  0.87838425  0.87329523  0.49798487  1
  V  V42  1  0.11889997  -0.00611087  0.13235827  1
  V  V43  1  0.62695896  0.87921318  0.75375359  1
  V  V44  1  -0.00555015  0.62825504  0.12496280  1
  V  V45  1  0.24973974  0.49923789  0.24857684  1
  V  V46  1  0.74720413  0.11931221  0.87061660  1
  V  V47  1  0.50233997  0.12216531  0.62284956  1
  V  V48  1  0.12263525  0.49766281  0.62423268  1
  V  V49  1  0.12407686  0.87673352  0.74867719  1
  V  V50  1  0.24878028  0.12317857  0.87692871  1
  V  V51  1  0.24674169  -0.00040203  0.74835167  1
  V  V52  1  0.37823918  0.25054178  0.62710940  1
  V  V53  1  0.63676170  0.88597689  0.25898395  1
  V  V54  1  0.64711441  0.12455719  0.50396153  1
  V  V55  1  0.49823318  0.49657821  0.50053516  1
  V  V56  1  0.49518607  0.87954534  0.88433444  1
  V  V57  1  0.62973703  0.24980815  0.37800035  1
  V  V58  1  0.12275303  0.50031296  0.11817969  1
  V  V59  1  0.49521924  0.62420289  0.62787592  1
  V  V60  1  0.12815802  0.75336327  0.36667491  1
  V  V61  1  0.75025548  0.50400864  0.75258082  1
  V  V62  1  0.12460149  0.37295996  0.24514405  1
  V  V63  1  0.75645770  0.87137279  0.62952927  1
  V  V64  1  0.86180738  0.37159719  0.49913169  1
  V  V65  1  0.62612798  0.24948323  0.87510872  1
  V  V66  1  0.62306941  0.62433236  0.50210640  1
  V  V67  1  0.63751501  -0.00047694  0.62965180  1
  V  V68  1  0.37491383  -0.00359377  0.88633961  1
  V  V69  1  0.50451223  0.37066854  0.36616882  1
  V  V70  1  0.37394431  0.49694207  0.37531143  1
  V  V71  1  0.75244020  0.25090116  0.00386682  1
  V  V72  1  0.12714418  0.62361801  -0.00324894  1
  V  V73  1  0.00158499  0.37307339  0.37399288  1
  V  V74  1  0.37966407  0.39148446  -0.00178896  1
  V  V75  1  0.37218996  0.36747784  0.49838094  1
  V  V76  1  0.75030886  0.61705691  0.37063445  1
  V  V77  1  0.24445409  0.74870966  0.50153490  1
  V  V78  1  0.38476072  0.12276469  0.24555711  1
  V  V79  1  0.88102894  0.11136525  0.23754925  1
  V  V80  1  0.87212554  0.49847537  0.36469693  1
  V  V81  1  0.25116251  -0.00059297  0.24896928  1
  V  V82  1  -0.00255251  0.74940484  0.74471850  1
  V  V83  1  -0.00531323  0.00031359  0.00395696  1
  V  V84  1  0.62486088  0.49708675  0.62249124  1
  Zn  Zn85  1  0.88001102  0.38449380  -0.00058102  1
  Zn  Zn86  1  0.08379500  0.09026929  0.54361679  1
  Zn  Zn87  1  0.37765638  0.00181282  0.37583881  1
  Zn  Zn88  1  0.49824824  0.87885026  0.38029191  1
  Zn  Zn89  1  0.62643806  0.48827667  0.13446090  1
  Zn  Zn90  1  0.50313572  -0.00211362  0.50325543  1
  Zn  Zn91  1  0.25368114  0.12413244  0.37746041  1
  Zn  Zn92  1  0.75510755  0.86919828  0.12404391  1
  Zn  Zn93  1  0.00307612  0.40129180  0.88843835  1
  Zn  Zn94  1  0.87658864  0.50371313  0.88385460  1
  Zn  Zn95  1  0.76268678  0.39843369  0.14539783  1
  Zn  Zn96  1  0.62522663  0.37677589  0.75150312  1
  Zn  Zn97  1  -0.00513208  0.25187944  0.75523112  1
  Zn  Zn98  1  0.37112565  0.74914062  0.62809379  1
  Zn  Zn99  1  0.62159139  0.00853811  0.13009206  1
  Zn  Zn100  1  0.50515651  0.24519244  0.24624241  1
  Zn  Zn101  1  0.25428260  0.37607946  0.12303425  1
  Zn  Zn102  1  0.21637737  0.21767483  0.53131754  1
  Zn  Zn103  1  0.82400549  0.57806051  0.20302169  1
  Zn  Zn104  1  0.12239236  0.62179865  0.49834283  1
  Zn  Zn105  1  0.37518845  0.12285590  0.75055448  1
  Zn  Zn106  1  0.00421452  0.23839588  0.24374542  1
  Zn  Zn107  1  0.19441295  0.18507326  0.18703493  1
  Zn  Zn108  1  0.18528659  0.18844246  0.69719494  1
  Zn  Zn109  1  0.18563085  0.68649018  0.18653285  1
  Zn  Zn110  1  0.18523353  0.68518215  0.68431377  1
  Zn  Zn111  1  0.68367377  0.27355086  0.19085414  1
  Zn  Zn112  1  0.69239358  0.18634394  0.69211553  1
  Zn  Zn113  1  0.68434500  0.70266895  0.17929672  1
  Zn  Zn114  1  0.68299373  0.69188318  0.68835163  1
  Zn  Zn115  1  0.31473849  0.30998534  0.30606844  1
  Zn  Zn116  1  0.31152704  0.31475848  0.81668915  1
  Zn  Zn117  1  0.31186065  0.81627749  0.31197876  1
  Zn  Zn118  1  0.31364563  0.81305452  0.81103918  1
  Zn  Zn119  1  0.82059211  0.29839872  0.31668555  1
  Zn  Zn120  1  0.81481874  0.31467422  0.81644271  1
  Zn  Zn121  1  0.79881028  0.78753759  0.28464207  1
  Zn  Zn122  1  0.81202850  0.81131687  0.81401886  1
  Zn  Zn123  1  0.18640771  0.43143493  0.43748187  1
  Zn  Zn124  1  0.19000533  0.43598656  0.93933435  1
  Zn  Zn125  1  0.18773870  0.94033857  0.43384763  1
  Zn  Zn126  1  0.18769339  0.93383834  0.94008170  1
  Zn  Zn127  1  0.68452227  0.43265613  0.31083374  1
  Zn  Zn128  1  0.68270059  0.43521148  0.93988125  1
  Zn  Zn129  1  0.68984999  0.93863592  0.44016934  1
  Zn  Zn130  1  0.69139643  0.93626584  0.94854054  1
  Zn  Zn131  1  0.31239388  0.06251234  0.06560180  1
  Zn  Zn132  1  0.31194248  0.06029888  0.56421719  1
  Zn  Zn133  1  0.30906787  0.57058549  0.06330123  1
  Zn  Zn134  1  0.31277897  0.55974499  0.56550140  1
  Zn  Zn135  1  0.79810008  0.05609642  0.06206154  1
  Zn  Zn136  1  0.91516726  0.06024380  0.56228186  1
  Zn  Zn137  1  0.75959792  0.54129307  0.03729050  1
  Zn  Zn138  1  0.81193968  0.55855929  0.55890390  1
  Zn  Zn139  1  0.44152903  0.43975553  0.18427537  1
  Zn  Zn140  1  0.43584414  0.43864088  0.69231256  1
  Zn  Zn141  1  0.44152348  0.93981389  0.18486997  1
  Zn  Zn142  1  0.43371729  0.93884958  0.68926093  1
  Zn  Zn143  1  0.94562544  0.43300829  0.17709710  1
  Zn  Zn144  1  0.93467934  0.43859640  0.69165934  1
  Zn  Zn145  1  0.93776082  0.93051091  0.18867668  1
  Zn  Zn146  1  0.93317499  0.93697470  0.69143613  1
  Zn  Zn147  1  0.05998178  0.05800544  0.31638411  1
  Zn  Zn148  1  0.06075373  0.06123905  0.81659614  1
  Zn  Zn149  1  0.06298124  0.55991324  0.31197586  1
  Zn  Zn150  1  0.06279910  0.56485076  0.80780473  1
  Zn  Zn151  1  0.55979126  0.06316356  0.31945543  1
  Zn  Zn152  1  0.56014331  0.06170451  0.81395985  1
  Zn  Zn153  1  0.55887334  0.56592285  0.30992559  1
  Zn  Zn154  1  0.56846542  0.56865370  0.81386258  1
  Zn  Zn155  1  0.43676492  0.18382384  0.43791024  1
  Zn  Zn156  1  0.43610045  0.18883682  0.93192963  1
  Zn  Zn157  1  0.43287975  0.68820762  0.44029651  1
  Zn  Zn158  1  0.43946704  0.69301199  0.94031798  1
  Zn  Zn159  1  0.93650262  0.19126624  0.43006526  1
  Zn  Zn160  1  0.93658458  0.18314746  0.94070050  1
  Zn  Zn161  1  0.93651758  0.68615280  0.43431193  1
  Zn  Zn162  1  0.94215947  0.67069625  0.93207630  1
  Zn  Zn163  1  0.05830245  0.31142479  0.06249855  1
  Zn  Zn164  1  0.06627476  0.28217230  0.57130654  1
  Zn  Zn165  1  0.06040714  0.81099444  0.06263240  1
  Zn  Zn166  1  0.05846271  0.92139079  0.55978981  1
  Zn  Zn167  1  0.56826798  0.31927382  0.05647877  1
  Zn  Zn168  1  0.56543574  0.31009804  0.55638596  1
  Zn  Zn169  1  0.54943499  0.84584035  0.07996126  1
  Zn  Zn170  1  0.56289137  0.81224291  0.56697878  1
  O  O171  1  0.13121644  0.11639217  0.11391197  1
  O  O172  1  0.12688619  0.17892412  0.60280397  1
  O  O173  1  0.12375472  0.61790464  0.11565201  1
  O  O174  1  0.11497310  0.61522815  0.62100612  1
  O  O175  1  0.62332852  0.12433434  0.10419819  1
  O  O176  1  0.62476728  0.11805845  0.62325512  1
  O  O177  1  0.60922167  0.63484427  0.13245405  1
  O  O178  1  0.61262082  0.61976904  0.62305798  1
  O  O179  1  0.37732596  0.37590888  0.38298925  1
  O  O180  1  0.38299487  0.37192223  0.88909480  1
  O  O181  1  0.37503114  0.87605027  0.38724868  1
  O  O182  1  0.37994517  0.88849114  0.86853028  1
  O  O183  1  0.88134409  0.37666472  0.38250227  1
  O  O184  1  0.88338560  0.38238237  0.87234884  1
  O  O185  1  0.87817095  0.87878343  0.37971235  1
  O  O186  1  0.88034429  0.87964466  0.88055417  1
  O  O187  1  0.25253329  -0.00249971  0.35799383  1
  O  O188  1  0.25726041  0.00076472  0.87131959  1
  O  O189  1  0.25471169  0.50241478  0.36978589  1
  O  O190  1  0.24611639  0.49900624  0.86191054  1
  O  O191  1  0.76105166  0.01113781  0.38143169  1
  O  O192  1  0.75896232  0.00552816  0.88072383  1
  O  O193  1  0.75917628  0.50411293  0.37315933  1
  O  O194  1  0.74066938  0.51864135  0.86338712  1
  O  O195  1  0.24127308  0.50101039  0.13191509  1
  O  O196  1  0.24459643  0.48917272  0.63088834  1
  O  O197  1  0.24398798  0.99136135  0.13083759  1
  O  O198  1  0.25282662  0.99154875  0.63665347  1
  O  O199  1  0.75132585  0.51113439  0.14763738  1
  O  O200  1  0.74203406  0.49206193  0.62931181  1
  O  O201  1  0.73219349  0.98054234  0.10890794  1
  O  O202  1  0.73787856  0.98662054  0.62836139  1
  O  O203  1  0.01376360  0.37232144  0.25102180  1
  O  O204  1  0.01482622  0.37927886  0.75324142  1
  O  O205  1  -0.00605939  0.86054203  0.26296313  1
  O  O206  1  0.00378186  0.86726404  0.75492230  1
  O  O207  1  0.48763610  0.36900480  0.26421582  1
  O  O208  1  0.50133971  0.36575757  0.75528651  1
  O  O209  1  0.50457195  0.86170718  0.25905299  1
  O  O210  1  0.50374661  0.86807887  0.75504285  1
  O  O211  1  0.48867669  0.12251024  0.24884488  1
  O  O212  1  0.50189683  0.13599762  0.74070671  1
  O  O213  1  0.49005701  0.63818340  0.24834771  1
  O  O214  1  0.49500133  0.63173383  0.74530801  1
  O  O215  1  0.98397194  0.11897040  0.25167646  1
  O  O216  1  0.98542634  0.12631123  0.75751101  1
  O  O217  1  1.01395005  0.62867097  0.23394514  1
  O  O218  1  0.98977408  0.62945182  0.73900637  1
  O  O219  1  0.36856911  0.25160687  0.00377099  1
  O  O220  1  0.38069272  0.26135704  0.50770691  1
  O  O221  1  0.36378013  0.74608905  0.00903790  1
  O  O222  1  0.36297943  0.75775720  0.50260164  1
  O  O223  1  0.86717412  0.24209079  0.00812574  1
  O  O224  1  0.87620503  0.26159934  0.50888889  1
  O  O225  1  0.89029681  0.75961977  -0.00880198  1
  O  O226  1  0.86337493  0.75724003  0.49297799  1
  O  O227  1  0.12757217  0.27036855  0.47425050  1
  O  O228  1  0.13201260  0.24176902  0.99906890  1
  O  O229  1  0.14054028  0.74408054  0.48726511  1
  O  O230  1  0.13052456  0.74627934  0.99022700  1
  O  O231  1  0.62313908  0.23650588  0.48985258  1
  O  O232  1  0.63070602  0.24192148  0.98735262  1
  O  O233  1  0.62799493  0.74502454  0.49425988  1
  O  O234  1  0.61791306  0.76951700  0.99630943  1
  O  O235  1  0.49155468  0.25623323  0.12411562  1
  O  O236  1  0.49854200  0.24637360  0.63302996  1
  O  O237  1  0.49123654  0.74965534  0.13539456  1
  O  O238  1  0.49775584  0.74094488  0.63386367  1
  O  O239  1  0.98656941  0.24381272  0.12559855  1
  O  O240  1  0.97805070  0.26138759  0.63709729  1
  O  O241  1  1.00852016  0.73800609  0.13612074  1
  O  O242  1  1.00334564  0.73466177  0.62924725  1
  O  O243  1  0.00968475  0.25723735  0.36531031  1
  O  O244  1  0.01227984  0.24538280  0.87740532  1
  O  O245  1  0.01270402  0.74945780  0.37185178  1
  O  O246  1  0.00834009  0.75062171  0.86450038  1
  O  O247  1  0.50699725  0.25638047  0.37682838  1
  O  O248  1  0.50630324  0.25655008  0.86591198  1
  O  O249  1  0.50509476  0.74853087  0.37289003  1
  O  O250  1  0.50733802  0.75669747  0.86815940  1
  O  O251  1  0.26305587  0.12674131  0.49104025  1
  O  O252  1  0.24288052  0.13039003  0.99593887  1
  O  O253  1  0.25216476  0.63066497  0.49500546  1
  O  O254  1  0.23761518  0.64035462  1.00365274  1
  O  O255  1  0.74470654  0.12189575  0.49594517  1
  O  O256  1  0.74225694  0.13262248  0.98597023  1
  O  O257  1  0.74258665  0.63011793  0.49644845  1
  O  O258  1  0.75425085  0.64503413  0.98326644  1
  O  O259  1  0.26276041  0.36676894  -0.00065588  1
  O  O260  1  0.25873018  0.37644995  0.51105315  1
  O  O261  1  0.24536626  0.86359008  0.01245607  1
  O  O262  1  0.25440265  0.86800822  0.50673678  1
  O  O263  1  0.75433336  0.35365236  -0.00976247  1
  O  O264  1  0.76108978  0.37952074  0.51174181  1
  O  O265  1  0.76771618  0.86336248  -0.00563584  1
  O  O266  1  0.75418383  0.86551505  0.50703346  1
  O  O267  1  0.13163206  0.49151408  0.24313118  1
  O  O268  1  0.13281272  0.49555588  0.74269912  1
  O  O269  1  0.13222450  1.00774545  0.23816603  1
  O  O270  1  0.13683025  0.99294080  0.76009209  1
  O  O271  1  0.61186890  0.49128408  0.24973594  1
  O  O272  1  0.63316053  0.50283363  0.73773145  1
  O  O273  1  0.61907327  0.98740517  0.25355443  1
  O  O274  1  0.61994325  0.98632188  0.74665712  1
  O  O275  1  0.36888954  0.00499665  0.24563802  1
  O  O276  1  0.36068352  0.00181223  0.75770330  1
  O  O277  1  0.36898890  0.50429971  0.25441172  1
  O  O278  1  0.36531482  0.50975655  0.74718989  1
  O  O279  1  0.87454910  0.00464691  0.25471930  1
  O  O280  1  0.87666118  0.00505947  0.76586675  1
  O  O281  1  0.88734869  0.49667115  0.26178080  1
  O  O282  1  0.86048230  0.51120333  0.74843235  1
  O  O283  1  0.12109247  0.37098712  0.36123615  1
  O  O284  1  0.12378636  0.36789669  0.87130610  1
  O  O285  1  0.11553483  0.86517006  0.37814680  1
  O  O286  1  0.11936463  0.86523680  0.86973650  1
  O  O287  1  0.61535876  0.36278452  0.38034406  1
  O  O288  1  0.61721755  0.36614115  0.87384510  1
  O  O289  1  0.61998684  0.86632466  0.37514771  1
  O  O290  1  0.61820936  0.87219460  0.86980466  1
  O  O291  1  0.37293748  0.13418213  0.13008386  1
  O  O292  1  0.38587970  0.13082021  0.62966467  1
  O  O293  1  0.38013990  0.63638879  0.13155438  1
  O  O294  1  0.38624444  0.62491287  0.63003495  1
  O  O295  1  0.86828299  0.12026589  0.13509366  1
  O  O296  1  0.86292917  0.13355006  0.63751309  1
  O  O297  1  0.89588920  0.62137196  0.12337179  1
  O  O298  1  0.88158973  0.61892282  0.63058731  1
  O  O299  1  0.25705721  0.25179121  0.11228872  1
  O  O300  1  0.26145287  0.26357245  0.63243060  1
  O  O301  1  0.25412432  0.75566048  0.12088459  1
  O  O302  1  0.24959655  0.75568156  0.61664317  1
  O  O303  1  0.76339105  0.23964643  0.11396844  1
  O  O304  1  0.75613488  0.26376085  0.63276759  1
  O  O305  1  0.77299120  0.76626806  0.17159275  1
  O  O306  1  0.74044477  0.75693759  0.61140601  1
  O  O307  1  0.23562881  0.24939314  0.36449538  1
  O  O308  1  0.24145679  0.24602821  0.88624544  1
  O  O309  1  0.24659529  0.74479298  0.37911266  1
  O  O310  1  0.24214449  0.75874434  0.88295334  1
  O  O311  1  0.74609183  0.23024965  0.37806872  1
  O  O312  1  0.74162474  0.24160726  0.87654238  1
  O  O313  1  0.73964891  0.74172931  0.38581064  1
  O  O314  1  0.73602077  0.74293019  0.86627470  1
  O  O315  1  0.00893152  0.10894485  -0.00465102  1
  O  O316  1  -0.01454235  0.12987770  0.50693633  1
  O  O317  1  0.01629538  0.63315215  0.01287135  1
  O  O318  1  -0.00229390  0.61202217  0.50505786  1
  O  O319  1  0.51226123  0.13118663  -0.00891581  1
  O  O320  1  0.50629966  0.12550552  0.51526433  1
  O  O321  1  0.49900087  0.63300658  0.01609678  1
  O  O322  1  0.50057409  0.61853112  0.50912359  1
  O  O323  1  0.49225983  0.37958974  0.49325773  1
  O  O324  1  0.48811693  0.37467052  0.99173965  1
  O  O325  1  0.48838447  0.87212210  0.50478639  1
  O  O326  1  0.49126592  0.86713464  0.98160292  1
  O  O327  1  0.99299699  0.38385083  0.49693716  1
  O  O328  1  0.99543559  0.37384546  0.99858627  1
  O  O329  1  0.98857255  0.86370652  0.48576366  1
  O  O330  1  0.99563160  0.88243746  0.99288414  1
  O  O331  1  0.49122262  0.49189688  0.38209990  1
  O  O332  1  0.50816350  0.48742343  0.86588555  1
  O  O333  1  0.49565588  0.99738635  0.38582620  1
  O  O334  1  0.48270995  0.99503106  0.86760035  1
  O  O335  1  0.99553585  0.49368911  0.38309373  1
  O  O336  1  0.99210948  0.51573869  0.87511706  1
  O  O337  1  0.98741809  0.98714088  0.36987733  1
  O  O338  1  0.99392008  0.99086837  0.88368289  1
  O  O339  1  0.00833250  -0.00851125  0.11722318  1
  O  O340  1  -0.00663484  -0.00457352  0.61831503  1
  O  O341  1  0.01592840  0.51158052  0.12763914  1
  O  O342  1  0.00279419  0.50340788  0.61835707  1
  O  O343  1  0.52195776  -0.04461438  0.11239410  1
  O  O344  1  0.50867149  0.00824671  0.62824257  1
  O  O345  1  0.50028155  0.51886573  0.12749962  1
  O  O346  1  0.50548416  0.50460822  0.62384686  1
  O  O347  1  0.24185068  0.38016985  0.24512089  1
  O  O348  1  0.24182355  0.38155843  0.74683876  1
  O  O349  1  0.25170311  0.88176371  0.23717426  1
  O  O350  1  0.24539370  0.88032280  0.74244019  1
  O  O351  1  0.74729596  0.35528487  0.25392896  1
  O  O352  1  0.74690920  0.38681259  0.74429059  1
  O  O353  1  0.73527328  0.88478989  0.27729563  1
  O  O354  1  0.74000029  0.86569060  0.74065415  1
  O  O355  1  0.26124459  0.11438251  0.24925987  1
  O  O356  1  0.24836002  0.11701247  0.75820130  1
  O  O357  1  0.25590998  0.61963927  0.25577570  1
  O  O358  1  0.26067498  0.61705299  0.74252903  1
  O  O359  1  0.75947096  0.11976221  0.26171603  1
  O  O360  1  0.75920041  0.12553193  0.76418455  1
  O  O361  1  0.74721670  0.63440647  0.26920480  1
  O  O362  1  0.75428069  0.62273953  0.74665929  1
  O  O363  1  0.37439448  0.12363705  0.36191826  1
  O  O364  1  0.36748471  0.11478581  0.87200422  1
  O  O365  1  0.36869822  0.61768538  0.36999886  1
  O  O366  1  0.38030193  0.62912687  0.86473956  1
  O  O367  1  0.86707472  0.11678570  0.36566007  1
  O  O368  1  0.86740843  0.11644838  0.87128714  1
  O  O369  1  0.86323301  0.60888851  0.38638919  1
  O  O370  1  0.85857495  0.62879726  0.86229387  1
  O  O371  1  0.12834636  0.38189666  0.12892457  1
  O  O372  1  0.13264457  0.37352239  0.63393519  1
  O  O373  1  0.13210466  0.88375994  0.12163761  1
  O  O374  1  0.13712861  0.87045784  0.63314479  1
  O  O375  1  0.64267535  0.36305885  0.12709111  1
  O  O376  1  0.63085148  0.38140335  0.62484799  1
  O  O377  1  0.63633956  0.85201989  0.15889327  1
  O  O378  1  0.63044509  0.88021015  0.63368887  1
  O  O379  1  0.12496372  0.25553461  0.25187207  1
  O  O380  1  0.12270103  0.25935772  0.76504395  1
  O  O381  1  0.12204947  0.74577638  0.26248627  1
  O  O382  1  0.12082309  0.75387614  0.75536673  1
  O  O383  1  0.61847149  0.23294958  0.27181036  1
  O  O384  1  0.61909010  0.25207946  0.75926108  1
  O  O385  1  0.61554260  0.74937795  0.27001446  1
  O  O386  1  0.61195015  0.76046844  0.75214373  1
  O  O387  1  0.37649374  0.24124626  0.23669906  1
  O  O388  1  0.38369632  0.24930887  0.74753454  1
  O  O389  1  0.37982582  0.74589387  0.24594448  1
  O  O390  1  0.38518059  0.74382150  0.74932583  1
  O  O391  1  0.87846369  0.22983174  0.24150208  1
  O  O392  1  0.87315777  0.24030798  0.74588446  1
  O  O393  1  0.89639420  0.72994144  0.27268079  1
  O  O394  1  0.87991228  0.73992495  0.74987055  1
  O  O395  1  0.37846462  0.48850716  0.49644139  1
  O  O396  1  0.36772504  0.48926338  1.00393034  1
  O  O397  1  0.37635648  0.98444963  0.50372177  1
  O  O398  1  0.36717285  1.00118712  0.98512210  1
  O  O399  1  0.88116109  0.48943464  0.49281890  1
  O  O400  1  0.85412640  0.49776401  0.99652291  1
  O  O401  1  0.87011212  0.98093384  0.48943360  1
  O  O402  1  0.88170791  0.99632698  0.99061031  1
  O  O403  1  0.11895148  0.00402999  0.00808935  1
  O  O404  1  0.12814340  -0.00445619  0.50849061  1
  O  O405  1  0.13570425  0.51039021  0.00732325  1
  O  O406  1  0.11597435  0.49682584  0.50585099  1
  O  O407  1  0.62056125  0.01592294  -0.01423133  1
  O  O408  1  0.62515982  0.00668230  0.51258443  1
  O  O409  1  0.65118794  0.50189285  0.02107284  1
  O  O410  1  0.61627729  0.50700421  0.51489761  1
  O  O411  1  0.37621757  0.36924329  0.11166810  1
  O  O412  1  0.36927830  0.37279061  0.61946912  1
  O  O413  1  0.36537783  0.86125859  0.12978264  1
  O  O414  1  0.36229362  0.87143003  0.62107732  1
  O  O415  1  0.87210596  0.36188814  0.12455378  1
  O  O416  1  0.86582191  0.37203017  0.62125896  1
  O  O417  1  0.88039447  0.87521773  0.10537925  1
  O  O418  1  0.86162860  0.87523369  0.61806570  1
  O  O419  1  0.12495307  0.13988680  0.36876700  1
  O  O420  1  0.13014428  0.13057068  0.88647795  1
  O  O421  1  0.13400718  0.62869394  0.37723150  1
  O  O422  1  0.12427819  0.63781838  0.87946381  1
  O  O423  1  0.63809649  0.12307042  0.38394275  1
  O  O424  1  0.63061776  0.13228185  0.87279880  1
  O  O425  1  0.62773302  0.62888599  0.38509352  1
  O  O426  1  0.63401586  0.64033529  0.87422854  1
