# generated using pymatgen
data_V85Zn86O256
_symmetry_space_group_name_H-M   'P 1'
_cell_length_a   16.94282477
_cell_length_b   16.94806387
_cell_length_c   16.95654231
_cell_angle_alpha   89.96908955
_cell_angle_beta   89.95167911
_cell_angle_gamma   89.95536355
_symmetry_Int_Tables_number   1
_chemical_formula_structural   V85Zn86O256
_chemical_formula_sum   'V85 Zn86 O256'
_cell_volume   4869.03459151
_cell_formula_units_Z   1
loop_
 _symmetry_equiv_pos_site_id
 _symmetry_equiv_pos_as_xyz
  1  'x, y, z'
loop_
 _atom_site_type_symbol
 _atom_site_label
 _atom_site_symmetry_multiplicity
 _atom_site_fract_x
 _atom_site_fract_y
 _atom_site_fract_z
 _atom_site_occupancy
  V  V0  1  0.75990339  0.00338350  0.75460872  1
  V  V1  1  0.37340058  0.62644648  0.24928634  1
  V  V2  1  0.50538666  0.27104752  0.75301475  1
  V  V3  1  0.85750091  0.37200229  0.00246205  1
  V  V4  1  0.23673326  0.75416956  -0.00339818  1
  V  V5  1  0.51082836  0.37626123  0.37126096  1
  V  V6  1  0.25043682  0.49962063  0.24954651  1
  V  V7  1  0.87735806  0.49781109  0.87426576  1
  V  V8  1  0.62018864  0.87611684  0.75078847  1
  V  V9  1  0.62865104  -0.00064795  0.62208968  1
  V  V10  1  0.86482351  0.62305701  0.25574093  1
  V  V11  1  0.50332194  0.25206813  0.24846857  1
  V  V12  1  0.42401817  0.06673991  0.81149785  1
  V  V13  1  0.37909696  0.87864261  -0.01600967  1
  V  V14  1  0.24800695  0.49764726  0.75110611  1
  V  V15  1  0.63041245  0.49186457  0.13324793  1
  V  V16  1  0.75038398  0.63031280  0.87406758  1
  V  V17  1  0.37816241  0.49766770  0.87466522  1
  V  V18  1  0.62986808  0.75111767  0.37338022  1
  V  V19  1  0.75957781  0.75113162  0.49603004  1
  V  V20  1  -0.00287394  0.24905573  0.24831752  1
  V  V21  1  0.26016302  0.75251426  0.49956805  1
  V  V22  1  0.37301094  0.75298095  0.12195547  1
  V  V23  1  -0.00645571  0.87836251  0.87059270  1
  V  V24  1  0.87685030  0.25338772  0.62616881  1
  V  V25  1  -0.00307286  0.62303491  0.12645640  1
  V  V26  1  0.12359238  0.13103031  -0.00853143  1
  V  V27  1  -0.00008428  0.74772396  0.25672151  1
  V  V28  1  0.49893354  0.62579976  0.12524086  1
  V  V29  1  0.25007593  0.12414534  0.87097862  1
  V  V30  1  -0.00126766  0.12832181  0.12108891  1
  V  V31  1  0.85723125  0.25011705  0.12144676  1
  V  V32  1  0.75902319  0.87522824  0.62052192  1
  V  V33  1  0.50854417  0.12686651  0.12028555  1
  V  V34  1  0.75482942  0.12798815  0.89547118  1
  V  V35  1  0.12109061  0.62820903  -0.00290603  1
  V  V36  1  0.00160732  0.49869668  0.50051588  1
  V  V37  1  0.12471437  0.50015555  0.12506904  1
  V  V38  1  0.00096416  -0.01234256  0.50228067  1
  V  V39  1  0.62372452  -0.01580796  0.11681013  1
  V  V40  1  0.12317400  0.37365590  0.24743014  1
  V  V41  1  0.12339910  0.24802362  0.37620774  1
  V  V42  1  0.63463943  0.62186963  0.50277119  1
  V  V43  1  0.24176319  0.00665852  0.74667111  1
  V  V44  1  0.87880776  -0.01469681  0.37781422  1
  V  V45  1  0.37426300  -0.00791289  0.37679027  1
  V  V46  1  0.12368384  0.49763131  0.62691221  1
  V  V47  1  0.37560718  0.37433448  0.49809613  1
  V  V48  1  0.25571419  0.36963177  0.12499529  1
  V  V49  1  0.12411672  0.00314645  0.12355966  1
  V  V50  1  0.49998910  0.49805385  -0.00183263  1
  V  V51  1  0.25104517  0.88139821  0.61965079  1
  V  V52  1  0.00543577  0.12657440  0.62201608  1
  V  V53  1  0.62608931  0.12621716  0.49843822  1
  V  V54  1  0.00664044  0.74806137  0.75439209  1
  V  V55  1  0.37590690  0.49923065  0.37428595  1
  V  V56  1  0.24970893  0.24996080  -0.00334067  1
  V  V57  1  0.37271769  0.24819749  0.62966016  1
  V  V58  1  0.24533713  0.63021542  0.87375888  1
  V  V59  1  0.37611259  0.12803556  0.24304690  1
  V  V60  1  0.37613355  0.62767463  0.74559202  1
  V  V61  1  0.87540226  0.62708459  0.74730930  1
  V  V62  1  0.73701460  0.49856420  0.74517288  1
  V  V63  1  0.12165881  0.37177631  0.76592248  1
  V  V64  1  0.50261690  0.75839558  0.25059317  1
  V  V65  1  0.25021442  0.24923549  0.49960102  1
  V  V66  1  0.61704262  0.75491364  0.87419632  1
  V  V67  1  0.75282689  0.12276092  0.37305262  1
  V  V68  1  0.49679000  -0.00983535  0.49956092  1
  V  V69  1  0.50192513  0.50294652  0.50803545  1
  V  V70  1  0.86789460  0.50152146  0.37789759  1
  V  V71  1  0.74023644  -0.01429772  0.24887515  1
  V  V72  1  -0.00116504  0.49024905  0.00044979  1
  V  V73  1  0.25179702  0.12508382  0.37309552  1
  V  V74  1  0.62793019  0.62637954  0.00155500  1
  V  V75  1  0.37786857  0.37046145  0.00020210  1
  V  V76  1  -0.00296526  0.25420477  0.76459362  1
  V  V77  1  -0.00562754  0.00330171  -0.01087451  1
  V  V78  1  0.73558204  0.37717867  0.62482662  1
  V  V79  1  0.49447998  0.12338039  0.62345347  1
  V  V80  1  0.12510098  0.75151660  0.37950845  1
  V  V81  1  0.12794371  0.87354257  0.75209365  1
  V  V82  1  0.24889857  0.00063381  0.24913914  1
  V  V83  1  0.11885491  0.87592451  0.25335302  1
  V  V84  1  0.24646984  0.87641263  0.12076505  1
  Zn  Zn85  1  0.24934533  0.62451240  0.37715300  1
  Zn  Zn86  1  0.00179616  0.62593439  0.62566153  1
  Zn  Zn87  1  -0.00124990  0.37414672  0.37624002  1
  Zn  Zn88  1  0.87603483  0.37371501  0.50033198  1
  Zn  Zn89  1  0.73748708  0.48882106  0.25931153  1
  Zn  Zn90  1  0.12736542  0.62553386  0.50214737  1
  Zn  Zn91  1  0.12517043  0.11962204  0.50321345  1
  Zn  Zn92  1  0.74604405  0.76664888  0.01262098  1
  Zn  Zn93  1  0.86959779  0.87577949  0.00202468  1
  Zn  Zn94  1  0.50084987  0.87364888  0.37529277  1
  Zn  Zn95  1  0.63752708  0.25903093  0.88507352  1
  Zn  Zn96  1  0.49750378  0.75450490  0.74827635  1
  Zn  Zn97  1  0.87609773  0.12486569  0.75490657  1
  Zn  Zn98  1  0.49834033  -0.00085380  -0.01205195  1
  Zn  Zn99  1  0.87179748  0.12211275  0.24853847  1
  Zn  Zn100  1  0.75252118  0.24939082  0.50007161  1
  Zn  Zn101  1  0.88118841  0.75302496  0.62114208  1
  Zn  Zn102  1  0.50602327  0.62836149  0.62722671  1
  Zn  Zn103  1  0.37977968  0.75586969  0.62041350  1
  Zn  Zn104  1  0.24831531  0.37251249  0.62751907  1
  Zn  Zn105  1  0.62945097  0.25247946  0.37118263  1
  Zn  Zn106  1  0.86650266  0.75667342  0.12584262  1
  Zn  Zn107  1  0.18831418  0.18956276  0.18279701  1
  Zn  Zn108  1  0.18218248  0.19045203  0.68981928  1
  Zn  Zn109  1  0.18546822  0.68866016  0.18590713  1
  Zn  Zn110  1  0.18872799  0.68882431  0.68452267  1
  Zn  Zn111  1  0.68292095  0.18075060  0.19094870  1
  Zn  Zn112  1  0.68508906  0.19062731  0.68877300  1
  Zn  Zn113  1  0.68682964  0.68521586  0.18938451  1
  Zn  Zn114  1  0.68860861  0.69007578  0.68420914  1
  Zn  Zn115  1  0.31723973  0.31138077  0.31125479  1
  Zn  Zn116  1  0.31464206  0.31147877  0.81525883  1
  Zn  Zn117  1  0.30931986  0.81340743  0.31069303  1
  Zn  Zn118  1  0.30859958  0.81190471  0.80900132  1
  Zn  Zn119  1  0.81038900  0.31256209  0.31495972  1
  Zn  Zn120  1  0.78177040  0.33039031  0.82833183  1
  Zn  Zn121  1  0.81243337  0.80849784  0.31183880  1
  Zn  Zn122  1  0.81123135  0.81316673  0.81216070  1
  Zn  Zn123  1  0.18642090  0.43468457  0.43712864  1
  Zn  Zn124  1  0.18931355  0.44125346  0.93893108  1
  Zn  Zn125  1  0.18416535  0.93546726  0.43795917  1
  Zn  Zn126  1  0.18282480  0.94153957  0.93241626  1
  Zn  Zn127  1  0.68882573  0.43819394  0.44372196  1
  Zn  Zn128  1  0.68498142  0.44111729  0.93741891  1
  Zn  Zn129  1  0.68738368  0.93319312  0.43592648  1
  Zn  Zn130  1  0.68895591  0.93935099  0.93577714  1
  Zn  Zn131  1  0.31640171  0.06260493  0.05916961  1
  Zn  Zn132  1  0.31222964  0.06231302  0.56118462  1
  Zn  Zn133  1  0.31067087  0.56353066  0.06160631  1
  Zn  Zn134  1  0.30955620  0.56299072  0.56250829  1
  Zn  Zn135  1  0.81269270  0.05355141  0.06943785  1
  Zn  Zn136  1  0.81842256  0.06392573  0.56274614  1
  Zn  Zn137  1  0.81167454  0.56735568  0.06480935  1
  Zn  Zn138  1  0.81273134  0.56111548  0.56432911  1
  Zn  Zn139  1  0.44086386  0.43730194  0.18581625  1
  Zn  Zn140  1  0.43357743  0.43786779  0.68497878  1
  Zn  Zn141  1  0.43498020  0.93911171  0.18309452  1
  Zn  Zn142  1  0.43622814  0.93401532  0.68262633  1
  Zn  Zn143  1  0.89662840  0.41662166  0.20604620  1
  Zn  Zn144  1  0.93549807  0.43406601  0.68972595  1
  Zn  Zn145  1  0.93461341  0.93971503  0.18961089  1
  Zn  Zn146  1  0.94098955  0.93698646  0.68315906  1
  Zn  Zn147  1  0.05901566  0.06331397  0.31517341  1
  Zn  Zn148  1  0.06318802  0.06651403  0.80907600  1
  Zn  Zn149  1  0.06052588  0.56308869  0.31551968  1
  Zn  Zn150  1  0.06096905  0.56109907  0.81451127  1
  Zn  Zn151  1  0.56345991  0.06092071  0.31156257  1
  Zn  Zn152  1  0.58706850  0.06985123  0.80995460  1
  Zn  Zn153  1  0.56159078  0.56930942  0.31653585  1
  Zn  Zn154  1  0.55945613  0.56448055  0.81452012  1
  Zn  Zn155  1  0.43797892  0.18533315  0.43466447  1
  Zn  Zn156  1  0.47433388  0.21089962  0.95534973  1
  Zn  Zn157  1  0.44050973  0.68484470  0.43550594  1
  Zn  Zn158  1  0.43443189  0.68848138  0.93612191  1
  Zn  Zn159  1  0.93514409  0.18365936  0.43964733  1
  Zn  Zn160  1  0.92303271  0.18647253  0.93509038  1
  Zn  Zn161  1  0.94156504  0.68276200  0.43755194  1
  Zn  Zn162  1  0.93663944  0.69331189  0.93711957  1
  Zn  Zn163  1  0.06321580  0.31151975  0.06065072  1
  Zn  Zn164  1  0.06299989  0.31437975  0.56624782  1
  Zn  Zn165  1  0.03192641  0.82757410  0.07747068  1
  Zn  Zn166  1  0.06880313  0.81265923  0.56937095  1
  Zn  Zn167  1  0.57002257  0.31348846  0.06503639  1
  Zn  Zn168  1  0.55931557  0.30899175  0.56069219  1
  Zn  Zn169  1  0.55978256  0.81226525  0.05849157  1
  Zn  Zn170  1  0.56838736  0.80843915  0.56506434  1
  O  O171  1  0.11976105  0.12302777  0.11380970  1
  O  O172  1  0.11025484  0.12969024  0.62262805  1
  O  O173  1  0.12157740  0.61854463  0.11717271  1
  O  O174  1  0.12463796  0.60941902  0.62801524  1
  O  O175  1  0.61127616  0.11445644  0.12703603  1
  O  O176  1  0.61423878  0.12066796  0.61865400  1
  O  O177  1  0.61628238  0.61981896  0.11569697  1
  O  O178  1  0.62437811  0.62974093  0.60803926  1
  O  O179  1  0.38275956  0.38122372  0.38018800  1
  O  O180  1  0.36680902  0.39063267  0.88438992  1
  O  O181  1  0.37538684  0.88858401  0.36955607  1
  O  O182  1  0.37090345  0.87131414  0.88563130  1
  O  O183  1  0.88097206  0.38418600  0.38157151  1
  O  O184  1  0.86777771  0.38531942  0.89083653  1
  O  O185  1  0.87451336  0.88687275  0.37351663  1
  O  O186  1  0.89039744  0.87427434  0.87164682  1
  O  O187  1  0.25475086  0.00522091  0.36986879  1
  O  O188  1  0.24757052  0.01528595  0.86682511  1
  O  O189  1  0.25608351  0.49870716  0.36692001  1
  O  O190  1  0.25689935  0.51198902  0.87217716  1
  O  O191  1  0.75642804  0.00113584  0.36726081  1
  O  O192  1  0.74332047  0.00922381  0.85823222  1
  O  O193  1  0.76339522  0.49725107  0.37754016  1
  O  O194  1  0.76059652  0.51391470  0.86905302  1
  O  O195  1  0.24372995  0.49342373  0.12942864  1
  O  O196  1  0.24299389  0.49655406  0.63361180  1
  O  O197  1  0.24301695  0.99726529  0.12942736  1
  O  O198  1  0.25393485  0.99605369  0.63350243  1
  O  O199  1  0.73124096  0.50773232  0.12446526  1
  O  O200  1  0.75051541  0.48824163  0.62987330  1
  O  O201  1  0.73465628  1.00298039  0.13794438  1
  O  O202  1  0.74754965  0.99364694  0.62740403  1
  O  O203  1  0.00163064  0.36059331  0.24892597  1
  O  O204  1  0.00509805  0.36280869  0.75135604  1
  O  O205  1  0.01272817  0.86642423  0.24862959  1
  O  O206  1  0.00801183  0.87090396  0.75156602  1
  O  O207  1  0.49195458  0.36510424  0.25886937  1
  O  O208  1  0.50328300  0.37048014  0.74430606  1
  O  O209  1  0.49226628  0.86065501  0.24874030  1
  O  O210  1  0.51586653  0.87798762  0.74407625  1
  O  O211  1  0.49368919  0.12814819  0.24356363  1
  O  O212  1  0.49034053  0.11697472  0.74507784  1
  O  O213  1  0.48930042  0.63300417  0.24521118  1
  O  O214  1  0.48963044  0.62463028  0.74690956  1
  O  O215  1  1.00092648  0.13405048  0.24040215  1
  O  O216  1  0.99903972  0.13567446  0.74235291  1
  O  O217  1  0.99782321  0.63101098  0.24408891  1
  O  O218  1  0.99373047  0.63217990  0.75179964  1
  O  O219  1  0.37447790  0.26680376  -0.00355633  1
  O  O220  1  0.37113284  0.25303406  0.50641284  1
  O  O221  1  0.36557317  0.75894442  0.00321800  1
  O  O222  1  0.36368449  0.74701590  0.49726748  1
  O  O223  1  0.87690052  0.26395490  0.00593859  1
  O  O224  1  0.87287757  0.25089611  0.50979491  1
  O  O225  1  0.86993062  0.75291960  0.00339738  1
  O  O226  1  0.86357384  0.74035122  0.50036314  1
  O  O227  1  0.13078568  0.25018499  0.49099728  1
  O  O228  1  0.13648506  0.24307783  1.00242982  1
  O  O229  1  0.13142703  0.74954040  0.49308753  1
  O  O230  1  0.13445805  0.74697604  1.00562833  1
  O  O231  1  0.62449573  0.23568714  0.49690269  1
  O  O232  1  0.58033534  0.24598123  0.98136443  1
  O  O233  1  0.63478140  0.74074852  0.49371503  1
  O  O234  1  0.62548838  0.74253228  0.99249809  1
  O  O235  1  0.50214880  0.23479621  0.13317425  1
  O  O236  1  0.49363178  0.24258268  0.63391283  1
  O  O237  1  0.49460789  0.74428761  0.13034899  1
  O  O238  1  0.49613975  0.74783337  0.62815156  1
  O  O239  1  0.99967081  0.24003737  0.12909539  1
  O  O240  1  0.99360090  0.24451724  0.62816143  1
  O  O241  1  1.00914162  0.73278960  0.13996627  1
  O  O242  1  0.99945855  0.74744182  0.63707836  1
  O  O243  1  0.00682826  0.24694165  0.36678916  1
  O  O244  1  -0.00475472  0.24394808  0.86252356  1
  O  O245  1  0.00816840  0.74579583  0.36471244  1
  O  O246  1  0.00072101  0.75863719  0.86180808  1
  O  O247  1  0.50123955  0.25914832  0.36916953  1
  O  O248  1  0.47819874  0.25205427  0.84808195  1
  O  O249  1  0.50453008  0.75242023  0.36705342  1
  O  O250  1  0.51354774  0.74320837  0.87125462  1
  O  O251  1  0.24653552  0.13165640  0.49213831  1
  O  O252  1  0.24574859  0.13152565  0.99485171  1
  O  O253  1  0.24659922  0.63520511  0.49812256  1
  O  O254  1  0.24390351  0.63324514  0.99354348  1
  O  O255  1  0.74187294  0.12296597  0.49447667  1
  O  O256  1  0.75371221  0.11469128  0.99381009  1
  O  O257  1  0.74022329  0.62990840  0.50252810  1
  O  O258  1  0.73831401  0.62242588  0.99072043  1
  O  O259  1  0.25490541  0.36938233  0.00527393  1
  O  O260  1  0.25650400  0.36491780  0.49997607  1
  O  O261  1  0.25209822  0.86993356  0.00006454  1
  O  O262  1  0.24473628  0.86818421  0.50835235  1
  O  O263  1  0.76047199  0.38267933  0.01123779  1
  O  O264  1  0.75223807  0.37238381  0.51331544  1
  O  O265  1  0.75606571  0.88022173  -0.00091997  1
  O  O266  1  0.74607821  0.86461590  0.50849742  1
  O  O267  1  0.12985848  0.49272120  0.24639040  1
  O  O268  1  0.12696515  0.49250406  0.74606969  1
  O  O269  1  0.12835877  0.99427925  0.24807192  1
  O  O270  1  0.13614796  0.99540851  0.74930941  1
  O  O271  1  0.62239498  0.50829140  0.23864294  1
  O  O272  1  0.63863251  0.50658034  0.75553806  1
  O  O273  1  0.63521669  0.99682757  0.24641929  1
  O  O274  1  0.63593459  0.99365772  0.73948307  1
  O  O275  1  0.36728739  0.00548231  0.25589011  1
  O  O276  1  0.36811276  0.00109349  0.75465825  1
  O  O277  1  0.37044917  0.50600932  0.25318542  1
  O  O278  1  0.36891032  0.50462001  0.75735397  1
  O  O279  1  0.86805029  0.00163242  0.25939010  1
  O  O280  1  0.86213231  -0.00067201  0.74380713  1
  O  O281  1  0.89110251  0.51278085  0.26607611  1
  O  O282  1  0.87264153  0.50692576  0.75908209  1
  O  O283  1  0.12377594  0.36254271  0.36650566  1
  O  O284  1  0.12655010  0.38132529  0.86525709  1
  O  O285  1  0.12969702  0.86252786  0.36548014  1
  O  O286  1  0.11878758  0.87913012  0.85877399  1
  O  O287  1  0.61451656  0.37535859  0.37875673  1
  O  O288  1  0.67227248  0.36416446  0.86102900  1
  O  O289  1  0.61982064  0.85769825  0.37983153  1
  O  O290  1  0.62999940  0.86628368  0.86446417  1
  O  O291  1  0.38317266  0.11508271  0.13900628  1
  O  O292  1  0.38681193  0.13277557  0.61833010  1
  O  O293  1  0.37865218  0.63196000  0.12813794  1
  O  O294  1  0.37200616  0.62489714  0.63855297  1
  O  O295  1  0.88340515  0.13214981  0.12418102  1
  O  O296  1  0.88371896  0.13676226  0.62765403  1
  O  O297  1  0.88505032  0.62215057  0.13594655  1
  O  O298  1  0.87716906  0.62451659  0.63848943  1
  O  O299  1  0.25153785  0.25809327  0.11220294  1
  O  O300  1  0.25633632  0.24793181  0.61792809  1
  O  O301  1  0.25282490  0.75604732  0.11558171  1
  O  O302  1  0.25181883  0.75766714  0.61467103  1
  O  O303  1  0.75828919  0.24198117  0.12984436  1
  O  O304  1  0.75662088  0.26009685  0.62699722  1
  O  O305  1  0.75399398  0.74115177  0.12411897  1
  O  O306  1  0.75343705  0.75818772  0.61582327  1
  O  O307  1  0.24446171  0.24551286  0.37876414  1
  O  O308  1  0.25700322  0.24011275  0.88710821  1
  O  O309  1  0.24405070  0.75045855  0.38268404  1
  O  O310  1  0.25256727  0.73811512  0.88201184  1
  O  O311  1  0.74840449  0.23947978  0.37733214  1
  O  O312  1  0.76179001  0.23056712  0.88033466  1
  O  O313  1  0.74203892  0.75197743  0.38157792  1
  O  O314  1  0.74107314  0.73870970  0.87235971  1
  O  O315  1  0.00612476  0.12430394  0.00203430  1
  O  O316  1  0.00158863  0.11800418  0.50711561  1
  O  O317  1  0.00358445  0.62064584  0.00725696  1
  O  O318  1  0.00672835  0.61323796  0.50503614  1
  O  O319  1  0.48173895  0.11392817  0.02071176  1
  O  O320  1  0.50637814  0.11820050  0.50590477  1
  O  O321  1  0.50682417  0.61840924  0.00337394  1
  O  O322  1  0.50766232  0.61747046  0.50218413  1
  O  O323  1  0.49570143  0.38133630  0.49262782  1
  O  O324  1  0.49006528  0.39150693  1.01002371  1
  O  O325  1  0.50459924  0.88772066  0.50215303  1
  O  O326  1  0.48348983  0.87596128  0.99899591  1
  O  O327  1  1.00191567  0.38713157  0.49949610  1
  O  O328  1  1.00242792  0.38867160  1.00064032  1
  O  O329  1  1.00241232  0.88844301  0.50932761  1
  O  O330  1  1.01177330  0.88868321  0.98226058  1
  O  O331  1  0.49439497  0.49379660  0.38071326  1
  O  O332  1  0.49038977  0.50488045  0.88539019  1
  O  O333  1  0.49295574  0.99785978  0.38124275  1
  O  O334  1  0.49489744  1.01754893  0.86785687  1
  O  O335  1  0.99819583  0.49741310  0.38640621  1
  O  O336  1  0.98490355  0.50868659  0.88578893  1
  O  O337  1  0.98578614  1.00372713  0.38212703  1
  O  O338  1  1.00510450  0.99533394  0.87898080  1
  O  O339  1  0.00633831  0.01532191  0.12076287  1
  O  O340  1  -0.00840034  0.00957150  0.61004219  1
  O  O341  1  0.00773109  0.51081388  0.11777649  1
  O  O342  1  0.00683345  0.49939305  0.62043201  1
  O  O343  1  0.51250456  0.00687733  0.13119984  1
  O  O344  1  0.50304430  0.00682016  0.61756444  1
  O  O345  1  0.50562810  0.50895844  0.11891187  1
  O  O346  1  0.49496848  0.50177383  0.61051699  1
  O  O347  1  0.24745089  0.37693060  0.24112573  1
  O  O348  1  0.24178775  0.37985383  0.75137897  1
  O  O349  1  0.23877114  0.87972684  0.24182822  1
  O  O350  1  0.24437410  0.88503454  0.74687577  1
  O  O351  1  0.78632212  0.38936761  0.23897053  1
  O  O352  1  0.76266475  0.38716778  0.73028078  1
  O  O353  1  0.75423187  0.88756920  0.25025697  1
  O  O354  1  0.74441502  0.88574808  0.74437150  1
  O  O355  1  0.25678851  0.12213512  0.25257984  1
  O  O356  1  0.24476815  0.12096848  0.75733761  1
  O  O357  1  0.25799619  0.61981302  0.24868581  1
  O  O358  1  0.25391738  0.62032264  0.75789938  1
  O  O359  1  0.74994363  0.11253973  0.25902685  1
  O  O360  1  0.75194235  0.10964003  0.74032677  1
  O  O361  1  0.76324650  0.61431135  0.24958943  1
  O  O362  1  0.75687267  0.62058447  0.75359807  1
  O  O363  1  0.37085164  0.11550134  0.36500774  1
  O  O364  1  0.36926742  0.12546376  0.87276459  1
  O  O365  1  0.37328977  0.61640039  0.36661474  1
  O  O366  1  0.36782651  0.61728835  0.86752227  1
  O  O367  1  0.86280881  0.11672557  0.37431302  1
  O  O368  1  0.86239950  0.11523152  0.87117959  1
  O  O369  1  0.88035964  0.61599815  0.36700318  1
  O  O370  1  0.86785364  0.62187946  0.86662585  1
  O  O371  1  0.13531507  0.37874640  0.12897837  1
  O  O372  1  0.12704841  0.38514655  0.63477440  1
  O  O373  1  0.12641780  0.88359894  0.13140172  1
  O  O374  1  0.13913556  0.87473431  0.63783024  1
  O  O375  1  0.61799128  0.39289234  0.12764658  1
  O  O376  1  0.63691672  0.36881832  0.62265146  1
  O  O377  1  0.61694928  0.88592115  0.12659440  1
  O  O378  1  0.63691622  0.88008658  0.63094644  1
  O  O379  1  0.11927649  0.25429375  0.25423936  1
  O  O380  1  0.10986304  0.26001035  0.74685248  1
  O  O381  1  0.12105023  0.75686128  0.25653325  1
  O  O382  1  0.11881047  0.75809112  0.74670219  1
  O  O383  1  0.60938811  0.24359387  0.25445690  1
  O  O384  1  0.60594329  0.24389966  0.75285176  1
  O  O385  1  0.61433221  0.73811213  0.26159841  1
  O  O386  1  0.62632987  0.75889939  0.75597993  1
  O  O387  1  0.38615741  0.23783340  0.25514814  1
  O  O388  1  0.37856706  0.25971480  0.73254236  1
  O  O389  1  0.37754038  0.74428947  0.24295498  1
  O  O390  1  0.37630601  0.74058172  0.75041381  1
  O  O391  1  0.88366623  0.24442883  0.24037430  1
  O  O392  1  0.88846428  0.25040942  0.74340826  1
  O  O393  1  0.88452220  0.74083761  0.25116802  1
  O  O394  1  0.88178016  0.74160646  0.74913592  1
  O  O395  1  0.38089457  0.49625653  0.49347223  1
  O  O396  1  0.38002107  0.49750223  0.99330434  1
  O  O397  1  0.38478966  1.00722582  0.48899657  1
  O  O398  1  0.37376258  0.98261630  1.00043508  1
  O  O399  1  0.88426787  0.50157255  0.49442794  1
  O  O400  1  0.87992796  0.49246635  0.99842112  1
  O  O401  1  0.88392244  1.00168084  0.48617542  1
  O  O402  1  0.89274140  0.99857082  1.00699437  1
  O  O403  1  0.11786490  0.01132095  0.00396587  1
  O  O404  1  0.10557043  0.00356419  0.48706643  1
  O  O405  1  0.11823876  0.50674294  0.00506601  1
  O  O406  1  0.12117210  0.49902246  0.50885959  1
  O  O407  1  0.61658110  -0.00537690  0.01269062  1
  O  O408  1  0.61843450  0.00825040  0.50297605  1
  O  O409  1  0.61735883  0.50645497  0.00518428  1
  O  O410  1  0.61782954  0.51439869  0.49317293  1
  O  O411  1  0.36237770  0.38476265  0.11602902  1
  O  O412  1  0.37189571  0.36733000  0.61437933  1
  O  O413  1  0.36413036  0.86959820  0.11910414  1
  O  O414  1  0.35777943  0.87226272  0.63020692  1
  O  O415  1  0.88735152  0.36206916  0.10744523  1
  O  O416  1  0.87419109  0.36337495  0.62117211  1
  O  O417  1  0.91810153  0.86223034  0.11214428  1
  O  O418  1  0.86296020  0.87213650  0.62855256  1
  O  O419  1  0.13140167  0.13672433  0.37199336  1
  O  O420  1  0.13255268  0.12549449  0.88523685  1
  O  O421  1  0.12890055  0.63844346  0.37400719  1
  O  O422  1  0.13370524  0.61928446  0.88444740  1
  O  O423  1  0.63574264  0.12141820  0.38257936  1
  O  O424  1  0.64871562  0.13420449  0.87338802  1
  O  O425  1  0.61904572  0.63777917  0.39027291  1
  O  O426  1  0.63158566  0.62990635  0.88247362  1
