# generated using pymatgen
data_V85Zn86O256
_symmetry_space_group_name_H-M   'P 1'
_cell_length_a   16.93314290
_cell_length_b   16.93674672
_cell_length_c   16.92794475
_cell_angle_alpha   89.94015276
_cell_angle_beta   90.01911871
_cell_angle_gamma   89.95776691
_symmetry_Int_Tables_number   1
_chemical_formula_structural   V85Zn86O256
_chemical_formula_sum   'V85 Zn86 O256'
_cell_volume   4854.80085871
_cell_formula_units_Z   1
loop_
 _symmetry_equiv_pos_site_id
 _symmetry_equiv_pos_as_xyz
  1  'x, y, z'
loop_
 _atom_site_type_symbol
 _atom_site_label
 _atom_site_symmetry_multiplicity
 _atom_site_fract_x
 _atom_site_fract_y
 _atom_site_fract_z
 _atom_site_occupancy
  V  V0  1  0.24940893  0.62863040  0.86725900  1
  V  V1  1  0.12289770  0.62351395  0.49904816  1
  V  V2  1  0.61012882  0.75204910  0.87499844  1
  V  V3  1  0.49373374  0.13226461  0.63726981  1
  V  V4  1  0.62254342  0.25560530  0.37497353  1
  V  V5  1  0.49745221  0.12196995  0.12205143  1
  V  V6  1  0.24779188  0.37291547  0.61959427  1
  V  V7  1  0.75097781  0.25086712  0.50139960  1
  V  V8  1  0.87785874  0.87566837  0.00290331  1
  V  V9  1  0.00703454  0.11455387  0.12141453  1
  V  V10  1  0.25131858  0.74981129  0.49897123  1
  V  V11  1  0.62294929  0.61901179  0.00276955  1
  V  V12  1  0.75050068  0.12656136  0.37475076  1
  V  V13  1  0.37561508  0.86844050  0.49981501  1
  V  V14  1  0.87027217  0.37645118  0.49977290  1
  V  V15  1  0.74964935  0.00008532  0.25070667  1
  V  V16  1  0.37654250  0.26019924  0.62596257  1
  V  V17  1  0.75310334  0.74814831  0.00356365  1
  V  V18  1  0.87965745  0.37626271  -0.00306129  1
  V  V19  1  -0.00986369  0.75419737  0.24318369  1
  V  V20  1  0.24101969  0.87781951  0.62514954  1
  V  V21  1  0.74743790  0.75089056  0.49909322  1
  V  V22  1  0.62404236  0.12398775  0.50033443  1
  V  V23  1  0.37666775  0.37494101  -0.00300179  1
  V  V24  1  0.37462017  0.76588129  0.12124170  1
  V  V25  1  0.74917915  0.62610145  0.87498478  1
  V  V26  1  0.75256267  0.12338081  0.87592285  1
  V  V27  1  0.37777213  -0.01926008  0.87274206  1
  V  V28  1  0.49790521  0.62283335  0.12427451  1
  V  V29  1  0.62390892  0.25221143  0.86004896  1
  V  V30  1  0.26410388  0.12821038  0.87033533  1
  V  V31  1  0.00450469  0.24948270  0.25300550  1
  V  V32  1  0.00667102  0.37742495  0.86553360  1
  V  V33  1  0.62392989  0.49981488  0.63450033  1
  V  V34  1  0.87466112  0.62608177  0.75187363  1
  V  V35  1  0.00904298  0.87324845  0.88141698  1
  V  V36  1  0.88315401  -0.00111630  0.87992238  1
  V  V37  1  0.50111433  0.24674729  0.25169475  1
  V  V38  1  0.62253731  0.12477800  -0.00371868  1
  V  V39  1  0.36994158  0.62863248  0.24376709  1
  V  V40  1  0.87629924  0.24996459  0.12377761  1
  V  V41  1  0.23595349  -0.00129991  0.25407850  1
  V  V42  1  0.50261208  0.37249246  0.85892431  1
  V  V43  1  0.75434835  0.86966984  0.12760584  1
  V  V44  1  0.24470005  0.38135671  0.11984835  1
  V  V45  1  0.12580981  0.11672759  0.00223122  1
  V  V46  1  0.23022799  0.88288504  0.12551706  1
  V  V47  1  0.88134228  0.12420386  0.74879562  1
  V  V48  1  0.49667066  0.62795482  0.64072275  1
  V  V49  1  0.87656292  0.00163680  0.37829365  1
  V  V50  1  0.00740877  0.75046749  0.75639658  1
  V  V51  1  0.00065996  0.49941689  0.49986937  1
  V  V52  1  -0.00098084  0.62600214  0.62556903  1
  V  V53  1  0.49995379  0.49398430  0.00890989  1
  V  V54  1  0.62387563  0.86743726  0.25910400  1
  V  V55  1  0.74461668  0.49894266  0.26122461  1
  V  V56  1  0.00466251  0.37337997  0.37667958  1
  V  V57  1  -0.00563173  0.62090046  0.12534653  1
  V  V58  1  0.62505854  -0.00147113  0.62863512  1
  V  V59  1  0.37350155  0.24783095  0.12279256  1
  V  V60  1  0.12935913  0.25163556  0.86438694  1
  V  V61  1  0.24760979  0.00417541  0.74661213  1
  V  V62  1  0.62551655  -0.00105727  0.12390533  1
  V  V63  1  0.23859133  0.50510072  0.24249186  1
  V  V64  1  0.24476088  0.75670480  -0.00198800  1
  V  V65  1  0.87496847  0.87603495  0.50666151  1
  V  V66  1  0.87670833  0.12582774  0.24925700  1
  V  V67  1  0.49523371  -0.01527871  -0.00392729  1
  V  V68  1  0.49823989  -0.00008460  0.49752544  1
  V  V69  1  0.00307103  0.87645044  0.37223344  1
  V  V70  1  0.36964513  0.12170479  0.26010833  1
  V  V71  1  0.24837071  0.24988985  -0.00147783  1
  V  V72  1  0.37627245  0.74667981  0.63765982  1
  V  V73  1  0.12532778  0.49543933  0.63651626  1
  V  V74  1  0.24764485  0.62316012  0.37285970  1
  V  V75  1  0.14373019  0.14083715  0.49672102  1
  V  V76  1  0.01105702  0.00270381  0.51102566  1
  V  V77  1  0.75057292  0.38643899  0.12103199  1
  V  V78  1  0.12877556  0.61966501  0.00472100  1
  V  V79  1  0.62296888  0.37543759  0.23987621  1
  V  V80  1  0.62099449  0.62785736  0.49767176  1
  V  V81  1  0.12190804  0.37752648  0.24397461  1
  V  V82  1  0.61166204  0.87087174  0.75561864  1
  V  V83  1  0.12236570  0.75253954  0.36713166  1
  V  V84  1  0.74702490  0.37386759  0.63740551  1
  Zn  Zn85  1  0.25602886  0.49530765  0.75015415  1
  Zn  Zn86  1  0.00768479  0.49487945  0.00447004  1
  Zn  Zn87  1  0.37074127  -0.00253318  0.37628798  1
  Zn  Zn88  1  0.74687353  0.63369401  0.37376780  1
  Zn  Zn89  1  0.87959242  0.24755132  0.62552588  1
  Zn  Zn90  1  0.26406125  0.25817403  0.46847189  1
  Zn  Zn91  1  0.74879896  0.49649686  0.75595246  1
  Zn  Zn92  1  0.50452134  0.85762193  0.38474096  1
  Zn  Zn93  1  0.01239285  0.12550962  0.62862059  1
  Zn  Zn94  1  0.87460712  0.75070062  0.62763542  1
  Zn  Zn95  1  0.75074581  -0.00629407  0.75418980  1
  Zn  Zn96  1  0.00629389  0.25243390  0.74451934  1
  Zn  Zn97  1  0.37589040  0.48028775  0.38260681  1
  Zn  Zn98  1  0.74829561  0.87198094  0.63162454  1
  Zn  Zn99  1  0.86752010  0.62735314  0.24833991  1
  Zn  Zn100  1  0.48642305  0.48178889  0.49948547  1
  Zn  Zn101  1  0.12370203  0.87801616  0.75130028  1
  Zn  Zn102  1  0.38019588  0.50904423  0.86840836  1
  Zn  Zn103  1  0.74848952  0.25216843  -0.00036189  1
  Zn  Zn104  1  0.87944004  0.50188011  0.87748653  1
  Zn  Zn105  1  0.50257162  0.74588668  0.25392829  1
  Zn  Zn106  1  0.87340842  0.50361449  0.37403748  1
  Zn  Zn107  1  0.19008346  0.19053771  0.19744485  1
  Zn  Zn108  1  0.19284093  0.18460409  0.68065956  1
  Zn  Zn109  1  0.17994494  0.69507791  0.18254875  1
  Zn  Zn110  1  0.18445883  0.69051316  0.68441378  1
  Zn  Zn111  1  0.68967678  0.18755991  0.18320412  1
  Zn  Zn112  1  0.69185484  0.18235472  0.68667118  1
  Zn  Zn113  1  0.68558203  0.68473837  0.18496774  1
  Zn  Zn114  1  0.68649841  0.69191750  0.68751140  1
  Zn  Zn115  1  0.31973171  0.31779452  0.31523681  1
  Zn  Zn116  1  0.31809847  0.31460516  0.80157909  1
  Zn  Zn117  1  0.31281108  0.81503409  0.31072218  1
  Zn  Zn118  1  0.30568725  0.81068008  0.81301395  1
  Zn  Zn119  1  0.81339887  0.31559271  0.31285412  1
  Zn  Zn120  1  0.81633025  0.30718065  0.81629713  1
  Zn  Zn121  1  0.81447501  0.81333041  0.31794761  1
  Zn  Zn122  1  0.81031550  0.81152073  0.81390764  1
  Zn  Zn123  1  0.18792810  0.43649965  0.43682186  1
  Zn  Zn124  1  0.18667660  0.44111742  0.93336966  1
  Zn  Zn125  1  0.18686825  0.93750052  0.43583732  1
  Zn  Zn126  1  0.19231775  0.94069224  0.93834265  1
  Zn  Zn127  1  0.65907756  0.42794231  0.45106810  1
  Zn  Zn128  1  0.68489898  0.43801428  0.93699527  1
  Zn  Zn129  1  0.68931471  0.93716152  0.44029566  1
  Zn  Zn130  1  0.68812368  0.93636216  0.93565222  1
  Zn  Zn131  1  0.31229560  0.05846053  0.06027859  1
  Zn  Zn132  1  0.31443652  0.06361612  0.56324092  1
  Zn  Zn133  1  0.31497627  0.56262809  0.05857143  1
  Zn  Zn134  1  0.31574651  0.55932441  0.56123851  1
  Zn  Zn135  1  0.81432755  0.06055046  0.06198929  1
  Zn  Zn136  1  0.81288027  0.06102438  0.56501048  1
  Zn  Zn137  1  0.81612789  0.56151177  0.06347590  1
  Zn  Zn138  1  0.80870359  0.56128511  0.56469577  1
  Zn  Zn139  1  0.42571605  0.43124407  0.20308954  1
  Zn  Zn140  1  0.43212885  0.44369028  0.68534444  1
  Zn  Zn141  1  0.43908164  0.94055351  0.19070640  1
  Zn  Zn142  1  0.43307757  0.93905414  0.68594379  1
  Zn  Zn143  1  0.93376151  0.44169461  0.18795846  1
  Zn  Zn144  1  0.93296995  0.43985462  0.68692407  1
  Zn  Zn145  1  0.93811552  0.93712707  0.18805444  1
  Zn  Zn146  1  0.93882178  0.93858882  0.69203742  1
  Zn  Zn147  1  0.06335107  0.06547988  0.31838087  1
  Zn  Zn148  1  0.06746744  0.06301701  0.81731842  1
  Zn  Zn149  1  0.05866866  0.56256020  0.31004714  1
  Zn  Zn150  1  0.06585103  0.56645269  0.81975409  1
  Zn  Zn151  1  0.56181029  0.06023437  0.31408521  1
  Zn  Zn152  1  0.56022762  0.05804003  0.81358945  1
  Zn  Zn153  1  0.56019690  0.55435622  0.31331832  1
  Zn  Zn154  1  0.56188619  0.55869600  0.81642894  1
  Zn  Zn155  1  0.43709495  0.18979516  0.44026779  1
  Zn  Zn156  1  0.44096550  0.18970449  0.93484964  1
  Zn  Zn157  1  0.45589200  0.65442351  0.41805302  1
  Zn  Zn158  1  0.42957058  0.69035668  0.94179424  1
  Zn  Zn159  1  0.94152100  0.18828259  0.43892321  1
  Zn  Zn160  1  0.94336815  0.19037097  0.93693838  1
  Zn  Zn161  1  0.93132694  0.68701383  0.43461507  1
  Zn  Zn162  1  0.93835361  0.69007811  0.94016825  1
  Zn  Zn163  1  0.06325953  0.30609435  0.05945264  1
  Zn  Zn164  1  0.06619702  0.30952174  0.56332855  1
  Zn  Zn165  1  0.06204112  0.80853266  0.06233170  1
  Zn  Zn166  1  0.06074916  0.80970041  0.56083441  1
  Zn  Zn167  1  0.56378693  0.30819113  0.06066582  1
  Zn  Zn168  1  0.56184556  0.31609375  0.56390806  1
  Zn  Zn169  1  0.56719246  0.80757921  0.06786094  1
  Zn  Zn170  1  0.56037773  0.80838818  0.56824814  1
  O  O171  1  0.11728566  0.13674760  0.11609125  1
  O  O172  1  0.12710912  0.12606710  0.60497260  1
  O  O173  1  0.11356214  0.62928622  0.11388911  1
  O  O174  1  0.11850023  0.61892279  0.61792633  1
  O  O175  1  0.62135228  0.11837404  0.11575748  1
  O  O176  1  0.61718132  0.11895058  0.62042826  1
  O  O177  1  0.60748577  0.63072885  0.11713884  1
  O  O178  1  0.61543722  0.62300449  0.62583487  1
  O  O179  1  0.39399270  0.39552111  0.31140802  1
  O  O180  1  0.38979942  0.37002392  0.88010974  1
  O  O181  1  0.37533863  0.87498423  0.38888756  1
  O  O182  1  0.37127796  0.88251711  0.87783422  1
  O  O183  1  0.88376397  0.37861459  0.38228080  1
  O  O184  1  0.88322280  0.37519855  0.88312981  1
  O  O185  1  0.88406842  0.88057470  0.38679573  1
  O  O186  1  0.88020902  0.88145964  0.88334526  1
  O  O187  1  0.25115727  -0.00665699  0.35878224  1
  O  O188  1  0.26328817  0.00704679  0.87161330  1
  O  O189  1  0.24840950  0.50809225  0.36175876  1
  O  O190  1  0.24790565  0.51549867  0.87243871  1
  O  O191  1  0.75590655  0.00653397  0.37165219  1
  O  O192  1  0.76213792  0.00661850  0.87700686  1
  O  O193  1  0.74353727  0.49232308  0.36462048  1
  O  O194  1  0.74974405  0.51368946  0.87600702  1
  O  O195  1  0.24981232  0.48895863  0.12510681  1
  O  O196  1  0.24046130  0.49371772  0.62421205  1
  O  O197  1  0.25257351  0.98723784  0.13057104  1
  O  O198  1  0.26036969  0.99051283  0.63523848  1
  O  O199  1  0.75336883  0.48946856  0.13159022  1
  O  O200  1  0.74519894  0.49101114  0.63207289  1
  O  O201  1  0.74481806  0.99339489  0.13055928  1
  O  O202  1  0.73403744  1.00066646  0.62733434  1
  O  O203  1  0.00306946  0.37124852  0.25365632  1
  O  O204  1  -0.00741404  0.37441431  0.76233809  1
  O  O205  1  -0.00558783  0.86830738  0.26029579  1
  O  O206  1  0.00069495  0.86878390  0.76065710  1
  O  O207  1  0.51790486  0.35880965  0.22812876  1
  O  O208  1  0.50098590  0.37927900  0.76105688  1
  O  O209  1  0.51645241  0.87666668  0.25044260  1
  O  O210  1  0.51265869  0.87989215  0.74822395  1
  O  O211  1  0.49607125  0.12802199  0.24210754  1
  O  O212  1  0.50477097  0.12222982  0.73494077  1
  O  O213  1  0.48774395  0.62264217  0.23907635  1
  O  O214  1  0.50195613  0.62211423  0.73989333  1
  O  O215  1  0.99671232  0.13326594  0.24613803  1
  O  O216  1  0.99492396  0.12273827  0.74931916  1
  O  O217  1  0.99778305  0.63136170  0.23840503  1
  O  O218  1  0.99463895  0.63202735  0.74965512  1
  O  O219  1  0.36897026  0.25486672  0.00431735  1
  O  O220  1  0.37325030  0.24380692  0.51412238  1
  O  O221  1  0.35794412  0.74825933  0.01105343  1
  O  O222  1  0.36551918  0.75686388  0.50875118  1
  O  O223  1  0.87543273  0.25979935  0.00641309  1
  O  O224  1  0.86953837  0.26114317  0.49954882  1
  O  O225  1  0.86044691  0.75969695  -0.00482165  1
  O  O226  1  0.87113711  0.76112064  0.50344917  1
  O  O227  1  0.13560191  0.24384529  0.49710256  1
  O  O228  1  0.13422129  0.24490551  0.98924835  1
  O  O229  1  0.12837683  0.74293918  0.48914859  1
  O  O230  1  0.13775773  0.74060377  1.00674972  1
  O  O231  1  0.63067924  0.24272840  0.49063310  1
  O  O232  1  0.62634385  0.23477707  0.99375564  1
  O  O233  1  0.63375610  0.73938925  0.50984984  1
  O  O234  1  0.63358542  0.74111604  0.99541598  1
  O  O235  1  0.49674327  0.23889264  0.12904347  1
  O  O236  1  0.49517011  0.24035229  0.61906193  1
  O  O237  1  0.49062144  0.74348679  0.12803300  1
  O  O238  1  0.49104073  0.73815942  0.62879559  1
  O  O239  1  0.98942063  0.24583864  0.13198412  1
  O  O240  1  0.99772593  0.24573428  0.62781377  1
  O  O241  1  1.00307591  0.74071058  0.13509593  1
  O  O242  1  0.99696589  0.74307449  0.63281282  1
  O  O243  1  -0.00596643  0.26030766  0.36494348  1
  O  O244  1  0.01226524  0.25769317  0.87163981  1
  O  O245  1  0.00384748  0.75716663  0.37028269  1
  O  O246  1  -0.00483554  0.76047447  0.86845802  1
  O  O247  1  0.50809281  0.24372004  0.36060367  1
  O  O248  1  0.50918214  0.26276592  0.87735421  1
  O  O249  1  0.49201135  0.74685849  0.36669062  1
  O  O250  1  0.51111877  0.74553520  0.88533089  1
  O  O251  1  0.24555266  0.12519862  0.49572650  1
  O  O252  1  0.24685999  0.13231826  0.99380755  1
  O  O253  1  0.24371290  0.62939645  0.48990268  1
  O  O254  1  0.24015110  0.63176508  1.00065660  1
  O  O255  1  0.74493317  0.13028357  0.49595416  1
  O  O256  1  0.74413725  0.12416744  0.99049914  1
  O  O257  1  0.74369149  0.63560796  0.50305440  1
  O  O258  1  0.74321252  0.62941939  0.99876679  1
  O  O259  1  0.25359605  0.37113211  0.00319740  1
  O  O260  1  0.24503833  0.37136027  0.51098251  1
  O  O261  1  0.24411456  0.87081381  0.01390969  1
  O  O262  1  0.25576272  0.87189517  0.50594438  1
  O  O263  1  0.75797488  0.37445950  0.00505484  1
  O  O264  1  0.75500141  0.37029236  0.50547121  1
  O  O265  1  0.75298456  0.86745135  0.00798691  1
  O  O266  1  0.75797074  0.87124405  0.50539255  1
  O  O267  1  0.13100331  0.49576847  0.24693507  1
  O  O268  1  0.12622800  0.50687823  0.73847918  1
  O  O269  1  0.13698854  1.00730631  0.25126449  1
  O  O270  1  0.14210693  0.99669987  0.75838772  1
  O  O271  1  0.62749190  0.48654771  0.25021586  1
  O  O272  1  0.62985876  0.50559549  0.73980851  1
  O  O273  1  0.63161984  0.99280202  0.24506640  1
  O  O274  1  0.62612433  0.99006441  0.74640148  1
  O  O275  1  0.36936533  0.00715053  0.25274199  1
  O  O276  1  0.36701762  -0.00583278  0.76453058  1
  O  O277  1  0.35451530  0.52243528  0.23408146  1
  O  O278  1  0.37024802  0.50129335  0.75633138  1
  O  O279  1  0.86887328  0.00503115  0.25760822  1
  O  O280  1  0.87316081  0.00823409  0.76014154  1
  O  O281  1  0.86049718  0.50186065  0.25216062  1
  O  O282  1  0.87344774  0.51471451  0.75514989  1
  O  O283  1  0.11183480  0.38237844  0.36142473  1
  O  O284  1  0.11825580  0.36613872  0.87862672  1
  O  O285  1  0.11115389  0.86705281  0.38118784  1
  O  O286  1  0.11166713  0.88064519  0.88015758  1
  O  O287  1  0.63622576  0.35780839  0.35537286  1
  O  O288  1  0.61356836  0.36580915  0.88045392  1
  O  O289  1  0.62616832  0.87958111  0.36211174  1
  O  O290  1  0.62632302  0.86780711  0.86538788  1
  O  O291  1  0.38055507  0.12794253  0.12862590  1
  O  O292  1  0.39080812  0.12843874  0.62290321  1
  O  O293  1  0.38112215  0.63647110  0.12444849  1
  O  O294  1  0.38830489  0.63206352  0.62058351  1
  O  O295  1  0.88095709  0.13231562  0.12867354  1
  O  O296  1  0.87463458  0.12434994  0.63775612  1
  O  O297  1  0.88903502  0.62768681  0.12399820  1
  O  O298  1  0.88165492  0.62425523  0.63473164  1
  O  O299  1  0.25352859  0.26089850  0.12112326  1
  O  O300  1  0.26172300  0.25848999  0.62176562  1
  O  O301  1  0.25307778  0.76621322  0.12291333  1
  O  O302  1  0.25468445  0.75546714  0.61827378  1
  O  O303  1  0.76430120  0.25514124  0.12287867  1
  O  O304  1  0.75141102  0.25618734  0.61829099  1
  O  O305  1  0.74554214  0.75758798  0.11665940  1
  O  O306  1  0.75532098  0.75305175  0.61577814  1
  O  O307  1  0.25577653  0.24565162  0.35680656  1
  O  O308  1  0.24875506  0.24603604  0.87648777  1
  O  O309  1  0.23887049  0.74737055  0.37644292  1
  O  O310  1  0.24914466  0.74230353  0.88589663  1
  O  O311  1  0.74496906  0.24479570  0.37966451  1
  O  O312  1  0.74314010  0.24131474  0.87939740  1
  O  O313  1  0.75184358  0.75385787  0.39287273  1
  O  O314  1  0.74177429  0.73984363  0.88343194  1
  O  O315  1  0.01140523  0.13158001  0.00946596  1
  O  O316  1  -0.00566575  0.10897633  0.50413831  1
  O  O317  1  0.00848383  0.62719274  0.00896316  1
  O  O318  1  0.00220144  0.61997170  0.50461689  1
  O  O319  1  0.50736684  0.11785230  0.00282764  1
  O  O320  1  0.50774236  0.11665559  0.50525975  1
  O  O321  1  0.50380918  0.61675661  0.00459682  1
  O  O322  1  0.51713571  0.63102293  0.51599853  1
  O  O323  1  0.55075107  0.39088508  0.48201528  1
  O  O324  1  0.49561554  0.38059314  1.00213265  1
  O  O325  1  0.49330767  0.88010563  0.50377790  1
  O  O326  1  0.50977380  0.88658579  1.00605543  1
  O  O327  1  0.99443830  0.37770245  0.49252167  1
  O  O328  1  0.99479152  0.37413955  0.99296252  1
  O  O329  1  0.99406205  0.88427790  0.49633749  1
  O  O330  1  0.98837622  0.86631553  0.99595633  1
  O  O331  1  0.48057544  0.53934666  0.38935965  1
  O  O332  1  0.50280845  0.48646694  0.88659129  1
  O  O333  1  0.50166261  0.99506875  0.38987411  1
  O  O334  1  0.48539625  1.00162053  0.88032388  1
  O  O335  1  0.99731012  0.49352633  0.38216119  1
  O  O336  1  1.00148453  0.49201823  0.88114545  1
  O  O337  1  0.99457736  0.99257250  0.38250188  1
  O  O338  1  0.98910933  0.99288445  0.87426974  1
  O  O339  1  -0.00324414  0.01573802  0.13057578  1
  O  O340  1  0.00005363  -0.00098726  0.61381777  1
  O  O341  1  -0.00136359  0.51546610  0.12446419  1
  O  O342  1  0.00612981  0.50412938  0.61953869  1
  O  O343  1  0.50575785  0.00473482  0.11699038  1
  O  O344  1  0.50694675  0.00832973  0.61807895  1
  O  O345  1  0.48884803  0.50620246  0.11546466  1
  O  O346  1  0.50691301  0.51018404  0.62146258  1
  O  O347  1  0.23725292  0.38707321  0.23839406  1
  O  O348  1  0.25234161  0.37644081  0.72947605  1
  O  O349  1  0.25120049  0.88758273  0.23792195  1
  O  O350  1  0.24572386  0.88083477  0.74229026  1
  O  O351  1  0.74438262  0.37929736  0.24016460  1
  O  O352  1  0.75971522  0.37406426  0.74090229  1
  O  O353  1  0.74400586  0.87796296  0.24620821  1
  O  O354  1  0.74001967  0.87608918  0.74992051  1
  O  O355  1  0.25915915  0.10887005  0.23927790  1
  O  O356  1  0.24897598  0.11711899  0.75818750  1
  O  O357  1  0.24534945  0.62311104  0.25036468  1
  O  O358  1  0.23980207  0.63106710  0.76596972  1
  O  O359  1  0.75687562  0.12063482  0.25333310  1
  O  O360  1  0.75751098  0.12033600  0.76336023  1
  O  O361  1  0.74430133  0.61438036  0.25153546  1
  O  O362  1  0.75756124  0.62912977  0.75974025  1
  O  O363  1  0.38388965  0.12055210  0.36209051  1
  O  O364  1  0.36588886  0.12523871  0.87696563  1
  O  O365  1  0.35304586  0.63458557  0.35955564  1
  O  O366  1  0.35431907  0.62604275  0.88445465  1
  O  O367  1  0.87098839  0.12172914  0.36918301  1
  O  O368  1  0.87131207  0.11833515  0.87529527  1
  O  O369  1  0.86520734  0.62059492  0.37090818  1
  O  O370  1  0.86690114  0.62535120  0.87191046  1
  O  O371  1  0.12873674  0.37073881  0.13384566  1
  O  O372  1  0.13281804  0.38460623  0.62174114  1
  O  O373  1  0.13175729  0.87674335  0.12724669  1
  O  O374  1  0.13805873  0.87058124  0.62284007  1
  O  O375  1  0.64146397  0.36331077  0.12728026  1
  O  O376  1  0.63676167  0.38476635  0.62588069  1
  O  O377  1  0.63654137  0.88036452  0.13326732  1
  O  O378  1  0.62335168  0.88151672  0.63675764  1
  O  O379  1  0.11094255  0.25954027  0.24627430  1
  O  O380  1  0.12801897  0.24293681  0.76111420  1
  O  O381  1  0.11212665  0.74776889  0.26200231  1
  O  O382  1  0.11104265  0.75426414  0.74762796  1
  O  O383  1  0.61969929  0.24984706  0.25294680  1
  O  O384  1  0.62977156  0.24435784  0.76120006  1
  O  O385  1  0.62573574  0.76480535  0.24528853  1
  O  O386  1  0.62523041  0.76211927  0.75955340  1
  O  O387  1  0.38716268  0.23842327  0.23886351  1
  O  O388  1  0.37713330  0.24724678  0.72725132  1
  O  O389  1  0.36875452  0.74183700  0.23774622  1
  O  O390  1  0.36805244  0.75323179  0.73671379  1
  O  O391  1  0.88302066  0.24750859  0.24280825  1
  O  O392  1  0.87872005  0.23400684  0.75296259  1
  O  O393  1  0.88547689  0.74797519  0.25506596  1
  O  O394  1  0.88275161  0.74028703  0.75112726  1
  O  O395  1  0.37290967  0.49188043  0.49485140  1
  O  O396  1  0.38306964  0.49264107  0.99282652  1
  O  O397  1  0.38298472  0.99154717  0.49962823  1
  O  O398  1  0.38287366  1.00223721  0.98570786  1
  O  O399  1  0.87936590  0.48883642  0.50091507  1
  O  O400  1  0.87863087  0.48700374  0.99977801  1
  O  O401  1  0.88048491  0.99286595  0.49646986  1
  O  O402  1  0.87115437  0.98555127  0.99481518  1
  O  O403  1  0.13086864  0.01720494  -0.00256235  1
  O  O404  1  0.11178047  -0.00105657  0.49962555  1
  O  O405  1  0.12626404  0.51505697  0.00241123  1
  O  O406  1  0.11761935  0.50625385  0.50450069  1
  O  O407  1  0.61972036  0.00858186  0.00063703  1
  O  O408  1  0.61883684  0.00221286  0.50898114  1
  O  O409  1  0.61777457  0.51161598  -0.00013298  1
  O  O410  1  0.63786085  0.52156271  0.51925867  1
  O  O411  1  0.36442928  0.36871137  0.11801645  1
  O  O412  1  0.37138878  0.36621207  0.62058901  1
  O  O413  1  0.37412619  0.86739035  0.12856369  1
  O  O414  1  0.36873784  0.86751890  0.61676229  1
  O  O415  1  0.87086889  0.36850599  0.11843458  1
  O  O416  1  0.86675114  0.37326217  0.61645813  1
  O  O417  1  0.86254410  0.87952673  0.11984558  1
  O  O418  1  0.87403192  0.87715108  0.61660555  1
  O  O419  1  0.11388733  0.12184932  0.40111274  1
  O  O420  1  0.13566170  0.13332989  0.88333241  1
  O  O421  1  0.13059455  0.63106108  0.37672659  1
  O  O422  1  0.13384735  0.62762068  0.89239197  1
  O  O423  1  0.63093464  0.13297915  0.37799229  1
  O  O424  1  0.63164137  0.12719914  0.87914465  1
  O  O425  1  0.62849202  0.62083407  0.39406090  1
  O  O426  1  0.62952922  0.63092000  0.88296985  1
