# generated using pymatgen
data_V85Zn86O256
_symmetry_space_group_name_H-M   'P 1'
_cell_length_a   16.94110999
_cell_length_b   16.93499505
_cell_length_c   16.94048712
_cell_angle_alpha   90.01756879
_cell_angle_beta   89.96858795
_cell_angle_gamma   89.99208776
_symmetry_Int_Tables_number   1
_chemical_formula_structural   V85Zn86O256
_chemical_formula_sum   'V85 Zn86 O256'
_cell_volume   4860.18432586
_cell_formula_units_Z   1
loop_
 _symmetry_equiv_pos_site_id
 _symmetry_equiv_pos_as_xyz
  1  'x, y, z'
loop_
 _atom_site_type_symbol
 _atom_site_label
 _atom_site_symmetry_multiplicity
 _atom_site_fract_x
 _atom_site_fract_y
 _atom_site_fract_z
 _atom_site_occupancy
  V  V0  1  0.75256618  0.87483683  0.13019975  1
  V  V1  1  0.50092512  -0.00066436  0.00056450  1
  V  V2  1  0.11913671  0.74944646  0.37983299  1
  V  V3  1  0.61605540  0.00474508  0.62676116  1
  V  V4  1  0.62278590  0.50102963  0.12589153  1
  V  V5  1  0.49918398  0.24704108  0.24979091  1
  V  V6  1  0.49947985  0.50199832  0.49151794  1
  V  V7  1  0.62492197  0.37254539  0.25010811  1
  V  V8  1  0.25261644  0.12723715  0.87177020  1
  V  V9  1  0.61955778  0.63392212  0.50132286  1
  V  V10  1  0.37358234  0.49742887  0.87389898  1
  V  V11  1  0.00083903  0.12740380  0.13099419  1
  V  V12  1  0.87520773  0.49294956  0.87643429  1
  V  V13  1  0.49616365  0.63721484  0.12783537  1
  V  V14  1  0.25216984  0.86044684  0.12360898  1
  V  V15  1  0.49867859  0.87123533  0.87441835  1
  V  V16  1  0.00080353  0.74326791  0.25187437  1
  V  V17  1  -0.00152282  0.49074637  0.50223644  1
  V  V18  1  0.62712347  0.87427628  0.75025297  1
  V  V19  1  0.12072821  0.36857361  0.24718854  1
  V  V20  1  -0.00404456  0.37083984  0.37013628  1
  V  V21  1  -0.00125728  0.74826556  0.74686340  1
  V  V22  1  0.12286260  0.50685604  0.12709004  1
  V  V23  1  0.00330591  0.37029163  0.87949465  1
  V  V24  1  0.37681150  0.64319350  0.24983297  1
  V  V25  1  0.74924535  0.37278788  0.62271169  1
  V  V26  1  0.75009236  0.24252288  0.49607381  1
  V  V27  1  0.62480626  -0.00109529  0.12677729  1
  V  V28  1  0.74595007  0.63120013  0.37316037  1
  V  V29  1  0.87965780  0.00037212  0.87611706  1
  V  V30  1  0.75312197  0.62273822  0.87397577  1
  V  V31  1  0.88047983  0.25319626  0.12087675  1
  V  V32  1  0.12351774  0.62992527  0.00184985  1
  V  V33  1  0.49886472  0.49982309  -0.00110605  1
  V  V34  1  0.25214403  0.62638916  0.87678683  1
  V  V35  1  0.50770146  0.86611781  0.37084675  1
  V  V36  1  0.75431748  0.37614783  0.11742073  1
  V  V37  1  0.75404368  0.74910543  -0.00130399  1
  V  V38  1  0.00497022  0.61682808  0.62541572  1
  V  V39  1  0.24799539  0.00277219  0.74567733  1
  V  V40  1  0.24513825  0.25045181  -0.00417721  1
  V  V41  1  0.24914525  0.37793113  0.12347808  1
  V  V42  1  0.37399934  0.37473336  -0.00106636  1
  V  V43  1  0.37560623  0.36819343  0.50076147  1
  V  V44  1  0.86769247  0.12998910  0.25513373  1
  V  V45  1  0.37573345  0.00187322  0.87040375  1
  V  V46  1  0.25445886  0.50118125  0.24934630  1
  V  V47  1  0.13645860  0.00270689  0.12982372  1
  V  V48  1  0.75343459  0.87139826  0.62261494  1
  V  V49  1  0.61672298  0.12452633  0.50277441  1
  V  V50  1  0.87968379  0.12540262  0.74722680  1
  V  V51  1  0.36152085  0.12239019  0.25383314  1
  V  V52  1  0.74860471  0.24275992  0.00152162  1
  V  V53  1  0.61953843  0.50317517  0.62322301  1
  V  V54  1  0.12496247  0.87773054  0.74190050  1
  V  V55  1  0.88881896  0.87271549  0.50322468  1
  V  V56  1  0.50313506  0.12346212  0.12174611  1
  V  V57  1  -0.00334164  0.49969846  0.00486806  1
  V  V58  1  0.24135858  0.37590768  0.61739859  1
  V  V59  1  0.13510860  0.25451708  0.38596146  1
  V  V60  1  0.62847159  0.74874342  0.87431767  1
  V  V61  1  0.49829088  0.74384822  0.74248014  1
  V  V62  1  0.00041105  0.00072192  0.00268607  1
  V  V63  1  0.26491870  0.87067412  0.62821915  1
  V  V64  1  0.62830610  0.24004959  0.37205218  1
  V  V65  1  0.74929256  0.50002417  0.25253769  1
  V  V66  1  0.75264251  -0.00009314  0.74960895  1
  V  V67  1  0.75459375  0.75136457  0.49890687  1
  V  V68  1  0.12517415  0.38323345  0.75024895  1
  V  V69  1  0.12046120  0.87940941  0.25403584  1
  V  V70  1  0.37487555  0.24867498  0.12432524  1
  V  V71  1  0.87819773  0.87466945  0.00133152  1
  V  V72  1  0.00886365  0.24776159  0.75297299  1
  V  V73  1  0.62413927  0.24228343  0.87940430  1
  V  V74  1  0.13030424  0.75226408  0.87647141  1
  V  V75  1  0.38040472  0.24278675  0.63264865  1
  V  V76  1  0.88131776  0.24527834  0.62231502  1
  V  V77  1  0.87755296  -0.00970431  0.37720663  1
  V  V78  1  0.37529224  0.00095744  0.37483543  1
  V  V79  1  0.12786215  0.61589997  0.50247066  1
  V  V80  1  0.62311889  0.37090222  0.75079101  1
  V  V81  1  0.12403418  0.12668854  -0.00915885  1
  V  V82  1  0.88369589  0.74075258  0.12440691  1
  V  V83  1  0.19009414  0.08060182  0.42714268  1
  V  V84  1  0.87441046  0.62490975  0.74264491  1
  Zn  Zn85  1  0.75078779  0.12212946  0.88094596  1
  Zn  Zn86  1  0.49609890  -0.00064850  0.50096892  1
  Zn  Zn87  1  0.37003719  0.86282424  0.00172932  1
  Zn  Zn88  1  0.37938445  0.61753482  0.74559906  1
  Zn  Zn89  1  0.37872721  0.73540463  0.61710096  1
  Zn  Zn90  1  0.74471422  0.00167948  0.26048499  1
  Zn  Zn91  1  0.87321451  0.50049352  0.37570240  1
  Zn  Zn92  1  0.24831961  0.50011100  0.74665680  1
  Zn  Zn93  1  0.00740024  0.02637399  0.51534076  1
  Zn  Zn94  1  0.00342449  0.87430179  0.87456001  1
  Zn  Zn95  1  0.62591725  0.62341991  -0.00133463  1
  Zn  Zn96  1  0.25104023  0.62560930  0.37645451  1
  Zn  Zn97  1  0.25007795  0.74556831  0.50431837  1
  Zn  Zn98  1  0.87886342  0.62237269  0.25061556  1
  Zn  Zn99  1  0.37526081  0.87124751  0.49614714  1
  Zn  Zn100  1  0.62086716  0.86101364  0.24902192  1
  Zn  Zn101  1  0.74979737  0.49843573  0.74834814  1
  Zn  Zn102  1  0.50035774  0.37202991  0.87275823  1
  Zn  Zn103  1  0.50193944  0.23481208  0.74982566  1
  Zn  Zn104  1  0.37486344  0.49855722  0.37297757  1
  Zn  Zn105  1  0.49882775  0.37166352  0.37430719  1
  Zn  Zn106  1  0.86969591  0.37583720  0.49611797  1
  Zn  Zn107  1  0.18472009  0.19110370  0.18533319  1
  Zn  Zn108  1  0.19882687  0.19824387  0.69136725  1
  Zn  Zn109  1  0.18320269  0.68507823  0.19411092  1
  Zn  Zn110  1  0.18862294  0.68475642  0.68940320  1
  Zn  Zn111  1  0.68758896  0.18495040  0.18330056  1
  Zn  Zn112  1  0.69032429  0.18549924  0.68883576  1
  Zn  Zn113  1  0.69205630  0.68543189  0.18215582  1
  Zn  Zn114  1  0.68829614  0.68755302  0.68444316  1
  Zn  Zn115  1  0.31294787  0.31484089  0.31130291  1
  Zn  Zn116  1  0.31159399  0.31242105  0.81040713  1
  Zn  Zn117  1  0.30259905  0.81882090  0.31600692  1
  Zn  Zn118  1  0.31458002  0.81281663  0.81331905  1
  Zn  Zn119  1  0.81125905  0.31086110  0.30929558  1
  Zn  Zn120  1  0.81177861  0.31185504  0.81231987  1
  Zn  Zn121  1  0.81335027  0.81220476  0.31346811  1
  Zn  Zn122  1  0.81636417  0.81258629  0.81118713  1
  Zn  Zn123  1  0.18702767  0.43646221  0.43722695  1
  Zn  Zn124  1  0.18462229  0.43930538  0.93632211  1
  Zn  Zn125  1  0.18524430  0.92134207  0.44009348  1
  Zn  Zn126  1  0.18712795  0.93823942  0.93851869  1
  Zn  Zn127  1  0.68288553  0.43585167  0.43575440  1
  Zn  Zn128  1  0.68776273  0.43325866  0.93752187  1
  Zn  Zn129  1  0.69053906  0.94099489  0.43722816  1
  Zn  Zn130  1  0.68869190  0.93783039  0.94149292  1
  Zn  Zn131  1  0.31717343  0.06046030  0.05958225  1
  Zn  Zn132  1  0.30785762  0.06127836  0.56122119  1
  Zn  Zn133  1  0.31282200  0.68354721  0.06073576  1
  Zn  Zn134  1  0.31505129  0.55807163  0.56577943  1
  Zn  Zn135  1  0.81255996  0.06273459  0.06624364  1
  Zn  Zn136  1  0.81111452  0.06136083  0.56041497  1
  Zn  Zn137  1  0.81373896  0.56139824  0.06062969  1
  Zn  Zn138  1  0.81110162  0.56134358  0.56144404  1
  Zn  Zn139  1  0.43775493  0.43930394  0.18668672  1
  Zn  Zn140  1  0.43951624  0.43392784  0.68404743  1
  Zn  Zn141  1  0.43220590  0.93574993  0.19420256  1
  Zn  Zn142  1  0.43595067  1.06237016  0.68874383  1
  Zn  Zn143  1  0.93655808  0.43818827  0.18672458  1
  Zn  Zn144  1  0.93677794  0.43460862  0.68783214  1
  Zn  Zn145  1  0.94055019  0.93765224  0.19087501  1
  Zn  Zn146  1  0.93786545  0.93455928  0.68424208  1
  Zn  Zn147  1  0.05079580  0.06283512  0.31164201  1
  Zn  Zn148  1  0.06728600  0.06175953  0.69235520  1
  Zn  Zn149  1  0.06199402  0.56103371  0.31585436  1
  Zn  Zn150  1  0.06178728  0.56121492  0.81605512  1
  Zn  Zn151  1  0.55733172  0.06006406  0.31115408  1
  Zn  Zn152  1  0.56831515  0.06099503  0.81837306  1
  Zn  Zn153  1  0.56370630  0.68633754  0.31242042  1
  Zn  Zn154  1  0.56582104  0.56017743  0.81243773  1
  Zn  Zn155  1  0.43463130  0.18770384  0.43742398  1
  Zn  Zn156  1  0.43837083  0.18584683  0.93620676  1
  Zn  Zn157  1  0.43245822  0.68564232  0.43912265  1
  Zn  Zn158  1  0.44001063  0.68457336  0.93440929  1
  Zn  Zn159  1  0.93671135  0.19266932  0.42907786  1
  Zn  Zn160  1  0.93569625  0.18743430  0.93896760  1
  Zn  Zn161  1  0.93557424  0.68530523  0.43845440  1
  Zn  Zn162  1  0.94172234  0.68411430  0.93386195  1
  Zn  Zn163  1  0.06221421  0.31389792  0.06164778  1
  Zn  Zn164  1  0.06518850  0.20086002  0.56552316  1
  Zn  Zn165  1  0.06383587  0.81356234  0.06553527  1
  Zn  Zn166  1  0.06499459  0.80564688  0.56933975  1
  Zn  Zn167  1  0.56376901  0.31334850  0.06146636  1
  Zn  Zn168  1  0.55995685  0.31183863  0.56197367  1
  Zn  Zn169  1  0.56674550  0.81438151  0.05881738  1
  Zn  Zn170  1  0.56234139  0.81841323  0.55904117  1
  O  O171  1  0.11778341  0.12038200  0.12078785  1
  O  O172  1  0.12619402  0.13776456  0.63486412  1
  O  O173  1  0.12892810  0.61480514  0.11785520  1
  O  O174  1  0.11533906  0.62508268  0.61792827  1
  O  O175  1  0.61153994  0.11647848  0.12729641  1
  O  O176  1  0.63184554  0.11601478  0.61685876  1
  O  O177  1  0.62039275  0.61258817  0.12164708  1
  O  O178  1  0.63197954  0.61363870  0.61543198  1
  O  O179  1  0.37694218  0.37577131  0.38427134  1
  O  O180  1  0.37702642  0.37871175  0.88175133  1
  O  O181  1  0.37938117  0.88396364  0.37309354  1
  O  O182  1  0.38376673  0.88224045  0.87661453  1
  O  O183  1  0.88182036  0.37584732  0.37325228  1
  O  O184  1  0.88186924  0.38720491  0.86913781  1
  O  O185  1  0.87789962  0.88429253  0.38239151  1
  O  O186  1  0.87719076  0.88089388  0.88380812  1
  O  O187  1  0.25020741  0.00873667  0.38108535  1
  O  O188  1  0.25783267  0.00481737  0.87095834  1
  O  O189  1  0.24805720  0.50032093  0.36017543  1
  O  O190  1  0.25838836  0.50610654  0.87491099  1
  O  O191  1  0.76831099  0.00088000  0.37561341  1
  O  O192  1  0.76060443  -0.00175757  0.87090458  1
  O  O193  1  0.74781744  0.50519534  0.36625241  1
  O  O194  1  0.75821964  0.50350072  0.87525062  1
  O  O195  1  0.23785111  0.49241011  0.13573010  1
  O  O196  1  0.25542238  0.48038166  0.63075708  1
  O  O197  1  0.23814218  1.00148309  0.12337025  1
  O  O198  1  0.25666760  0.99315899  0.64025224  1
  O  O199  1  0.74445849  0.49402159  0.12698123  1
  O  O200  1  0.74008344  0.48909280  0.62282967  1
  O  O201  1  0.74067727  0.99108153  0.12203987  1
  O  O202  1  0.74356687  0.99256849  0.63176132  1
  O  O203  1  0.00964155  0.38517295  0.25778601  1
  O  O204  1  0.00475450  0.36924583  0.75757272  1
  O  O205  1  0.01272275  0.86292883  0.24321966  1
  O  O206  1  0.00670995  0.86442112  0.75186385  1
  O  O207  1  0.50683697  0.36433126  0.24605178  1
  O  O208  1  0.51506437  0.37179855  0.75001982  1
  O  O209  1  0.50064487  0.87692870  0.26534983  1
  O  O210  1  0.51049159  0.86378311  0.76615125  1
  O  O211  1  0.49281550  0.13168730  0.24128214  1
  O  O212  1  0.50176399  0.12194021  0.75509755  1
  O  O213  1  0.48572303  0.62801488  0.24360018  1
  O  O214  1  0.50467404  0.64088098  0.75616296  1
  O  O215  1  0.98613874  0.12450353  0.23717132  1
  O  O216  1  0.98776243  0.13333754  0.75319681  1
  O  O217  1  0.99860952  0.63665292  0.25256797  1
  O  O218  1  0.99546393  0.62618030  0.74451471  1
  O  O219  1  0.36653964  0.25407098  0.00552730  1
  O  O220  1  0.38138543  0.26153033  0.50914357  1
  O  O221  1  0.37276950  0.74961709  -0.00592579  1
  O  O222  1  0.36859591  0.75269509  0.50175139  1
  O  O223  1  0.86666057  0.24749934  0.01258854  1
  O  O224  1  0.86506949  0.25407041  0.50618503  1
  O  O225  1  0.87624609  0.75358605  0.00543684  1
  O  O226  1  0.86465285  0.75841841  0.49701913  1
  O  O227  1  0.12620541  0.25876872  0.48424494  1
  O  O228  1  0.13736455  0.24262948  1.00659697  1
  O  O229  1  0.12285353  0.73683925  0.49517718  1
  O  O230  1  0.11649708  0.74121220  0.99114831  1
  O  O231  1  0.62843045  0.24360499  0.49280148  1
  O  O232  1  0.63517875  0.25691242  0.99188540  1
  O  O233  1  0.63337282  0.73980777  0.50810473  1
  O  O234  1  0.63525210  0.74739574  0.99113535  1
  O  O235  1  0.49622979  0.24122332  0.12715314  1
  O  O236  1  0.48558942  0.25343893  0.62795709  1
  O  O237  1  0.50737599  0.73557635  0.11638226  1
  O  O238  1  0.50261193  0.75811799  0.64078675  1
  O  O239  1  0.99186180  0.24181516  0.11798237  1
  O  O240  1  0.98495447  0.25895244  0.63668160  1
  O  O241  1  0.99254483  0.75184643  0.13318341  1
  O  O242  1  1.00240034  0.73537107  0.63952958  1
  O  O243  1  0.00921941  0.26610974  0.37244115  1
  O  O244  1  -0.01013299  0.26149980  0.86821652  1
  O  O245  1  0.00915979  0.74490640  0.36899166  1
  O  O246  1  0.01155966  0.74808051  0.86455833  1
  O  O247  1  0.50776058  0.24982047  0.36541189  1
  O  O248  1  0.50989011  0.25227355  0.87628393  1
  O  O249  1  0.49934340  0.76147245  0.37732552  1
  O  O250  1  0.51090727  0.75452713  0.87128044  1
  O  O251  1  0.24520776  0.13019855  0.49305367  1
  O  O252  1  0.24510409  0.13178200  0.99675129  1
  O  O253  1  0.23987012  0.62054144  0.49902184  1
  O  O254  1  0.23678170  0.62593498  0.98792342  1
  O  O255  1  0.74079982  0.13744931  0.50305933  1
  O  O256  1  0.75158198  0.13816520  1.00344459  1
  O  O257  1  0.74583609  0.63353567  0.49494592  1
  O  O258  1  0.75124777  0.63109834  0.99154736  1
  O  O259  1  0.25190421  0.36820092  0.00232979  1
  O  O260  1  0.25688054  0.37895006  0.51033035  1
  O  O261  1  0.24681316  0.87931566  0.01939680  1
  O  O262  1  0.24973749  0.87074778  0.51533964  1
  O  O263  1  0.74912340  0.36817560  0.01278981  1
  O  O264  1  0.74598176  0.36401012  0.50686856  1
  O  O265  1  0.75803644  0.86929584  0.00969247  1
  O  O266  1  0.75403595  0.86755189  0.50523471  1
  O  O267  1  0.12943827  0.49607407  0.24247585  1
  O  O268  1  0.12215219  0.48725056  0.75136353  1
  O  O269  1  0.11414503  0.99262608  0.24253539  1
  O  O270  1  0.13570838  0.98892353  0.75744267  1
  O  O271  1  0.63774912  0.49270934  0.23829808  1
  O  O272  1  0.62779577  0.49210793  0.74128691  1
  O  O273  1  0.62603639  0.99790585  0.23764719  1
  O  O274  1  0.63344908  0.99318709  0.74568051  1
  O  O275  1  0.37417280  0.00955624  0.26282076  1
  O  O276  1  0.36680257  0.00136660  0.76361547  1
  O  O277  1  0.36589928  0.50251367  0.24974546  1
  O  O278  1  0.37945310  0.49455653  0.76409563  1
  O  O279  1  0.87687751  0.00685825  0.26175769  1
  O  O280  1  0.87318561  0.00451659  0.75780168  1
  O  O281  1  0.86088335  0.50153966  0.24799123  1
  O  O282  1  0.87277823  0.50638289  0.75767540  1
  O  O283  1  0.12006165  0.36880025  0.36679990  1
  O  O284  1  0.11373584  0.37738861  0.86711499  1
  O  O285  1  0.12293107  0.86496833  0.36557836  1
  O  O286  1  0.12552282  0.86700133  0.86818228  1
  O  O287  1  0.62316369  0.36212567  0.36611084  1
  O  O288  1  0.62631251  0.36548396  0.86623373  1
  O  O289  1  0.61109198  0.88273469  0.37288089  1
  O  O290  1  0.62213622  0.86918008  0.87177810  1
  O  O291  1  0.38456454  0.12735023  0.13065332  1
  O  O292  1  0.37134714  0.13712375  0.62295351  1
  O  O293  1  0.38171466  0.62730197  0.13861101  1
  O  O294  1  0.37391397  0.62330058  0.63381551  1
  O  O295  1  0.88348529  0.13022498  0.12982834  1
  O  O296  1  0.86672376  0.13408262  0.63442394  1
  O  O297  1  0.87001971  0.63783371  0.12729473  1
  O  O298  1  0.88045230  0.61934278  0.63763761  1
  O  O299  1  0.25554869  0.25705357  0.11650122  1
  O  O300  1  0.26768669  0.26562717  0.62978010  1
  O  O301  1  0.24301922  0.75673950  0.12377573  1
  O  O302  1  0.25298445  0.75721378  0.62909513  1
  O  O303  1  0.75392123  0.25732453  0.11875522  1
  O  O304  1  0.75647671  0.25590993  0.61884256  1
  O  O305  1  0.76022752  0.75747876  0.11730014  1
  O  O306  1  0.74721664  0.76086643  0.61625217  1
  O  O307  1  0.23405892  0.25610306  0.36991683  1
  O  O308  1  0.25627960  0.24021267  0.88388354  1
  O  O309  1  0.23338869  0.74752092  0.37815019  1
  O  O310  1  0.23851168  0.74294128  0.86865533  1
  O  O311  1  0.74075253  0.25350148  0.38284284  1
  O  O312  1  0.74623490  0.25067504  0.88605588  1
  O  O313  1  0.75276517  0.74429951  0.38526763  1
  O  O314  1  0.74826781  0.74436195  0.87878368  1
  O  O315  1  0.00723149  0.12158867  0.00723156  1
  O  O316  1  -0.00725630  0.13877792  0.50645054  1
  O  O317  1  0.01290681  0.61294821  -0.00669540  1
  O  O318  1  0.00273383  0.61561243  0.50852293  1
  O  O319  1  0.49401665  0.11289823  0.00947655  1
  O  O320  1  0.51313713  0.12321457  0.49746176  1
  O  O321  1  0.50164936  0.61171912  0.00581825  1
  O  O322  1  0.51020206  0.61785682  0.49487834  1
  O  O323  1  0.49284877  0.38113044  0.49849370  1
  O  O324  1  0.49445175  0.38526561  1.00121003  1
  O  O325  1  0.49744914  0.87885153  0.48681199  1
  O  O326  1  0.49948942  0.87922078  0.98945297  1
  O  O327  1  0.99748488  0.38696797  0.49123361  1
  O  O328  1  1.00613365  0.38484788  0.99006484  1
  O  O329  1  0.98901413  0.86822121  0.51007736  1
  O  O330  1  0.99483129  0.88237860  1.00025483  1
  O  O331  1  0.50159444  0.49351477  0.38910491  1
  O  O332  1  0.49675584  0.49736167  0.88311402  1
  O  O333  1  0.49016160  0.99234580  0.37726933  1
  O  O334  1  0.49621587  0.99168739  0.88240559  1
  O  O335  1  0.99657866  0.49102429  0.38168094  1
  O  O336  1  0.99360906  0.49199540  0.88241433  1
  O  O337  1  0.97999393  1.01438512  0.38804526  1
  O  O338  1  0.98557380  0.99652664  0.88476866  1
  O  O339  1  0.00585222  0.00891289  0.11965423  1
  O  O340  1  0.00954074  -0.00711066  0.62412020  1
  O  O341  1  0.00721824  0.49532488  0.11438137  1
  O  O342  1  -0.00480203  0.50753664  0.61813587  1
  O  O343  1  0.50306531  0.00211284  0.12041949  1
  O  O344  1  0.51250858  -0.00232166  0.62416514  1
  O  O345  1  0.50733346  0.50611008  0.11929851  1
  O  O346  1  0.51476887  0.49107133  0.61472173  1
  O  O347  1  0.24262390  0.38172564  0.24288902  1
  O  O348  1  0.23980971  0.37600519  0.74683492  1
  O  O349  1  0.23274507  0.87088813  0.23660799  1
  O  O350  1  0.24510805  0.88199820  0.74722178  1
  O  O351  1  0.74418787  0.37944927  0.23948035  1
  O  O352  1  0.74025315  0.37454758  0.74168123  1
  O  O353  1  0.75258371  0.87879640  0.23835261  1
  O  O354  1  0.74779381  0.87839350  0.74256801  1
  O  O355  1  0.26301691  0.13117096  0.24187976  1
  O  O356  1  0.24591269  0.11860738  0.76469446  1
  O  O357  1  0.26071290  0.61822191  0.24889173  1
  O  O358  1  0.24754621  0.61854278  0.76437206  1
  O  O359  1  0.76498371  0.11732626  0.23621861  1
  O  O360  1  0.76146100  0.11708090  0.75447076  1
  O  O361  1  0.75095309  0.61629400  0.25732704  1
  O  O362  1  0.75847197  0.62362702  0.75514981  1
  O  O363  1  0.37890215  0.11867704  0.36492006  1
  O  O364  1  0.36416098  0.11378580  0.88521833  1
  O  O365  1  0.37284905  0.62032275  0.36130022  1
  O  O366  1  0.36768204  0.61554441  0.87052874  1
  O  O367  1  0.87181314  0.12807885  0.35732951  1
  O  O368  1  0.87250532  0.11652942  0.86963765  1
  O  O369  1  0.86082971  0.62196363  0.37324457  1
  O  O370  1  0.87224240  0.61418420  0.86652296  1
  O  O371  1  0.12768232  0.38369851  0.13026378  1
  O  O372  1  0.14114259  0.36720340  0.63283519  1
  O  O373  1  0.13242439  0.88389907  0.12996535  1
  O  O374  1  0.13491939  0.86668351  0.63937320  1
  O  O375  1  0.63142840  0.38280674  0.12966495  1
  O  O376  1  0.63361567  0.37613723  0.63030422  1
  O  O377  1  0.63424197  0.88084554  0.12647346  1
  O  O378  1  0.63403354  0.88378125  0.62942385  1
  O  O379  1  0.12468185  0.26528158  0.24956478  1
  O  O380  1  0.11141948  0.26071884  0.75207184  1
  O  O381  1  0.11699925  0.75342013  0.25792757  1
  O  O382  1  0.11865354  0.75504834  0.75800790  1
  O  O383  1  0.62123256  0.24974833  0.25443675  1
  O  O384  1  0.62670839  0.25486596  0.75846614  1
  O  O385  1  0.63057224  0.74837615  0.24880598  1
  O  O386  1  0.62082521  0.75428628  0.75528974  1
  O  O387  1  0.38094707  0.24582788  0.24301766  1
  O  O388  1  0.38067289  0.25468358  0.73716933  1
  O  O389  1  0.36650252  0.74097039  0.25401453  1
  O  O390  1  0.39305725  0.74928960  0.75493861  1
  O  O391  1  0.86842198  0.23739432  0.23741099  1
  O  O392  1  0.87863143  0.24235808  0.74449889  1
  O  O393  1  0.88348908  0.75083866  0.24226719  1
  O  O394  1  0.88627594  0.73786369  0.75837932  1
  O  O395  1  0.38362750  0.48955327  0.49817531  1
  O  O396  1  0.38429604  0.49284052  0.98669683  1
  O  O397  1  0.37465995  0.99985501  0.48804401  1
  O  O398  1  0.38533746  0.99175089  0.99261669  1
  O  O399  1  0.88179575  0.49630541  0.49772747  1
  O  O400  1  0.88668083  0.50502335  0.99203110  1
  O  O401  1  0.87415303  0.98971180  0.49355406  1
  O  O402  1  0.87834311  0.99570232  0.99577005  1
  O  O403  1  0.11939556  0.00794093  0.00814444  1
  O  O404  1  0.12754164  0.01686914  0.47875493  1
  O  O405  1  0.11912482  0.50643388  0.00834993  1
  O  O406  1  0.11502063  0.50865151  0.49497941  1
  O  O407  1  0.61189265  -0.00628174  0.01110039  1
  O  O408  1  0.62707217  0.00863217  0.50915944  1
  O  O409  1  0.61815680  0.49754558  0.00771623  1
  O  O410  1  0.61985006  0.50769378  0.50483039  1
  O  O411  1  0.36914146  0.37050788  0.11786343  1
  O  O412  1  0.37002480  0.36823826  0.61779150  1
  O  O413  1  0.35474441  0.87920080  0.12919609  1
  O  O414  1  0.36535138  0.86961280  0.62598821  1
  O  O415  1  0.86670607  0.36513685  0.13069714  1
  O  O416  1  0.86178304  0.36784916  0.62560196  1
  O  O417  1  0.87022241  0.87012685  0.11996238  1
  O  O418  1  0.86147733  0.87842966  0.61745391  1
  O  O419  1  0.12580703  0.13949947  0.36420790  1
  O  O420  1  0.13582109  0.12139771  0.89094716  1
  O  O421  1  0.12587860  0.62985068  0.38460091  1
  O  O422  1  0.13080314  0.63018736  0.88162531  1
  O  O423  1  0.62283735  0.13358159  0.37949705  1
  O  O424  1  0.63269147  0.13764441  0.87651986  1
  O  O425  1  0.63726129  0.62704743  0.38634507  1
  O  O426  1  0.63653803  0.62872197  0.87579175  1
