# generated using pymatgen
data_V85Zn86O256
_symmetry_space_group_name_H-M   'P 1'
_cell_length_a   16.95844464
_cell_length_b   16.95353929
_cell_length_c   16.96787473
_cell_angle_alpha   89.95815494
_cell_angle_beta   90.05466491
_cell_angle_gamma   90.01919567
_symmetry_Int_Tables_number   1
_chemical_formula_structural   V85Zn86O256
_chemical_formula_sum   'V85 Zn86 O256'
_cell_volume   4878.35618785
_cell_formula_units_Z   1
loop_
 _symmetry_equiv_pos_site_id
 _symmetry_equiv_pos_as_xyz
  1  'x, y, z'
loop_
 _atom_site_type_symbol
 _atom_site_label
 _atom_site_symmetry_multiplicity
 _atom_site_fract_x
 _atom_site_fract_y
 _atom_site_fract_z
 _atom_site_occupancy
  V  V0  1  0.00932683  -0.00224120  0.50403016  1
  V  V1  1  0.87733597  0.00094418  0.87505044  1
  V  V2  1  -0.00304955  0.87329706  0.37624115  1
  V  V3  1  0.75122723  0.87012425  0.12271537  1
  V  V4  1  0.12350064  0.61361761  0.50985319  1
  V  V5  1  0.13294176  0.37317735  0.23849734  1
  V  V6  1  0.50822050  0.00478039  0.49849636  1
  V  V7  1  0.25517830  0.12655815  0.87337150  1
  V  V8  1  0.50769018  0.76184488  0.76289855  1
  V  V9  1  0.37585389  0.75350056  0.62556893  1
  V  V10  1  0.74859413  0.64318037  0.87648429  1
  V  V11  1  0.24836681  0.26075172  0.00343702  1
  V  V12  1  0.87422156  0.12245703  0.25305014  1
  V  V13  1  0.00394168  0.37624060  0.87844884  1
  V  V14  1  0.62089481  0.12721479  -0.00022405  1
  V  V15  1  0.37571253  0.87463193  0.50007445  1
  V  V16  1  0.24217654  0.87895389  0.62326769  1
  V  V17  1  0.79407597  0.43204378  0.18266292  1
  V  V18  1  0.62662309  0.87083949  0.25130371  1
  V  V19  1  0.63815131  0.62935889  0.50025417  1
  V  V20  1  0.00860344  0.50970616  -0.00141660  1
  V  V21  1  0.00660796  0.12032817  0.62592164  1
  V  V22  1  0.48909052  0.24770584  0.75098475  1
  V  V23  1  0.00353817  0.87473836  0.87516671  1
  V  V24  1  0.87473747  0.74350746  0.12748360  1
  V  V25  1  0.12661562  0.12596185  0.00112867  1
  V  V26  1  0.25099309  0.62366447  0.89154221  1
  V  V27  1  0.87654241  0.63136565  0.73728630  1
  V  V28  1  0.61903820  0.25753539  0.87506720  1
  V  V29  1  0.73926183  0.12192024  0.37955115  1
  V  V30  1  0.25244053  0.12617229  0.38215023  1
  V  V31  1  0.74944830  0.12714060  0.87397198  1
  V  V32  1  0.36423216  0.86085961  0.00004139  1
  V  V33  1  0.25774286  0.37558796  0.63248918  1
  V  V34  1  0.62398802  0.63955925  -0.00594555  1
  V  V35  1  0.00016975  0.12331272  0.12643615  1
  V  V36  1  0.75575429  0.62377538  0.35464603  1
  V  V37  1  0.37105192  0.36954022  0.49504424  1
  V  V38  1  0.13436449  0.74947751  0.88809779  1
  V  V39  1  0.00234021  0.24763105  0.25191528  1
  V  V40  1  0.62089137  -0.00098517  0.12752014  1
  V  V41  1  0.25481459  0.00379889  0.74681537  1
  V  V42  1  0.74196490  0.50203321  0.75643284  1
  V  V43  1  0.49840710  0.12665379  0.62421181  1
  V  V44  1  0.54032938  -0.05569233  -0.04992322  1
  V  V45  1  0.87626297  0.86884572  0.00003234  1
  V  V46  1  0.37118745  0.25868805  0.12602325  1
  V  V47  1  0.36870675  0.12041015  0.24668148  1
  V  V48  1  0.87125639  0.37656575  0.49766311  1
  V  V49  1  0.49746379  0.12192728  0.12235602  1
  V  V50  1  0.00413828  0.37827402  0.37682487  1
  V  V51  1  0.12658234  0.88258166  0.25234051  1
  V  V52  1  0.62517580  0.38317765  0.25016899  1
  V  V53  1  0.07527319  0.43308411  0.69097997  1
  V  V54  1  0.62373796  0.49520822  0.11123421  1
  V  V55  1  0.12655400  0.74679978  0.37504668  1
  V  V56  1  0.87151217  0.24607747  0.62478204  1
  V  V57  1  0.87118102  0.50376462  0.87534333  1
  V  V58  1  0.87474828  0.12416546  0.75058672  1
  V  V59  1  0.86655236  0.37787166  -0.00078067  1
  V  V60  1  -0.00166986  0.73928083  0.25117637  1
  V  V61  1  0.73836612  0.24694631  0.50163672  1
  V  V62  1  0.36928135  0.62516410  0.74783382  1
  V  V63  1  0.49874061  0.62475858  0.62043995  1
  V  V64  1  0.61639122  0.37621757  0.74936156  1
  V  V65  1  0.25572389  0.87034558  0.13420168  1
  V  V66  1  0.00253574  0.00023576  0.00245716  1
  V  V67  1  0.13143782  0.25006705  0.38150497  1
  V  V68  1  0.49725729  0.62321107  0.12152575  1
  V  V69  1  0.87107783  0.24940235  0.12645538  1
  V  V70  1  0.00249445  0.74690363  0.74445286  1
  V  V71  1  0.12532176  0.25219017  0.86763223  1
  V  V72  1  0.25430243  0.49656018  0.24284367  1
  V  V73  1  0.62567604  -0.00322377  0.63462720  1
  V  V74  1  0.74968721  0.25190025  0.00339409  1
  V  V75  1  0.49277167  0.74772449  0.24763635  1
  V  V76  1  0.75295518  0.85992093  0.62697438  1
  V  V77  1  0.50186733  0.25113640  0.25200664  1
  V  V78  1  0.37259757  -0.00066181  0.88318502  1
  V  V79  1  0.50108243  0.87282792  0.37516796  1
  V  V80  1  0.36984229  -0.00256666  0.37092078  1
  V  V81  1  0.87381390  -0.00157247  0.38214216  1
  V  V82  1  0.25318622  0.62213332  0.37240363  1
  V  V83  1  0.38931040  0.37797255  -0.00823608  1
  V  V84  1  0.12808902  0.87819175  0.75051765  1
  Zn  Zn85  1  0.50270737  0.37958358  0.37727220  1
  Zn  Zn86  1  0.62261288  0.25037802  0.37664296  1
  Zn  Zn87  1  0.85985317  0.85162896  0.49850595  1
  Zn  Zn88  1  0.37939557  0.50100301  0.37344142  1
  Zn  Zn89  1  0.36585639  0.23916541  0.62158747  1
  Zn  Zn90  1  0.49965197  0.50188479  0.49532285  1
  Zn  Zn91  1  0.62472995  0.50002841  0.62283405  1
  Zn  Zn92  1  0.74741302  -0.00477597  0.75036941  1
  Zn  Zn93  1  0.87096974  0.49921396  0.36103277  1
  Zn  Zn94  1  0.13501733  0.51057972  0.11714671  1
  Zn  Zn95  1  0.75152784  -0.00150894  0.25182270  1
  Zn  Zn96  1  0.13463639  0.12486224  0.50857702  1
  Zn  Zn97  1  0.24687851  0.50225546  0.74743288  1
  Zn  Zn98  1  0.63294697  0.75166149  0.38179176  1
  Zn  Zn99  1  0.00012687  0.25156217  0.74780282  1
  Zn  Zn100  1  0.24769302  0.74780383  0.50106845  1
  Zn  Zn101  1  0.00179758  0.49852285  0.50931902  1
  Zn  Zn102  1  0.13301695  0.00301958  0.13179044  1
  Zn  Zn103  1  0.37502024  0.62559538  0.24444594  1
  Zn  Zn104  1  0.38494897  0.49758815  0.87139552  1
  Zn  Zn105  1  0.00545171  0.62836644  0.12299722  1
  Zn  Zn106  1  0.74450183  0.37524028  0.62498535  1
  Zn  Zn107  1  0.19019504  0.18712741  0.18979536  1
  Zn  Zn108  1  0.19030041  0.19070349  0.68856596  1
  Zn  Zn109  1  0.18651809  0.68716895  0.18418733  1
  Zn  Zn110  1  0.18685622  0.69340751  0.68774063  1
  Zn  Zn111  1  0.68815361  0.18775896  0.19058055  1
  Zn  Zn112  1  0.68127960  0.18288657  0.68693919  1
  Zn  Zn113  1  0.68315210  0.68874025  0.18182519  1
  Zn  Zn114  1  0.68260759  0.68770501  0.68992520  1
  Zn  Zn115  1  0.31252967  0.31086272  0.31320018  1
  Zn  Zn116  1  0.31139508  0.31470640  0.81235647  1
  Zn  Zn117  1  0.31092275  0.81044684  0.31099999  1
  Zn  Zn118  1  0.31597341  0.81232490  0.81419578  1
  Zn  Zn119  1  0.81487671  0.30540268  0.32027788  1
  Zn  Zn120  1  0.80848754  0.31443733  0.81331388  1
  Zn  Zn121  1  0.81148341  0.80776708  0.31267692  1
  Zn  Zn122  1  0.81433648  0.81607113  0.80313482  1
  Zn  Zn123  1  0.19438924  0.43690464  0.43734779  1
  Zn  Zn124  1  0.19052901  0.43848662  0.93259654  1
  Zn  Zn125  1  0.18725805  0.93786495  0.43739181  1
  Zn  Zn126  1  0.19043128  0.93725061  0.94256961  1
  Zn  Zn127  1  0.68630194  0.44345218  0.43458631  1
  Zn  Zn128  1  0.56164762  0.44223958  0.93437226  1
  Zn  Zn129  1  0.68731357  0.93525133  0.44295517  1
  Zn  Zn130  1  0.70258313  0.93498288  0.93694191  1
  Zn  Zn131  1  0.30881176  0.05871649  0.06268726  1
  Zn  Zn132  1  0.31882525  0.05920947  0.56150576  1
  Zn  Zn133  1  0.31728185  0.55783434  0.06465869  1
  Zn  Zn134  1  0.30938862  0.55635091  0.56012876  1
  Zn  Zn135  1  0.81103220  0.06046663  0.06282760  1
  Zn  Zn136  1  0.81209265  0.05980667  0.56126220  1
  Zn  Zn137  1  0.81313705  0.56942410  0.05330927  1
  Zn  Zn138  1  0.81102428  0.55886740  0.56446334  1
  Zn  Zn139  1  0.44022476  0.43972753  0.18622997  1
  Zn  Zn140  1  0.43661735  0.44027936  0.68786225  1
  Zn  Zn141  1  0.43664447  0.93506594  0.18455794  1
  Zn  Zn142  1  0.43523270  0.93944968  0.69044153  1
  Zn  Zn143  1  0.95909927  0.43502780  0.18443049  1
  Zn  Zn144  1  0.91252155  0.43893464  0.68684941  1
  Zn  Zn145  1  0.93945672  0.93549313  0.19052359  1
  Zn  Zn146  1  0.93546156  0.93513005  0.68579835  1
  Zn  Zn147  1  0.06235306  0.06294256  0.31819111  1
  Zn  Zn148  1  0.06597106  0.06249128  0.81131168  1
  Zn  Zn149  1  0.06782244  0.55913863  0.31140910  1
  Zn  Zn150  1  0.06147558  0.57158887  0.82097159  1
  Zn  Zn151  1  0.55818219  0.06028266  0.30952674  1
  Zn  Zn152  1  0.56181559  0.07016108  0.80855051  1
  Zn  Zn153  1  0.56712744  0.56200876  0.31292743  1
  Zn  Zn154  1  0.55860987  0.57410025  0.80870911  1
  Zn  Zn155  1  0.43746545  0.18752347  0.43849785  1
  Zn  Zn156  1  0.43637427  0.18810282  0.93810953  1
  Zn  Zn157  1  0.44002043  0.68890058  0.43709825  1
  Zn  Zn158  1  0.43877420  0.68196923  0.93551272  1
  Zn  Zn159  1  0.93673355  0.18664243  0.44027137  1
  Zn  Zn160  1  0.93844664  0.18948957  0.93824479  1
  Zn  Zn161  1  0.93401413  0.67630751  0.43402598  1
  Zn  Zn162  1  0.93728883  0.69205413  0.92989317  1
  Zn  Zn163  1  0.05962171  0.31192447  0.05947731  1
  Zn  Zn164  1  0.05917540  0.30535319  0.55828188  1
  Zn  Zn165  1  0.06543645  0.81362469  0.06812751  1
  Zn  Zn166  1  0.02207471  0.78120410  0.53930224  1
  Zn  Zn167  1  0.56459241  0.30951083  0.07057715  1
  Zn  Zn168  1  0.55672268  0.31556002  0.56480209  1
  Zn  Zn169  1  0.56186034  0.80646632  0.06593867  1
  Zn  Zn170  1  0.56466772  0.81278377  0.56611941  1
  O  O171  1  0.11926661  0.12445854  0.12116352  1
  O  O172  1  0.11075626  0.13321292  0.62601949  1
  O  O173  1  0.11866391  0.62278831  0.12605738  1
  O  O174  1  0.13316530  0.62859560  0.60772569  1
  O  O175  1  0.62180296  0.11607675  0.12087549  1
  O  O176  1  0.61207649  0.11112796  0.62614547  1
  O  O177  1  0.62390965  0.61794956  0.11081048  1
  O  O178  1  0.61680573  0.62512842  0.61600649  1
  O  O179  1  0.37587312  0.37358677  0.38586354  1
  O  O180  1  0.37550911  0.37342100  0.88855946  1
  O  O181  1  0.37905322  0.88104625  0.37805308  1
  O  O182  1  0.36826185  0.88138137  0.89144651  1
  O  O183  1  0.88314504  0.37554448  0.38240037  1
  O  O184  1  0.88483996  0.37968434  0.87947059  1
  O  O185  1  0.87693423  0.88198684  0.37908644  1
  O  O186  1  0.88052876  0.87955173  0.88255289  1
  O  O187  1  0.26407828  0.00450823  0.37685748  1
  O  O188  1  0.25481472  0.00834471  0.87218240  1
  O  O189  1  0.25249716  0.50701937  0.36328119  1
  O  O190  1  0.25102076  0.51447943  0.87101727  1
  O  O191  1  0.75641956  0.00546467  0.37782474  1
  O  O192  1  0.75774711  0.00842270  0.87245431  1
  O  O193  1  0.75341711  0.51641443  0.37649779  1
  O  O194  1  0.75565278  0.51088840  0.86275093  1
  O  O195  1  0.25080168  0.49961054  0.13709908  1
  O  O196  1  0.24718300  0.48233648  0.62632056  1
  O  O197  1  0.24631002  0.98370881  0.12081023  1
  O  O198  1  0.25901062  0.99376078  0.63674870  1
  O  O199  1  0.74607755  0.50119751  0.12108962  1
  O  O200  1  0.74915195  0.49752601  0.64205680  1
  O  O201  1  0.73806186  0.99166305  0.12536822  1
  O  O202  1  0.73352393  1.00619956  0.62630760  1
  O  O203  1  0.01091564  0.36547560  0.25786773  1
  O  O204  1  0.00462377  0.37971373  0.75199210  1
  O  O205  1  0.00828268  0.86829766  0.25807486  1
  O  O206  1  0.00914335  0.87301796  0.75683489  1
  O  O207  1  0.50771540  0.36679456  0.24992753  1
  O  O208  1  0.50974003  0.36728290  0.74438649  1
  O  O209  1  0.50706147  0.86851557  0.25304999  1
  O  O210  1  0.49425330  0.86092739  0.74660266  1
  O  O211  1  0.49072627  0.13159277  0.24384029  1
  O  O212  1  0.50172876  0.13651115  0.73967664  1
  O  O213  1  0.50426961  0.63266967  0.24197544  1
  O  O214  1  0.48620413  0.63664263  0.73994058  1
  O  O215  1  0.99467639  0.12942784  0.24777968  1
  O  O216  1  0.99311831  0.12474806  0.74352849  1
  O  O217  1  1.00199004  0.63627045  0.25242426  1
  O  O218  1  0.98883760  0.63435824  0.76014810  1
  O  O219  1  0.36884424  0.25837372  0.00576364  1
  O  O220  1  0.38018673  0.26410981  0.50342837  1
  O  O221  1  0.37907869  0.76344877  -0.00309888  1
  O  O222  1  0.37357052  0.75768960  0.50755897  1
  O  O223  1  0.87401117  0.25835022  0.00788015  1
  O  O224  1  0.86797039  0.25817044  0.50642329  1
  O  O225  1  0.88504703  0.76371726  0.00682879  1
  O  O226  1  0.91476231  0.75536042  0.50740406  1
  O  O227  1  0.12143064  0.24377736  0.48528467  1
  O  O228  1  0.13117526  0.24697897  0.99241762  1
  O  O229  1  0.12151000  0.73898434  0.48587396  1
  O  O230  1  0.12225239  0.75681717  0.98604504  1
  O  O231  1  0.63558944  0.25481957  0.50054327  1
  O  O232  1  0.62957160  0.24724289  0.99441319  1
  O  O233  1  0.61849364  0.73392403  0.49921604  1
  O  O234  1  0.63058106  0.73803542  1.00364192  1
  O  O235  1  0.49258369  0.24267345  0.13580157  1
  O  O236  1  0.50023608  0.24087459  0.63289163  1
  O  O237  1  0.50762616  0.73718478  0.13592929  1
  O  O238  1  0.48881464  0.74349546  0.62677166  1
  O  O239  1  0.99278635  0.24376556  0.13056174  1
  O  O240  1  0.98715579  0.24271912  0.62623251  1
  O  O241  1  0.99302513  0.75239025  0.13412878  1
  O  O242  1  1.02099823  0.75079565  0.64744026  1
  O  O243  1  0.00575229  0.25780413  0.37087027  1
  O  O244  1  0.00573909  0.25926401  0.87280009  1
  O  O245  1  0.00704451  0.75393544  0.36674177  1
  O  O246  1  0.01438727  0.75665689  0.86905069  1
  O  O247  1  0.50160918  0.24855122  0.36184643  1
  O  O248  1  0.50867926  0.24034929  0.86473418  1
  O  O249  1  0.50625254  0.75664022  0.36654357  1
  O  O250  1  0.49418939  0.74866512  0.86181812  1
  O  O251  1  0.25251634  0.11934226  0.48759171  1
  O  O252  1  0.24439405  0.13460892  0.99308634  1
  O  O253  1  0.24073895  0.62470552  0.49108449  1
  O  O254  1  0.25731614  0.62216017  0.98987722  1
  O  O255  1  0.75553646  0.13387753  0.49051564  1
  O  O256  1  0.74317230  0.12886986  0.99277650  1
  O  O257  1  0.73940777  0.62512641  0.50372269  1
  O  O258  1  0.74094538  0.62508457  0.98406079  1
  O  O259  1  0.25658930  0.36347603  -0.00489286  1
  O  O260  1  0.26332011  0.37571071  0.50922542  1
  O  O261  1  0.25887026  0.87184922  0.01017464  1
  O  O262  1  0.25567958  0.87542813  0.50785101  1
  O  O263  1  0.76585488  0.36753233  -0.00626826  1
  O  O264  1  0.75593173  0.36712668  0.49888838  1
  O  O265  1  0.76356234  0.87782441  0.01089133  1
  O  O266  1  0.74883293  0.87689653  0.51740515  1
  O  O267  1  0.13337709  0.48803234  0.24772535  1
  O  O268  1  0.12395444  0.50024562  0.75095090  1
  O  O269  1  0.12001753  0.98639421  0.25446825  1
  O  O270  1  0.13659066  0.98610142  0.75935169  1
  O  O271  1  0.62673007  0.48715834  0.24016638  1
  O  O272  1  0.62757560  0.49475395  0.75014126  1
  O  O273  1  0.62587865  0.98881762  0.24320114  1
  O  O274  1  0.62233596  1.00015131  0.73804649  1
  O  O275  1  0.38421734  0.00897186  0.25872477  1
  O  O276  1  0.36425967  -0.00726599  0.76726297  1
  O  O277  1  0.36857508  0.50155318  0.25170403  1
  O  O278  1  0.37141069  0.51101088  0.75141257  1
  O  O279  1  0.87479777  0.00335616  0.26310884  1
  O  O280  1  0.87441440  0.00721190  0.75842595  1
  O  O281  1  0.86650692  0.48094298  0.23953347  1
  O  O282  1  0.86656222  0.51081505  0.75882801  1
  O  O283  1  0.12100000  0.36790527  0.37075836  1
  O  O284  1  0.11298895  0.36772845  0.87977713  1
  O  O285  1  0.12187261  0.86639150  0.37055520  1
  O  O286  1  0.12657902  0.86659440  0.87132643  1
  O  O287  1  0.62455977  0.37200087  0.36492134  1
  O  O288  1  0.62076348  0.36294371  0.87012003  1
  O  O289  1  0.62168931  0.87456099  0.36664664  1
  O  O290  1  0.60407624  0.88663846  0.90146956  1
  O  O291  1  0.37737853  0.13011509  0.13013044  1
  O  O292  1  0.38986477  0.12367645  0.62264462  1
  O  O293  1  0.39289547  0.62017503  0.12309925  1
  O  O294  1  0.37705806  0.63318196  0.62753601  1
  O  O295  1  0.88032612  0.12653481  0.13230228  1
  O  O296  1  0.88133335  0.12985490  0.62977930  1
  O  O297  1  0.87900574  0.64072871  0.11656511  1
  O  O298  1  0.87394358  0.62037892  0.63862406  1
  O  O299  1  0.25950544  0.24495365  0.11564487  1
  O  O300  1  0.25087173  0.26553422  0.62896131  1
  O  O301  1  0.24619014  0.76968145  0.13021769  1
  O  O302  1  0.26033952  0.75956731  0.62267627  1
  O  O303  1  0.75851255  0.24177122  0.11608985  1
  O  O304  1  0.75645704  0.24537916  0.61870837  1
  O  O305  1  0.75835482  0.76224529  0.13042266  1
  O  O306  1  0.74709413  0.76100071  0.62957528  1
  O  O307  1  0.24290114  0.23945678  0.37113648  1
  O  O308  1  0.24352307  0.24500921  0.87976743  1
  O  O309  1  0.24214665  0.74334823  0.37674892  1
  O  O310  1  0.24199466  0.74061688  0.87441745  1
  O  O311  1  0.74729231  0.23919093  0.38449753  1
  O  O312  1  0.74211569  0.24522594  0.88194289  1
  O  O313  1  0.74975234  0.73290046  0.37244501  1
  O  O314  1  0.75301738  0.74165812  0.86998503  1
  O  O315  1  0.00589766  0.12088098  0.00552089  1
  O  O316  1  0.00019771  0.11767835  0.50931727  1
  O  O317  1  -0.00431975  0.61101857  -0.00830339  1
  O  O318  1  0.01805099  0.61379298  0.49146223  1
  O  O319  1  0.50797708  0.13282082  0.01041440  1
  O  O320  1  0.49712836  0.11518317  0.50577026  1
  O  O321  1  0.51484803  0.63093380  0.00562828  1
  O  O322  1  0.50561071  0.62418010  0.50694013  1
  O  O323  1  0.48756313  0.37924965  0.49992193  1
  O  O324  1  0.49306049  0.36792227  0.99899101  1
  O  O325  1  0.49542923  0.88012529  0.49386030  1
  O  O326  1  0.48717796  0.88142434  1.01365918  1
  O  O327  1  0.99353503  0.37607756  0.49232918  1
  O  O328  1  0.99037686  0.38146393  0.99302368  1
  O  O329  1  1.00640635  0.88698107  0.49005621  1
  O  O330  1  0.99662982  0.88228899  0.99623422  1
  O  O331  1  0.49746394  0.49822992  0.37511332  1
  O  O332  1  0.49732293  0.51023876  0.87598971  1
  O  O333  1  0.49289316  0.99477033  0.38113693  1
  O  O334  1  0.49292843  1.00440325  0.87857591  1
  O  O335  1  0.99586072  0.48542504  0.36941976  1
  O  O336  1  0.99575651  0.49413871  0.88284436  1
  O  O337  1  0.99181610  0.99536531  0.38225904  1
  O  O338  1  0.99687629  0.99469433  0.88134921  1
  O  O339  1  0.00268184  0.00605019  0.11988650  1
  O  O340  1  -0.00460143  0.00786513  0.61604391  1
  O  O341  1  0.00107180  0.50429742  0.10780535  1
  O  O342  1  0.00862844  0.48370298  0.63229702  1
  O  O343  1  0.51263136  0.00522959  0.13060074  1
  O  O344  1  0.50659141  0.00254696  0.61953383  1
  O  O345  1  0.51301162  0.50938699  0.12812484  1
  O  O346  1  0.49976867  0.51621567  0.62588930  1
  O  O347  1  0.24283059  0.38127371  0.25420785  1
  O  O348  1  0.25291273  0.38049103  0.73932579  1
  O  O349  1  0.24404839  0.87577313  0.24317713  1
  O  O350  1  0.24669196  0.88216988  0.74596636  1
  O  O351  1  0.74430981  0.36640041  0.24812633  1
  O  O352  1  0.73617915  0.38321231  0.75333384  1
  O  O353  1  0.74263297  0.87750722  0.24317058  1
  O  O354  1  0.74913673  0.87967739  0.73555804  1
  O  O355  1  0.26390767  0.12674605  0.25796506  1
  O  O356  1  0.24332170  0.11483248  0.75951476  1
  O  O357  1  0.25344346  0.61789691  0.25554544  1
  O  O358  1  0.25989945  0.62676842  0.75020656  1
  O  O359  1  0.75758073  0.12153636  0.25894677  1
  O  O360  1  0.75518310  0.12454129  0.75884183  1
  O  O361  1  0.74367369  0.62424555  0.25629533  1
  O  O362  1  0.75284240  0.62313981  0.75887934  1
  O  O363  1  0.37057159  0.11867509  0.36784178  1
  O  O364  1  0.36151460  0.11924448  0.88145349  1
  O  O365  1  0.36209283  0.62767506  0.37484195  1
  O  O366  1  0.36203461  0.62671203  0.86730639  1
  O  O367  1  0.86867964  0.11820586  0.37086186  1
  O  O368  1  0.87021092  0.12235771  0.87162612  1
  O  O369  1  0.86223240  0.61793289  0.37043804  1
  O  O370  1  0.86180711  0.62419517  0.87218319  1
  O  O371  1  0.11872250  0.37432481  0.13663874  1
  O  O372  1  0.12902343  0.36980321  0.62941382  1
  O  O373  1  0.13262382  0.87803718  0.13668051  1
  O  O374  1  0.14089992  0.87276021  0.63522177  1
  O  O375  1  0.62685440  0.38410495  0.13068818  1
  O  O376  1  0.62658604  0.37820702  0.63449007  1
  O  O377  1  0.63201047  0.87985389  0.12847729  1
  O  O378  1  0.63333677  0.88902644  0.62148776  1
  O  O379  1  0.12230385  0.25489529  0.25856162  1
  O  O380  1  0.12076166  0.24648611  0.76460473  1
  O  O381  1  0.11871111  0.75819669  0.26050250  1
  O  O382  1  0.12613735  0.76191838  0.76238072  1
  O  O383  1  0.61645287  0.25878542  0.24728012  1
  O  O384  1  0.61957020  0.25772516  0.75720954  1
  O  O385  1  0.61939721  0.76210952  0.24923328  1
  O  O386  1  0.60651745  0.74663801  0.74879589  1
  O  O387  1  0.38053887  0.24456124  0.24214759  1
  O  O388  1  0.38660885  0.25496762  0.74859594  1
  O  O389  1  0.38872050  0.74847059  0.25248070  1
  O  O390  1  0.37786136  0.74567379  0.74093777  1
  O  O391  1  0.88120075  0.24355784  0.24547624  1
  O  O392  1  0.87491396  0.24496358  0.74180828  1
  O  O393  1  0.88681155  0.75896394  0.23920904  1
  O  O394  1  0.88920246  0.74392972  0.75460298  1
  O  O395  1  0.37652624  0.48670806  0.49661888  1
  O  O396  1  0.37232822  0.47898274  1.00041837  1
  O  O397  1  0.38562107  0.99211082  0.49104807  1
  O  O398  1  0.37256584  0.99251428  0.98934429  1
  O  O399  1  0.87882818  0.48474721  0.50506613  1
  O  O400  1  0.88256615  0.49387996  0.99425660  1
  O  O401  1  0.88383385  1.00116867  0.48950937  1
  O  O402  1  0.88297221  0.99260862  0.99587705  1
  O  O403  1  0.11722804  0.00757319  0.00000128  1
  O  O404  1  0.11372161  0.00775194  0.49307304  1
  O  O405  1  0.11163244  0.49238328  -0.00146744  1
  O  O406  1  0.12546097  0.50922019  0.49627632  1
  O  O407  1  0.61497564  0.00247988  0.00421990  1
  O  O408  1  0.61180644  -0.00282076  0.50758248  1
  O  O409  1  0.62619304  0.50626849  0.00855197  1
  O  O410  1  0.62243152  0.51373754  0.50354182  1
  O  O411  1  0.38259784  0.36250047  0.11529390  1
  O  O412  1  0.36756958  0.37273439  0.61891609  1
  O  O413  1  0.36411068  0.87780642  0.11659948  1
  O  O414  1  0.36852615  0.86983621  0.61995672  1
  O  O415  1  0.86895387  0.37429515  0.12138046  1
  O  O416  1  0.86650549  0.36209560  0.61808425  1
  O  O417  1  0.86913819  0.87128877  0.11899243  1
  O  O418  1  0.85668976  0.88236391  0.62169778  1
  O  O419  1  0.13699821  0.13206423  0.37208353  1
  O  O420  1  0.13257762  0.13259897  0.88167467  1
  O  O421  1  0.13670243  0.62984807  0.37559847  1
  O  O422  1  0.13911595  0.63808551  0.87465774  1
  O  O423  1  0.63635571  0.12473442  0.36724157  1
  O  O424  1  0.63056612  0.13340850  0.88045146  1
  O  O425  1  0.63740077  0.62585950  0.38506033  1
  O  O426  1  0.63566620  0.62609029  0.88476189  1
