# generated using pymatgen
data_V85Zn86O256
_symmetry_space_group_name_H-M   'P 1'
_cell_length_a   16.94469043
_cell_length_b   16.94459289
_cell_length_c   16.94975793
_cell_angle_alpha   90.02329757
_cell_angle_beta   90.00312758
_cell_angle_gamma   90.02234085
_symmetry_Int_Tables_number   1
_chemical_formula_structural   V85Zn86O256
_chemical_formula_sum   'V85 Zn86 O256'
_cell_volume   4866.62865011
_cell_formula_units_Z   1
loop_
 _symmetry_equiv_pos_site_id
 _symmetry_equiv_pos_as_xyz
  1  'x, y, z'
loop_
 _atom_site_type_symbol
 _atom_site_label
 _atom_site_symmetry_multiplicity
 _atom_site_fract_x
 _atom_site_fract_y
 _atom_site_fract_z
 _atom_site_occupancy
  V  V0  1  0.24812259  0.36788409  0.62524865  1
  V  V1  1  0.74864534  0.50456032  0.76443280  1
  V  V2  1  0.86597402  0.62951930  0.24717880  1
  V  V3  1  0.74848769  0.37702510  0.12787233  1
  V  V4  1  0.37109077  0.76280526  0.12069642  1
  V  V5  1  0.49524054  0.62412254  0.11251097  1
  V  V6  1  0.49971732  0.87354820  0.37318843  1
  V  V7  1  0.55269768  0.84136496  0.82654862  1
  V  V8  1  0.62417663  -0.00709914  0.11583228  1
  V  V9  1  0.49781917  0.24366220  0.75054952  1
  V  V10  1  0.11828149  0.26278352  0.87936074  1
  V  V11  1  0.75775160  0.00199424  0.74867450  1
  V  V12  1  0.37522784  0.87479458  0.49722907  1
  V  V13  1  -0.00110191  0.87590385  0.37656264  1
  V  V14  1  0.25320422  0.74878834  0.50258578  1
  V  V15  1  0.12588873  0.62795204  0.00079804  1
  V  V16  1  0.62574503  0.12565702  0.49475706  1
  V  V17  1  0.87657509  0.24630748  0.12902781  1
  V  V18  1  0.87949600  0.00088358  0.87648380  1
  V  V19  1  0.87298923  0.37805317  -0.00529864  1
  V  V20  1  0.37671328  0.49956992  0.37535340  1
  V  V21  1  0.62455280  0.37191991  0.74952166  1
  V  V22  1  0.12611328  0.74845010  0.37397803  1
  V  V23  1  0.37652030  0.89961959  -0.02082213  1
  V  V24  1  0.62846555  0.50470074  0.62192382  1
  V  V25  1  -0.00974710  0.75140344  0.24850270  1
  V  V26  1  0.89200199  0.13755528  0.74821899  1
  V  V27  1  0.12458300  -0.00081040  0.12998626  1
  V  V28  1  0.36207596  0.11398804  0.76418120  1
  V  V29  1  0.37537216  0.00135656  0.37473228  1
  V  V30  1  0.62436834  0.74657280  0.39343727  1
  V  V31  1  0.12325566  0.49856489  0.62765226  1
  V  V32  1  -0.00749387  0.00066112  0.00647995  1
  V  V33  1  0.38652873  0.12862891  0.25203079  1
  V  V34  1  0.12353747  0.36746361  0.25669524  1
  V  V35  1  0.12939567  0.75394716  0.87149303  1
  V  V36  1  -0.00543142  0.62969167  0.12527891  1
  V  V37  1  0.12678909  0.12425345  -0.00340561  1
  V  V38  1  0.24408587  0.49479628  0.75045132  1
  V  V39  1  0.12497390  0.62416577  0.50091056  1
  V  V40  1  0.86874873  0.62480067  0.76727679  1
  V  V41  1  0.37746898  0.62352495  0.74544531  1
  V  V42  1  0.00410517  0.87682908  0.88098503  1
  V  V43  1  0.75016379  0.36854426  0.62637027  1
  V  V44  1  0.25176688  0.62602058  0.87540645  1
  V  V45  1  0.87475373  0.87055677  0.50355133  1
  V  V46  1  0.25202671  0.62502815  0.37609141  1
  V  V47  1  0.25093451  -0.00067422  0.24910080  1
  V  V48  1  0.12685417  -0.00267680  0.62399672  1
  V  V49  1  0.77410428  0.86404228  0.11743623  1
  V  V50  1  0.12375217  0.50182339  0.12476321  1
  V  V51  1  0.00252830  0.75584957  0.75049364  1
  V  V52  1  0.62877017  0.00209025  0.62554620  1
  V  V53  1  0.24922365  0.13854035  0.37504817  1
  V  V54  1  0.50528285  0.49478078  0.49434640  1
  V  V55  1  0.13210744  0.13393669  0.49468913  1
  V  V56  1  0.74405611  0.63187277  0.38852037  1
  V  V57  1  0.75276452  0.87666999  0.62765188  1
  V  V58  1  0.38011305  0.49985488  0.87665435  1
  V  V59  1  0.24979642  0.50247523  0.24930902  1
  V  V60  1  -0.00275345  0.62792016  0.62644542  1
  V  V61  1  0.86886526  0.50184850  0.37332830  1
  V  V62  1  0.38123737  0.37816295  -0.00146458  1
  V  V63  1  0.24548739  0.87277221  0.62927122  1
  V  V64  1  0.62480878  0.86966144  0.24162818  1
  V  V65  1  0.37210787  0.24347203  0.62338520  1
  V  V66  1  0.25157273  0.24721815  -0.00484799  1
  V  V67  1  0.62063426  0.50395905  0.11523707  1
  V  V68  1  0.40521105  0.76934922  0.63798393  1
  V  V69  1  0.62435740  0.24285860  0.87664068  1
  V  V70  1  0.62339768  0.24952558  0.36431079  1
  V  V71  1  0.49856580  0.61562169  0.61932158  1
  V  V72  1  0.25020257  0.37471507  0.12321014  1
  V  V73  1  0.75321708  0.24236527  0.49598190  1
  V  V74  1  0.86343326  0.74621123  0.62598277  1
  V  V75  1  -0.00314025  0.50405392  0.49838129  1
  V  V76  1  0.12830399  0.87460473  0.24854596  1
  V  V77  1  0.06550342  0.31587716  0.70277601  1
  V  V78  1  0.38460587  0.25239280  0.12851654  1
  V  V79  1  0.75508791  0.74262428  -0.01014651  1
  V  V80  1  0.00069150  0.00452786  0.49978989  1
  V  V81  1  0.87076310  0.37251442  0.50083725  1
  V  V82  1  0.50206950  0.11859446  0.11514344  1
  V  V83  1  -0.00597045  0.50232042  -0.00812071  1
  V  V84  1  0.37160269  0.36794770  0.49907345  1
  Zn  Zn85  1  0.00012616  0.12796880  0.13236355  1
  Zn  Zn86  1  -0.00316806  0.37750442  0.37133224  1
  Zn  Zn87  1  0.74180265  0.50323471  0.24921572  1
  Zn  Zn88  1  0.37656270  0.62721316  0.24756857  1
  Zn  Zn89  1  0.75039493  0.24560726  -0.00017620  1
  Zn  Zn90  1  0.49914215  0.74474303  0.24763145  1
  Zn  Zn91  1  0.62496330  0.11677675  -0.00587194  1
  Zn  Zn92  1  0.00078803  0.24528545  0.26371519  1
  Zn  Zn93  1  -0.00561463  0.37901623  0.86809906  1
  Zn  Zn94  1  0.00589877  0.13688251  0.62793920  1
  Zn  Zn95  1  0.62532587  0.62865488  -0.01697954  1
  Zn  Zn96  1  0.50130958  -0.00102556  0.50255840  1
  Zn  Zn97  1  0.24872979  0.76234862  0.00450210  1
  Zn  Zn98  1  0.75089444  0.00021746  0.25161983  1
  Zn  Zn99  1  0.85500026  0.01344550  0.38349108  1
  Zn  Zn100  1  0.86986079  0.12412687  0.26781606  1
  Zn  Zn101  1  0.49946869  0.12187064  0.62476986  1
  Zn  Zn102  1  0.19686036  0.94188087  0.78809067  1
  Zn  Zn103  1  0.61167721  0.37499691  0.24236987  1
  Zn  Zn104  1  0.49536752  0.36744627  0.36300788  1
  Zn  Zn105  1  0.75262153  0.12355694  0.87646534  1
  Zn  Zn106  1  0.50108655  0.37412187  0.87641464  1
  Zn  Zn107  1  0.19297704  0.18567591  0.18425774  1
  Zn  Zn108  1  0.19028196  0.18075489  0.68530047  1
  Zn  Zn109  1  0.18824999  0.68917074  0.18717838  1
  Zn  Zn110  1  0.18977633  0.68737299  0.68797563  1
  Zn  Zn111  1  0.69322477  0.18096396  0.18497689  1
  Zn  Zn112  1  0.69237464  0.18320171  0.68837472  1
  Zn  Zn113  1  0.68393209  0.69291118  0.18016837  1
  Zn  Zn114  1  0.68122670  0.69946387  0.81112049  1
  Zn  Zn115  1  0.31414357  0.31404489  0.30874961  1
  Zn  Zn116  1  0.31000788  0.30880522  0.81141585  1
  Zn  Zn117  1  0.31346420  0.81082116  0.30681161  1
  Zn  Zn118  1  0.32565277  0.80862294  0.81609478  1
  Zn  Zn119  1  0.80666885  0.31161601  0.31172887  1
  Zn  Zn120  1  0.81034231  0.31188418  0.81429594  1
  Zn  Zn121  1  0.79339553  0.83963972  0.32786683  1
  Zn  Zn122  1  0.81967062  0.81952815  0.81463817  1
  Zn  Zn123  1  0.19029880  0.43717827  0.43942336  1
  Zn  Zn124  1  0.18923664  0.43912712  0.93992238  1
  Zn  Zn125  1  0.18829985  0.94089157  0.43587099  1
  Zn  Zn126  1  0.19464793  0.94306467  0.95234073  1
  Zn  Zn127  1  0.68651928  0.43345828  0.43329240  1
  Zn  Zn128  1  0.68341812  0.43261435  0.94083645  1
  Zn  Zn129  1  0.68414865  0.92957817  0.44409525  1
  Zn  Zn130  1  0.69575415  0.93377036  0.94116458  1
  Zn  Zn131  1  0.31114724  0.06398457  0.06584432  1
  Zn  Zn132  1  0.31032182  0.05857318  0.56458592  1
  Zn  Zn133  1  0.31327252  0.56531256  0.06011672  1
  Zn  Zn134  1  0.31421475  0.55836316  0.56256020  1
  Zn  Zn135  1  0.80485773  0.06180466  0.06615591  1
  Zn  Zn136  1  0.82226311  0.06751245  0.56551633  1
  Zn  Zn137  1  0.80977949  0.56515316  0.06050327  1
  Zn  Zn138  1  0.80873880  0.56195648  0.56640071  1
  Zn  Zn139  1  0.44078676  0.44232916  0.18610770  1
  Zn  Zn140  1  0.43597653  0.43257736  0.68871107  1
  Zn  Zn141  1  0.44041615  0.93847140  0.18725741  1
  Zn  Zn142  1  0.45079180  0.94360557  0.70589747  1
  Zn  Zn143  1  0.93524752  0.44068405  0.18415718  1
  Zn  Zn144  1  0.92740811  0.44664483  0.68346189  1
  Zn  Zn145  1  0.93614319  0.94348213  0.19482219  1
  Zn  Zn146  1  0.94273580  0.93971403  0.68976210  1
  Zn  Zn147  1  0.05721269  0.06597800  0.31507157  1
  Zn  Zn148  1  0.08069548  0.06153380  0.82216961  1
  Zn  Zn149  1  0.06063916  0.56177989  0.31162411  1
  Zn  Zn150  1  0.06122587  0.56670371  0.81230714  1
  Zn  Zn151  1  0.56867611  0.05881324  0.31086609  1
  Zn  Zn152  1  0.56094173  0.05218062  0.80733495  1
  Zn  Zn153  1  0.56172625  0.56385650  0.30474392  1
  Zn  Zn154  1  0.55982380  0.56021738  0.80841978  1
  Zn  Zn155  1  0.44207740  0.18612539  0.43888071  1
  Zn  Zn156  1  0.43601859  0.18485700  0.93636487  1
  Zn  Zn157  1  0.44056034  0.68691801  0.44205222  1
  Zn  Zn158  1  0.44164428  0.69910915  0.93456895  1
  Zn  Zn159  1  0.94244862  0.19165315  0.43387341  1
  Zn  Zn160  1  0.94075964  0.18898058  0.94011616  1
  Zn  Zn161  1  0.93364412  0.68951608  0.43586812  1
  Zn  Zn162  1  0.93550633  0.69523253  0.94325559  1
  Zn  Zn163  1  0.05927664  0.31577771  0.06505835  1
  Zn  Zn164  1  0.06069556  0.31112879  0.53377803  1
  Zn  Zn165  1  0.06260985  0.81454126  0.06381700  1
  Zn  Zn166  1  0.06168469  0.81042987  0.56228408  1
  Zn  Zn167  1  0.56212080  0.31118691  0.06225222  1
  Zn  Zn168  1  0.56201402  0.31117134  0.56115331  1
  Zn  Zn169  1  0.55945943  0.81051860  0.04811927  1
  Zn  Zn170  1  0.58280613  0.79470772  0.65022157  1
  O  O171  1  0.12261577  0.11659668  0.12117348  1
  O  O172  1  0.12625636  0.11704220  0.61261997  1
  O  O173  1  0.11802770  0.62070442  0.12106907  1
  O  O174  1  0.11835717  0.62052711  0.61926209  1
  O  O175  1  0.61657089  0.11512688  0.12405754  1
  O  O176  1  0.62701330  0.11945369  0.61328734  1
  O  O177  1  0.61137383  0.62059241  0.12226926  1
  O  O178  1  0.61401930  0.60579958  0.62840184  1
  O  O179  1  0.37259086  0.37951167  0.38350715  1
  O  O180  1  0.37160447  0.38149313  0.88171264  1
  O  O181  1  0.37941947  0.87786534  0.37775842  1
  O  O182  1  0.36579698  0.89358642  0.87780578  1
  O  O183  1  0.86785452  0.38811127  0.38063289  1
  O  O184  1  0.87402588  0.37259070  0.89028606  1
  O  O185  1  0.89210453  0.86087268  0.38731044  1
  O  O186  1  0.88948112  0.89131297  0.87302283  1
  O  O187  1  0.25641950  0.00762528  0.36523725  1
  O  O188  1  0.18355087  0.01404398  0.86811196  1
  O  O189  1  0.25563735  0.50478074  0.36870852  1
  O  O190  1  0.25557176  0.50480355  0.86633483  1
  O  O191  1  0.75834037  -0.04825565  0.36387701  1
  O  O192  1  0.76166669  -0.00157305  0.86804995  1
  O  O193  1  0.75260310  0.51031725  0.37152747  1
  O  O194  1  0.74371979  0.49289626  0.86264075  1
  O  O195  1  0.24562334  0.49726818  0.13240790  1
  O  O196  1  0.24242167  0.49243477  0.63116741  1
  O  O197  1  0.24127413  1.00720020  0.14117599  1
  O  O198  1  0.23985917  0.98686776  0.61998625  1
  O  O199  1  0.74152559  0.49476576  0.12601980  1
  O  O200  1  0.74196936  0.49250750  0.63139905  1
  O  O201  1  0.74293761  0.98087986  0.12378826  1
  O  O202  1  0.75355788  0.99558989  0.62975024  1
  O  O203  1  0.01582626  0.38162409  0.24799662  1
  O  O204  1  -0.00140853  0.38207071  0.74809889  1
  O  O205  1  0.00605787  0.86808243  0.25847454  1
  O  O206  1  -0.00278468  0.86259954  0.76017612  1
  O  O207  1  0.49696108  0.37146046  0.24892042  1
  O  O208  1  0.50434171  0.36047148  0.74935859  1
  O  O209  1  0.50306297  0.87197192  0.26170578  1
  O  O210  1  0.47740890  0.83360735  0.69118067  1
  O  O211  1  0.48941879  0.12053856  0.24604673  1
  O  O212  1  0.49202795  0.13260709  0.74622794  1
  O  O213  1  0.49502668  0.62664824  0.23493732  1
  O  O214  1  0.48441196  0.61408390  0.73564957  1
  O  O215  1  0.99175956  0.12937476  0.24958168  1
  O  O216  1  0.99519357  0.12279007  0.75218347  1
  O  O217  1  0.99198876  0.63139061  0.24447976  1
  O  O218  1  0.98893944  0.63200761  0.74601787  1
  O  O219  1  0.36844859  0.25531679  0.00513980  1
  O  O220  1  0.37979389  0.26016115  0.50677390  1
  O  O221  1  0.36858264  0.75090806  0.01146571  1
  O  O222  1  0.37422909  0.75739695  0.51261896  1
  O  O223  1  0.87585883  0.26015778  0.01163366  1
  O  O224  1  0.86742429  0.26526971  0.49741119  1
  O  O225  1  0.85772726  0.74846806  0.00269665  1
  O  O226  1  0.88477436  0.75799357  0.51448660  1
  O  O227  1  0.13304707  0.23342084  0.50016702  1
  O  O228  1  0.13179915  0.24892306  0.99987074  1
  O  O229  1  0.13034805  0.74251555  0.49319097  1
  O  O230  1  0.12864059  0.74612702  0.99331634  1
  O  O231  1  0.63281396  0.24310428  0.49472585  1
  O  O232  1  0.62188769  0.24842118  0.98474041  1
  O  O233  1  0.62288700  0.75206927  0.48858011  1
  O  O234  1  0.64523834  0.74569939  1.01000784  1
  O  O235  1  0.48915854  0.24201361  0.12192892  1
  O  O236  1  0.49076294  0.24803613  0.63194336  1
  O  O237  1  0.48759010  0.74111690  0.12275259  1
  O  O238  1  0.50465885  0.72254450  0.60281373  1
  O  O239  1  0.98640335  0.25295410  0.12991172  1
  O  O240  1  1.01639097  0.25828778  0.63079148  1
  O  O241  1  1.00634111  0.73878464  0.13356327  1
  O  O242  1  0.99453529  0.74656488  0.63511619  1
  O  O243  1  0.00503402  0.26451527  0.37731780  1
  O  O244  1  0.00914722  0.26221334  0.88249221  1
  O  O245  1  0.00809665  0.75283270  0.36779411  1
  O  O246  1  0.00624799  0.75805449  0.87217367  1
  O  O247  1  0.51867652  0.24971858  0.38122925  1
  O  O248  1  0.50416280  0.25038767  0.86581998  1
  O  O249  1  0.50766293  0.75403449  0.37458159  1
  O  O250  1  0.48312311  0.77394048  0.85849282  1
  O  O251  1  0.23976378  0.11708006  0.49051899  1
  O  O252  1  0.23989637  0.13564131  1.00878829  1
  O  O253  1  0.24638276  0.62876470  0.49671112  1
  O  O254  1  0.24067543  0.62403985  0.99072577  1
  O  O255  1  0.74701933  0.13812697  0.51029010  1
  O  O256  1  0.74423334  0.12730486  0.99514027  1
  O  O257  1  0.75512401  0.62562285  0.48744210  1
  O  O258  1  0.74804205  0.63655329  0.99797151  1
  O  O259  1  0.25787445  0.36940861  0.00694443  1
  O  O260  1  0.25650228  0.37922036  0.51428425  1
  O  O261  1  0.26791147  0.87787008  0.00262235  1
  O  O262  1  0.25868549  0.86799265  0.49861810  1
  O  O263  1  0.75654792  0.37261740  0.01019115  1
  O  O264  1  0.75360436  0.36827172  0.50641273  1
  O  O265  1  0.75405836  0.86545971  0.01291465  1
  O  O266  1  0.76822993  0.87636531  0.51146022  1
  O  O267  1  0.13462023  0.49661474  0.24528700  1
  O  O268  1  0.13598837  0.50651031  0.74494343  1
  O  O269  1  0.12966067  0.99700678  0.24774458  1
  O  O270  1  0.11084539  0.99835851  0.72650102  1
  O  O271  1  0.62465848  0.49785332  0.23377156  1
  O  O272  1  0.63053799  0.49082724  0.74155543  1
  O  O273  1  0.62667898  0.98466459  0.24300803  1
  O  O274  1  0.64459164  1.01291671  0.73253057  1
  O  O275  1  0.36811267  0.00737655  0.25393882  1
  O  O276  1  0.37116728  0.01637484  0.73892487  1
  O  O277  1  0.36135091  0.50068968  0.25402280  1
  O  O278  1  0.36296526  0.50344310  0.75256393  1
  O  O279  1  0.87267581  -0.00016625  0.26451744  1
  O  O280  1  0.87715175  0.00902549  0.75825328  1
  O  O281  1  0.87211864  0.50973711  0.25953439  1
  O  O282  1  0.86389770  0.51684318  0.74764010  1
  O  O283  1  0.12805397  0.38314708  0.35898254  1
  O  O284  1  0.12289115  0.36818063  0.87897982  1
  O  O285  1  0.11529053  0.86934818  0.37259358  1
  O  O286  1  0.12248864  0.86148029  0.87316998  1
  O  O287  1  0.62248519  0.36122682  0.36956792  1
  O  O288  1  0.62171452  0.36471326  0.86692526  1
  O  O289  1  0.61507132  0.86319593  0.37068151  1
  O  O290  1  0.61483233  0.86303765  0.90137589  1
  O  O291  1  0.38248267  0.13173594  0.13276178  1
  O  O292  1  0.37352444  0.13567908  0.62348564  1
  O  O293  1  0.38439275  0.62875719  0.12314721  1
  O  O294  1  0.38137210  0.62735306  0.62914919  1
  O  O295  1  0.87451191  0.14206934  0.12047216  1
  O  O296  1  0.88787517  0.12507312  0.64133687  1
  O  O297  1  0.88286524  0.62083806  0.13640018  1
  O  O298  1  0.87829264  0.63198320  0.63105393  1
  O  O299  1  0.26075220  0.25535073  0.11630153  1
  O  O300  1  0.25794208  0.25766729  0.62924508  1
  O  O301  1  0.26559705  0.74326847  0.12386785  1
  O  O302  1  0.24752053  0.75634699  0.61473316  1
  O  O303  1  0.75898552  0.25876541  0.12228035  1
  O  O304  1  0.74448751  0.26294256  0.61886584  1
  O  O305  1  0.75502988  0.75970986  0.11851607  1
  O  O306  1  0.76280586  0.76118472  0.63408131  1
  O  O307  1  0.25401318  0.23789410  0.37106620  1
  O  O308  1  0.24223190  0.25662927  0.88976467  1
  O  O309  1  0.24664153  0.74431981  0.38140063  1
  O  O310  1  0.24445887  0.74363165  0.87454246  1
  O  O311  1  0.73716279  0.25590581  0.38654014  1
  O  O312  1  0.73863812  0.24522868  0.87528826  1
  O  O313  1  0.73320517  0.74729247  0.37303760  1
  O  O314  1  0.75386827  0.75720875  0.88295216  1
  O  O315  1  0.00771655  0.11731496  0.00773626  1
  O  O316  1  0.01352882  0.11943539  0.50293230  1
  O  O317  1  0.00384514  0.62273870  0.00762020  1
  O  O318  1  0.00332726  0.62191483  0.50497606  1
  O  O319  1  0.50109112  0.12671015  0.01214519  1
  O  O320  1  0.51103783  0.11991075  0.50421597  1
  O  O321  1  0.50134150  0.63288346  0.00836649  1
  O  O322  1  0.49037892  0.60222719  0.50412010  1
  O  O323  1  0.49035505  0.38110685  0.49724169  1
  O  O324  1  0.48478206  0.37083991  0.99778654  1
  O  O325  1  0.48424907  0.87708068  0.48703247  1
  O  O326  1  0.47245497  0.87009043  1.00097872  1
  O  O327  1  0.98747704  0.38750817  0.49814356  1
  O  O328  1  0.99100043  0.38854167  1.00451469  1
  O  O329  1  0.99535833  0.88014924  0.49486817  1
  O  O330  1  1.00700528  0.88382488  0.98926012  1
  O  O331  1  0.49454405  0.49687066  0.37909898  1
  O  O332  1  0.48300221  0.49292175  0.86465273  1
  O  O333  1  0.49454099  0.99053512  0.37579107  1
  O  O334  1  0.52013671  0.94154724  0.80293909  1
  O  O335  1  0.98785432  0.50093449  0.37986200  1
  O  O336  1  1.00541153  0.49993313  0.88841790  1
  O  O337  1  1.00323102  0.98955312  0.38738609  1
  O  O338  1  0.99973027  0.99452550  0.88470288  1
  O  O339  1  0.00556305  0.00136363  0.12104216  1
  O  O340  1  0.00625182  -0.00318946  0.61007991  1
  O  O341  1  0.00473493  0.51334207  0.12046526  1
  O  O342  1  0.00472813  0.50856294  0.61978725  1
  O  O343  1  0.50933891  0.00892431  0.13054956  1
  O  O344  1  0.51610511  0.00015456  0.62385541  1
  O  O345  1  0.50247282  0.51492639  0.11977940  1
  O  O346  1  0.50353929  0.49886729  0.61703613  1
  O  O347  1  0.24144998  0.38253822  0.24422856  1
  O  O348  1  0.25398864  0.38265460  0.73779539  1
  O  O349  1  0.23959759  0.88574928  0.25874231  1
  O  O350  1  0.25371806  0.86388922  0.73564637  1
  O  O351  1  0.74559223  0.37812868  0.23632579  1
  O  O352  1  0.74691198  0.38085631  0.74268322  1
  O  O353  1  0.73915790  0.86751782  0.22878684  1
  O  O354  1  0.76514958  0.89194974  0.74104819  1
  O  O355  1  0.25780143  0.11933798  0.25768769  1
  O  O356  1  0.26297277  0.12936168  0.75312151  1
  O  O357  1  0.25003528  0.61696311  0.25682753  1
  O  O358  1  0.25847708  0.61572739  0.75301059  1
  O  O359  1  0.75709753  0.11405211  0.24457542  1
  O  O360  1  0.76671093  0.11588350  0.75088586  1
  O  O361  1  0.75813842  0.62984234  0.25348746  1
  O  O362  1  0.76064032  0.62208216  0.75586696  1
  O  O363  1  0.37114806  0.12216267  0.36955432  1
  O  O364  1  0.37782495  0.12078560  0.86367951  1
  O  O365  1  0.36871497  0.61859462  0.37502230  1
  O  O366  1  0.37305718  0.61967366  0.86631732  1
  O  O367  1  0.86950808  0.12510741  0.38558450  1
  O  O368  1  0.88029128  0.11531492  0.86819093  1
  O  O369  1  0.86622981  0.62129894  0.36788323  1
  O  O370  1  0.88280456  0.62695178  0.86455441  1
  O  O371  1  0.13088307  0.38386559  0.13212560  1
  O  O372  1  0.12659759  0.37412599  0.62822797  1
  O  O373  1  0.12096017  0.88973496  0.13247661  1
  O  O374  1  0.13606478  0.88051322  0.61418782  1
  O  O375  1  0.63093317  0.38162146  0.12116217  1
  O  O376  1  0.63032765  0.38004523  0.63064188  1
  O  O377  1  0.61354132  0.87938956  0.12993900  1
  O  O378  1  0.64559804  0.88503991  0.61666936  1
  O  O379  1  0.12698215  0.26563499  0.24158098  1
  O  O380  1  0.12705880  0.25140780  0.75903405  1
  O  O381  1  0.11842410  0.75487938  0.25525934  1
  O  O382  1  0.11364005  0.73982677  0.75878883  1
  O  O383  1  0.63135437  0.24595447  0.26295505  1
  O  O384  1  0.61822624  0.24969048  0.75631517  1
  O  O385  1  0.61871590  0.76101821  0.25046337  1
  O  O386  1  0.61781011  0.78563872  0.76120837  1
  O  O387  1  0.36919514  0.24077169  0.23922451  1
  O  O388  1  0.38097036  0.24251677  0.74308903  1
  O  O389  1  0.37676454  0.74674422  0.23718545  1
  O  O390  1  0.36424926  0.73573166  0.73472519  1
  O  O391  1  0.87596105  0.25573701  0.23812212  1
  O  O392  1  0.87717677  0.23588025  0.75846721  1
  O  O393  1  0.88757456  0.74397754  0.25787977  1
  O  O394  1  0.88156847  0.74089686  0.74660948  1
  O  O395  1  0.37933898  0.48596786  0.49602067  1
  O  O396  1  0.36589540  0.49090135  0.98796350  1
  O  O397  1  0.37470930  0.99181498  0.49245091  1
  O  O398  1  0.37559721  0.99820945  1.00154786  1
  O  O399  1  0.87516708  0.49660677  0.49070843  1
  O  O400  1  0.88370190  0.49296738  1.00733019  1
  O  O401  1  0.88470792  0.99154067  0.50029498  1
  O  O402  1  0.88700075  1.00733905  0.99563166  1
  O  O403  1  0.11600671  0.00841636  0.01417856  1
  O  O404  1  0.11944881  0.00608051  0.50510513  1
  O  O405  1  0.11808671  0.50717889  0.00672452  1
  O  O406  1  0.11879546  0.50421490  0.50656442  1
  O  O407  1  0.62731137  -0.00266810  0.01185999  1
  O  O408  1  0.62909504  0.00771474  0.50706774  1
  O  O409  1  0.62743083  0.50502007  0.01050160  1
  O  O410  1  0.61600183  0.48940559  0.50719741  1
  O  O411  1  0.36999685  0.36966789  0.11791264  1
  O  O412  1  0.36729398  0.36494315  0.61954289  1
  O  O413  1  0.37517717  0.86331674  0.12952688  1
  O  O414  1  0.36091193  0.87264054  0.61192653  1
  O  O415  1  0.86769375  0.37031701  0.11914821  1
  O  O416  1  0.86234522  0.38424213  0.61287916  1
  O  O417  1  0.87186329  0.87343700  0.12706198  1
  O  O418  1  0.87443729  0.86897660  0.62140389  1
  O  O419  1  0.13393639  0.11891325  0.38657676  1
  O  O420  1  0.11426854  0.14711481  0.89424965  1
  O  O421  1  0.13110097  0.62754689  0.38073215  1
  O  O422  1  0.12859752  0.63528827  0.88053267  1
  O  O423  1  0.62453584  0.13139024  0.38618674  1
  O  O424  1  0.62149707  0.12729026  0.87256336  1
  O  O425  1  0.62956047  0.63813400  0.37011101  1
  O  O426  1  0.61613000  0.63061509  0.86934713  1
