# generated using pymatgen
data_V85Zn86O256
_symmetry_space_group_name_H-M   'P 1'
_cell_length_a   16.94398369
_cell_length_b   16.93536200
_cell_length_c   16.94775948
_cell_angle_alpha   90.02848299
_cell_angle_beta   89.90706998
_cell_angle_gamma   90.03781593
_symmetry_Int_Tables_number   1
_chemical_formula_structural   V85Zn86O256
_chemical_formula_sum   'V85 Zn86 O256'
_cell_volume   4863.19385531
_cell_formula_units_Z   1
loop_
 _symmetry_equiv_pos_site_id
 _symmetry_equiv_pos_as_xyz
  1  'x, y, z'
loop_
 _atom_site_type_symbol
 _atom_site_label
 _atom_site_symmetry_multiplicity
 _atom_site_fract_x
 _atom_site_fract_y
 _atom_site_fract_z
 _atom_site_occupancy
  V  V0  1  0.11131212  0.25682802  0.37288763  1
  V  V1  1  0.68107110  0.70183493  0.82708836  1
  V  V2  1  0.75054178  0.25539578  0.00193196  1
  V  V3  1  0.00077439  0.61329279  0.12094940  1
  V  V4  1  0.61750168  -0.00044336  0.61777066  1
  V  V5  1  0.74717413  0.62405009  0.37113773  1
  V  V6  1  0.49975608  0.25081402  0.24851885  1
  V  V7  1  0.49732157  0.50058149  0.00263190  1
  V  V8  1  0.18432148  0.83021602  0.19163400  1
  V  V9  1  0.13053594  -0.00115424  0.63261093  1
  V  V10  1  0.24817482  0.12646168  0.37643018  1
  V  V11  1  0.37692682  0.63419669  0.25275084  1
  V  V12  1  0.37571077  0.37628528  0.50315193  1
  V  V13  1  0.49987633  0.87574386  0.38988685  1
  V  V14  1  0.49571334  -0.00684073  0.00040451  1
  V  V15  1  0.24892308  0.62694198  0.38250815  1
  V  V16  1  0.88011101  0.12857876  0.25263607  1
  V  V17  1  -0.00082295  0.38427596  0.87712956  1
  V  V18  1  0.00220385  0.87677409  0.87367891  1
  V  V19  1  0.11434764  0.37641849  0.24620547  1
  V  V20  1  0.00179012  0.87489442  0.37829855  1
  V  V21  1  0.87546071  0.00358971  0.87688530  1
  V  V22  1  0.50086142  0.86504368  0.87410672  1
  V  V23  1  0.62565845  0.12418252  -0.00161999  1
  V  V24  1  0.13898028  0.87329481  0.75357395  1
  V  V25  1  0.74760235  0.24849982  0.50279763  1
  V  V26  1  0.24828571  0.25220839  0.50062280  1
  V  V27  1  0.63279066  0.37485387  0.24479877  1
  V  V28  1  0.86997192  0.87217248  -0.00124323  1
  V  V29  1  0.75309265  0.38048112  0.62837581  1
  V  V30  1  -0.00319169  -0.00420885  0.51294620  1
  V  V31  1  0.11941025  0.60014420  0.00020984  1
  V  V32  1  0.88104222  0.49694417  0.37091685  1
  V  V33  1  0.11850972  0.12457110  0.50592969  1
  V  V34  1  0.88452913  0.37116975  0.49423719  1
  V  V35  1  0.75642487  0.87926880  0.61593327  1
  V  V36  1  0.37425090  0.50004227  0.37599675  1
  V  V37  1  0.37479287  0.12524082  0.24883255  1
  V  V38  1  0.63001106  0.37811275  0.75184462  1
  V  V39  1  0.49842656  0.37416784  0.88075886  1
  V  V40  1  0.87216853  0.25451502  0.12846270  1
  V  V41  1  0.12561071  0.12688470  0.00066877  1
  V  V42  1  0.62175252  0.50477994  0.62334823  1
  V  V43  1  0.86122588  0.50759532  0.86025883  1
  V  V44  1  0.11790430  0.62943063  0.50196835  1
  V  V45  1  0.37532926  0.26145038  0.12109169  1
  V  V46  1  0.12406654  0.74894362  0.88582054  1
  V  V47  1  0.24953437  0.49581055  0.24189584  1
  V  V48  1  0.37505607  0.49763015  0.87609082  1
  V  V49  1  0.62439360  0.25013115  0.37492179  1
  V  V50  1  0.25453330  0.25670603  -0.00200342  1
  V  V51  1  0.37134904  -0.00708808  0.87581880  1
  V  V52  1  0.63254504  0.49825930  0.12237410  1
  V  V53  1  0.00117127  0.13308729  0.12886362  1
  V  V54  1  0.49935762  0.63315316  0.12744860  1
  V  V55  1  0.12665979  0.00142452  0.12864573  1
  V  V56  1  0.74881805  0.87574499  0.12660002  1
  V  V57  1  0.87628123  0.38318809  0.00201121  1
  V  V58  1  0.87173329  0.74804284  0.12005898  1
  V  V59  1  0.00111216  0.75520032  0.24541116  1
  V  V60  1  0.13063621  0.75648913  0.37829125  1
  V  V61  1  0.74546667  0.00134709  0.74984090  1
  V  V62  1  0.12130849  0.50390036  0.62504227  1
  V  V63  1  0.87577237  -0.00650512  0.37778121  1
  V  V64  1  0.49498188  0.12335423  0.12303285  1
  V  V65  1  0.49648084  0.12219061  0.62123956  1
  V  V66  1  0.37061883  0.11981088  0.75094689  1
  V  V67  1  0.00066314  0.24733082  0.74768423  1
  V  V68  1  0.12381529  0.25056982  0.87448578  1
  V  V69  1  0.25163132  0.63235881  0.87883425  1
  V  V70  1  0.88032013  0.12067317  0.74317066  1
  V  V71  1  0.49864684  0.24973372  0.75124081  1
  V  V72  1  0.50104005  0.37556369  0.37532821  1
  V  V73  1  0.75657558  0.75597420  0.49351756  1
  V  V74  1  0.87691560  0.24699979  0.62668500  1
  V  V75  1  0.24890326  0.12042101  0.87492901  1
  V  V76  1  0.24596783  0.00050164  0.25347263  1
  V  V77  1  0.39077119  0.63208673  0.74599696  1
  V  V78  1  0.63440339  0.63936445  0.00066272  1
  V  V79  1  0.24989417  0.50303913  0.74756400  1
  V  V80  1  0.75007663  0.12478385  0.37488542  1
  V  V81  1  0.61920655  0.87155622  0.75197022  1
  V  V82  1  0.38027405  0.00027604  0.39004130  1
  V  V83  1  0.38441077  0.75062290  0.61533995  1
  V  V84  1  0.25289327  0.86659863  0.60902143  1
  Zn  Zn85  1  0.74929251  0.12640416  0.87534393  1
  Zn  Zn86  1  0.32211602  0.79683819  0.05479394  1
  Zn  Zn87  1  -0.02699456  0.61837594  0.63985383  1
  Zn  Zn88  1  0.62560004  -0.00015943  0.12652208  1
  Zn  Zn89  1  0.12473151  0.37648108  0.74883276  1
  Zn  Zn90  1  0.24758261  0.38357687  0.11895083  1
  Zn  Zn91  1  0.62398638  0.75155936  0.37247766  1
  Zn  Zn92  1  -0.00303280  0.74496715  0.74710462  1
  Zn  Zn93  1  0.61977163  0.87803964  0.24982159  1
  Zn  Zn94  1  0.24990106  0.37780010  0.62656153  1
  Zn  Zn95  1  0.87544007  0.62347672  0.24742091  1
  Zn  Zn96  1  -0.00032869  0.00291688  0.00359222  1
  Zn  Zn97  1  0.75180951  0.49894215  0.24646015  1
  Zn  Zn98  1  0.74918805  0.00055308  0.24963982  1
  Zn  Zn99  1  0.00197623  0.49657683  0.49636204  1
  Zn  Zn100  1  0.37142644  0.25139020  0.62784771  1
  Zn  Zn101  1  0.49876328  0.50804610  0.50480184  1
  Zn  Zn102  1  0.62202860  0.63294647  0.50460318  1
  Zn  Zn103  1  0.62733287  0.25012816  0.87517974  1
  Zn  Zn104  1  0.49922025  0.75834680  0.25002380  1
  Zn  Zn105  1  0.88285272  0.75471387  0.61527145  1
  Zn  Zn106  1  0.61724790  0.12435065  0.49797837  1
  Zn  Zn107  1  0.18928408  0.19236556  0.18844335  1
  Zn  Zn108  1  0.18700611  0.18628994  0.68795772  1
  Zn  Zn109  1  0.18404949  0.66366969  0.18846579  1
  Zn  Zn110  1  0.18504758  0.68909408  0.69068849  1
  Zn  Zn111  1  0.68895554  0.18554879  0.18612310  1
  Zn  Zn112  1  0.68547361  0.18719196  0.68840107  1
  Zn  Zn113  1  0.68627174  0.69114890  0.19099600  1
  Zn  Zn114  1  0.74849064  0.65750342  0.66240217  1
  Zn  Zn115  1  0.30911035  0.31365960  0.31263183  1
  Zn  Zn116  1  0.31272144  0.31420095  0.81192627  1
  Zn  Zn117  1  0.31900461  0.81367644  0.32562297  1
  Zn  Zn118  1  0.31547656  0.80938373  0.81221406  1
  Zn  Zn119  1  0.81387397  0.31152447  0.31272900  1
  Zn  Zn120  1  0.81351074  0.31335354  0.81636643  1
  Zn  Zn121  1  0.81498721  0.81129570  0.30851451  1
  Zn  Zn122  1  0.81575797  0.81707826  0.80504346  1
  Zn  Zn123  1  0.18696550  0.43897927  0.43654342  1
  Zn  Zn124  1  0.18947850  0.43571404  0.93315461  1
  Zn  Zn125  1  0.18570606  0.93847449  0.43850768  1
  Zn  Zn126  1  0.18882754  0.93464732  0.94316779  1
  Zn  Zn127  1  0.69211319  0.43682449  0.43792634  1
  Zn  Zn128  1  0.68750997  0.43784185  0.94044068  1
  Zn  Zn129  1  0.68384217  0.94015782  0.43630612  1
  Zn  Zn130  1  0.68660934  0.93466618  0.93839737  1
  Zn  Zn131  1  0.31386340  -0.03990983  0.06389791  1
  Zn  Zn132  1  0.30463286  0.06300237  0.56844666  1
  Zn  Zn133  1  0.32345765  0.59640500  0.05244849  1
  Zn  Zn134  1  0.31197103  0.56834589  0.56371838  1
  Zn  Zn135  1  0.81208692  0.06360658  0.06315568  1
  Zn  Zn136  1  0.81103682  0.06037089  0.56199908  1
  Zn  Zn137  1  0.81211202  0.56420290  0.05854515  1
  Zn  Zn138  1  0.81223546  0.55967665  0.54945324  1
  Zn  Zn139  1  0.44089702  0.44182571  0.18923482  1
  Zn  Zn140  1  0.43886339  0.43848839  0.68973143  1
  Zn  Zn141  1  0.43356446  0.93203536  0.19264526  1
  Zn  Zn142  1  0.43434054  0.93471167  0.68752730  1
  Zn  Zn143  1  0.93591844  0.43438998  0.18903539  1
  Zn  Zn144  1  0.93847835  0.43712881  0.68841624  1
  Zn  Zn145  1  0.93884257  0.93879435  0.19029758  1
  Zn  Zn146  1  0.93263344  0.91527329  0.69557580  1
  Zn  Zn147  1  0.06127163  0.06497032  0.31527427  1
  Zn  Zn148  1  0.06190614  0.06128115  0.81033887  1
  Zn  Zn149  1  0.06205346  0.56290654  0.30989185  1
  Zn  Zn150  1  0.05823346  0.56468773  0.81061065  1
  Zn  Zn151  1  0.56295565  0.05899521  0.31103967  1
  Zn  Zn152  1  0.55902561  0.05991418  0.81330165  1
  Zn  Zn153  1  0.56239153  0.56154907  0.31384361  1
  Zn  Zn154  1  0.56756292  0.55775246  0.81262124  1
  Zn  Zn155  1  0.43446058  0.18863304  0.43764823  1
  Zn  Zn156  1  0.43469674  0.18470924  0.93885907  1
  Zn  Zn157  1  0.44155744  0.68800103  0.44416821  1
  Zn  Zn158  1  0.43908593  0.68402908  0.93993519  1
  Zn  Zn159  1  0.93785026  0.18197659  0.44148065  1
  Zn  Zn160  1  0.93789886  0.18966610  0.93823755  1
  Zn  Zn161  1  0.93663231  0.68617395  0.43536304  1
  Zn  Zn162  1  0.93789332  0.68504268  0.93426206  1
  Zn  Zn163  1  0.06090687  0.31498987  0.06307075  1
  Zn  Zn164  1  0.06391239  0.31342048  0.56749607  1
  Zn  Zn165  1  0.05612613  0.81106837  0.05662850  1
  Zn  Zn166  1  0.06259760  0.81013534  0.56301402  1
  Zn  Zn167  1  0.56383898  0.31316750  0.06170340  1
  Zn  Zn168  1  0.56129397  0.31391368  0.56570739  1
  Zn  Zn169  1  0.55869813  0.81457280  0.06447874  1
  Zn  Zn170  1  0.56812591  0.81112821  0.56076466  1
  O  O171  1  0.11820157  0.12305922  0.12441444  1
  O  O172  1  0.13193128  0.11342734  0.61741183  1
  O  O173  1  0.11788007  0.62121432  0.10795561  1
  O  O174  1  0.13157384  0.61610678  0.61573259  1
  O  O175  1  0.61376232  0.12758727  0.11452423  1
  O  O176  1  0.61355991  0.11809199  0.62739823  1
  O  O177  1  0.61923747  0.61930451  0.11751369  1
  O  O178  1  0.64431807  0.60511821  0.62703745  1
  O  O179  1  0.37819586  0.38121341  0.38215075  1
  O  O180  1  0.38284749  0.38947588  0.86869401  1
  O  O181  1  0.38326022  0.89127651  0.37894045  1
  O  O182  1  0.38093971  0.88666160  0.86730620  1
  O  O183  1  0.87003930  0.38136464  0.38318692  1
  O  O184  1  0.88144306  0.38024168  0.88281189  1
  O  O185  1  0.88314157  0.88672560  0.37059268  1
  O  O186  1  0.88210611  0.88619038  0.88027903  1
  O  O187  1  0.25596515  0.00560762  0.37211032  1
  O  O188  1  0.25744552  0.01002961  0.88073780  1
  O  O189  1  0.25739880  0.50558907  0.36924513  1
  O  O190  1  0.25853327  0.50582299  0.86917821  1
  O  O191  1  0.75967477  0.00695200  0.37686446  1
  O  O192  1  0.75753447  0.00097168  0.86717929  1
  O  O193  1  0.75939706  0.50656068  0.37433590  1
  O  O194  1  0.76237853  0.49239160  0.87555984  1
  O  O195  1  0.25740124  0.50332109  0.14044324  1
  O  O196  1  0.24407579  0.50161730  0.63278240  1
  O  O197  1  0.23482351  1.00689206  0.13721664  1
  O  O198  1  0.24199334  0.98324477  0.62205222  1
  O  O199  1  0.73627639  0.50272315  0.12420109  1
  O  O200  1  0.74484120  0.48340121  0.61841871  1
  O  O201  1  0.75077184  0.99076108  0.12622622  1
  O  O202  1  0.73795923  1.00038067  0.63134416  1
  O  O203  1  0.01552719  0.37677854  0.25032302  1
  O  O204  1  0.00025884  0.36526625  0.75871912  1
  O  O205  1  -0.00263293  0.86395726  0.26008211  1
  O  O206  1  0.01900621  0.88379534  0.76620250  1
  O  O207  1  0.50814026  0.36930148  0.25610177  1
  O  O208  1  0.50528532  0.36844863  0.75951826  1
  O  O209  1  0.49844788  0.87672218  0.26522529  1
  O  O210  1  0.51036227  0.88046569  0.75770048  1
  O  O211  1  0.49695977  0.13102558  0.24182094  1
  O  O212  1  0.49239535  0.13274295  0.74572812  1
  O  O213  1  0.49333909  0.62620999  0.24595805  1
  O  O214  1  0.48862238  0.62104979  0.75327459  1
  O  O215  1  0.98887606  0.12452043  0.24549605  1
  O  O216  1  0.99019408  0.13183155  0.75336322  1
  O  O217  1  1.00401946  0.63799853  0.24031754  1
  O  O218  1  0.99673149  0.63148734  0.75037664  1
  O  O219  1  0.36694713  0.24708616  0.00836945  1
  O  O220  1  0.36501635  0.25771379  0.50169128  1
  O  O221  1  0.35464088  0.70206490  0.00908647  1
  O  O222  1  0.36835565  0.74147364  0.51699715  1
  O  O223  1  0.86763657  0.25441661  0.00701855  1
  O  O224  1  0.86921862  0.25191991  0.50553840  1
  O  O225  1  0.88263476  0.76116714  0.00649466  1
  O  O226  1  0.86260073  0.75189737  0.49502826  1
  O  O227  1  0.12814051  0.24592772  0.49425649  1
  O  O228  1  0.12984448  0.24559501  0.99401048  1
  O  O229  1  0.12410867  0.74221581  0.48879313  1
  O  O230  1  0.12320763  0.74708858  0.98803665  1
  O  O231  1  0.63225358  0.25038973  0.49627025  1
  O  O232  1  0.63287359  0.24421498  0.99923984  1
  O  O233  1  0.63845609  0.75059738  0.49273265  1
  O  O234  1  0.62402039  0.73811311  1.00554323  1
  O  O235  1  0.49376983  0.24624120  0.12762596  1
  O  O236  1  0.49709907  0.24591629  0.63872903  1
  O  O237  1  0.49955806  0.73688240  0.12655453  1
  O  O238  1  0.48376335  0.76084250  0.62197567  1
  O  O239  1  0.99148901  0.23880635  0.12227981  1
  O  O240  1  0.99452540  0.25355888  0.63931370  1
  O  O241  1  0.99245784  0.74614244  0.13020089  1
  O  O242  1  0.99917275  0.74059528  0.62325506  1
  O  O243  1  0.01334496  0.24646621  0.37967057  1
  O  O244  1  0.00343866  0.25479459  0.86513035  1
  O  O245  1  0.00743936  0.75578838  0.36702101  1
  O  O246  1  0.00588960  0.76095703  0.87415189  1
  O  O247  1  0.50469387  0.25457626  0.36946400  1
  O  O248  1  0.49830424  0.25660331  0.86771162  1
  O  O249  1  0.49569357  0.76692349  0.37712195  1
  O  O250  1  0.49135518  0.76563979  0.88219051  1
  O  O251  1  0.23894445  0.13241818  0.49674981  1
  O  O252  1  0.24182425  0.13982871  0.98525343  1
  O  O253  1  0.23884984  0.61822411  0.48743482  1
  O  O254  1  0.22905383  0.60873841  0.98864082  1
  O  O255  1  0.74849260  0.13647692  0.49613823  1
  O  O256  1  0.74148809  0.13226362  0.99945723  1
  O  O257  1  0.74440383  0.63359313  0.48818696  1
  O  O258  1  0.73296345  0.62352396  1.00082148  1
  O  O259  1  0.24541227  0.36304732  0.00165778  1
  O  O260  1  0.25938639  0.36938130  0.49949697  1
  O  O261  1  0.25264584  0.87837249  0.01191034  1
  O  O262  1  0.24666562  0.87088911  0.51046723  1
  O  O263  1  0.75699332  0.36222325  -0.00179465  1
  O  O264  1  0.75843556  0.36249077  0.50632379  1
  O  O265  1  0.76312603  0.88062508  0.00808054  1
  O  O266  1  0.74243551  0.87026410  0.50497927  1
  O  O267  1  0.13389059  0.48507271  0.25942932  1
  O  O268  1  0.13258245  0.50091487  0.74260165  1
  O  O269  1  0.13674638  1.00566681  0.24885840  1
  O  O270  1  0.12411071  0.99594305  0.73757555  1
  O  O271  1  0.62420940  0.49134208  0.24063387  1
  O  O272  1  0.62383357  0.48633360  0.74066135  1
  O  O273  1  0.63074016  0.99820071  0.24453302  1
  O  O274  1  0.63043119  0.99639822  0.74342249  1
  O  O275  1  0.36196992  0.00805429  0.25718441  1
  O  O276  1  0.37857182  0.01303315  0.75882773  1
  O  O277  1  0.36990141  0.50200730  0.26359004  1
  O  O278  1  0.37001950  0.51058700  0.75315666  1
  O  O279  1  0.87594833  0.00927128  0.26103881  1
  O  O280  1  0.86884665  0.00358808  0.75555517  1
  O  O281  1  0.87069945  0.49987970  0.25611185  1
  O  O282  1  0.87209877  0.49558480  0.76059583  1
  O  O283  1  0.12802012  0.36259453  0.36996435  1
  O  O284  1  0.11627417  0.36809495  0.87212337  1
  O  O285  1  0.11928892  0.86532734  0.37662014  1
  O  O286  1  0.12084235  0.87021471  0.87351397  1
  O  O287  1  0.62051729  0.36959092  0.36934998  1
  O  O288  1  0.61724301  0.37431497  0.86806141  1
  O  O289  1  0.60910314  0.88097833  0.37392206  1
  O  O290  1  0.61464055  0.88403434  0.86464552  1
  O  O291  1  0.38850426  0.13733360  0.13131449  1
  O  O292  1  0.37711709  0.12630910  0.63442519  1
  O  O293  1  0.38882281  0.60975336  0.14437294  1
  O  O294  1  0.37019069  0.63605930  0.63756903  1
  O  O295  1  0.88240490  0.13047778  0.13227817  1
  O  O296  1  0.87064917  0.12842599  0.63681165  1
  O  O297  1  0.88203401  0.63267996  0.12140167  1
  O  O298  1  0.85629442  0.63185372  0.62410964  1
  O  O299  1  0.25961553  0.24986332  0.11586035  1
  O  O300  1  0.24786939  0.25346143  0.61286408  1
  O  O301  1  0.23825085  0.75725303  0.14220406  1
  O  O302  1  0.25429062  0.76302261  0.63174181  1
  O  O303  1  0.76153751  0.24345865  0.11614178  1
  O  O304  1  0.75453767  0.25446557  0.61889038  1
  O  O305  1  0.76516370  0.75706766  0.12877398  1
  O  O306  1  0.75340357  0.76449875  0.61265205  1
  O  O307  1  0.24419978  0.24578638  0.38681205  1
  O  O308  1  0.24477336  0.24784489  0.87940878  1
  O  O309  1  0.24113469  0.74086220  0.36988679  1
  O  O310  1  0.24357195  0.73746950  0.87162170  1
  O  O311  1  0.74459239  0.24492344  0.38322695  1
  O  O312  1  0.74915465  0.24545566  0.88558525  1
  O  O313  1  0.75090955  0.74313310  0.37599772  1
  O  O314  1  0.74615655  0.76135403  0.87561289  1
  O  O315  1  0.00626420  0.12502476  0.00951036  1
  O  O316  1  0.01203388  0.11469514  0.49979761  1
  O  O317  1  0.01320350  0.62796409  0.00566101  1
  O  O318  1  0.01154515  0.62215579  0.49866500  1
  O  O319  1  0.50587729  0.11951334  0.00552306  1
  O  O320  1  0.49763472  0.13544659  0.51756498  1
  O  O321  1  0.51039127  0.61679004  0.00825996  1
  O  O322  1  0.51038054  0.62005764  0.49676076  1
  O  O323  1  0.48786854  0.37455507  0.49553932  1
  O  O324  1  0.50384740  0.38152901  0.98763877  1
  O  O325  1  0.50252930  0.87932771  0.48934502  1
  O  O326  1  0.50709508  0.88735111  0.99182522  1
  O  O327  1  0.98745005  0.37144680  0.50306155  1
  O  O328  1  0.98868757  0.36482310  0.98897532  1
  O  O329  1  1.00488215  0.88182257  0.48689379  1
  O  O330  1  0.99144529  0.88131158  0.98969728  1
  O  O331  1  0.49075697  0.49162015  0.37629024  1
  O  O332  1  0.49569166  0.49380451  0.88106686  1
  O  O333  1  0.48616884  0.99815795  0.37587032  1
  O  O334  1  0.49063121  0.99506122  0.88195122  1
  O  O335  1  0.98580382  0.50499715  0.37505494  1
  O  O336  1  0.99301068  0.48624939  0.87111862  1
  O  O337  1  0.99721922  0.99211490  0.38229946  1
  O  O338  1  0.99289451  0.99579563  0.87829146  1
  O  O339  1  0.01031936  0.01144408  0.12950005  1
  O  O340  1  0.00747009  -0.01582242  0.61528403  1
  O  O341  1  -0.00552636  0.51443746  0.13081824  1
  O  O342  1  0.00658230  0.50389245  0.62116840  1
  O  O343  1  0.49908189  0.00923841  0.11701942  1
  O  O344  1  0.50466053  0.00967716  0.63201639  1
  O  O345  1  0.50820695  0.50618491  0.11787555  1
  O  O346  1  0.51736291  0.49509779  0.62567666  1
  O  O347  1  0.24332021  0.38206006  0.24822914  1
  O  O348  1  0.24964297  0.38950494  0.74978644  1
  O  O349  1  0.25004355  0.88327773  0.25710560  1
  O  O350  1  0.24101191  0.87641559  0.75221455  1
  O  O351  1  0.73595233  0.37489987  0.25339230  1
  O  O352  1  0.74093836  0.36374792  0.74083932  1
  O  O353  1  0.75388388  0.87818451  0.23655431  1
  O  O354  1  0.74096670  0.88907613  0.74086543  1
  O  O355  1  0.25405324  0.12131080  0.25780081  1
  O  O356  1  0.25777496  0.13223168  0.76299161  1
  O  O357  1  0.25696292  0.61510173  0.26200282  1
  O  O358  1  0.25162713  0.61589431  0.76023828  1
  O  O359  1  0.76166778  0.12467395  0.25621182  1
  O  O360  1  0.75523293  0.11501666  0.75199304  1
  O  O361  1  0.75391095  0.62184331  0.25592551  1
  O  O362  1  0.73655535  0.63902792  0.77334978  1
  O  O363  1  0.37030331  0.11768185  0.37003700  1
  O  O364  1  0.36773323  0.11786310  0.86941386  1
  O  O365  1  0.36851240  0.61790110  0.37266583  1
  O  O366  1  0.36901033  0.61680447  0.86276421  1
  O  O367  1  0.87190837  0.12046040  0.36838808  1
  O  O368  1  0.87527022  0.11509558  0.86746466  1
  O  O369  1  0.86568142  0.61600766  0.37290794  1
  O  O370  1  0.87711760  0.60508675  0.88356969  1
  O  O371  1  0.12856201  0.36660357  0.14155945  1
  O  O372  1  0.12780120  0.38975294  0.62624856  1
  O  O373  1  0.11604044  0.88397265  0.12903483  1
  O  O374  1  0.13607752  0.87673391  0.63257899  1
  O  O375  1  0.61843860  0.38424862  0.13342395  1
  O  O376  1  0.63268934  0.37824698  0.63318674  1
  O  O377  1  0.63679120  0.87613687  0.12284938  1
  O  O378  1  0.62846358  0.88376738  0.63294297  1
  O  O379  1  0.13057195  0.26045731  0.26500562  1
  O  O380  1  0.11734031  0.25091279  0.75494252  1
  O  O381  1  0.12304849  0.75587255  0.25129291  1
  O  O382  1  0.12439955  0.75872934  0.76359517  1
  O  O383  1  0.61975908  0.25550037  0.25261017  1
  O  O384  1  0.61610555  0.25771740  0.75301509  1
  O  O385  1  0.61911351  0.75722141  0.25463962  1
  O  O386  1  0.63156355  0.76181419  0.75647455  1
  O  O387  1  0.37930441  0.24503364  0.24521141  1
  O  O388  1  0.38128701  0.24100558  0.75039448  1
  O  O389  1  0.37567288  0.73714219  0.25773557  1
  O  O390  1  0.37370265  0.73581369  0.74477622  1
  O  O391  1  0.87150065  0.24335627  0.24055536  1
  O  O392  1  0.88056466  0.24006783  0.74819029  1
  O  O393  1  0.88598821  0.74673842  0.24047068  1
  O  O394  1  0.89272307  0.79913113  0.72760724  1
  O  O395  1  0.37357932  0.49431561  0.49247870  1
  O  O396  1  0.38860030  0.51019242  0.98995790  1
  O  O397  1  0.36907687  1.01037765  0.48747541  1
  O  O398  1  0.38615658  1.01062678  0.98760013  1
  O  O399  1  0.87765418  0.48709508  0.49117603  1
  O  O400  1  0.87122568  0.48505563  0.99974849  1
  O  O401  1  0.88670160  1.01188687  0.48892806  1
  O  O402  1  0.87716224  0.99664523  0.99150879  1
  O  O403  1  0.12316657  0.00942008  0.01212926  1
  O  O404  1  0.11883939  0.00655801  0.50841878  1
  O  O405  1  0.11540233  0.50177187  -0.00539722  1
  O  O406  1  0.12237020  0.50611116  0.50586686  1
  O  O407  1  0.61720539  0.00881800  0.00216438  1
  O  O408  1  0.62664050  0.00600501  0.51417709  1
  O  O409  1  0.61545534  0.50479907  0.00499262  1
  O  O410  1  0.62458826  0.49130043  0.51565512  1
  O  O411  1  0.37448628  0.36453181  0.13109817  1
  O  O412  1  0.37305329  0.37442657  0.61689902  1
  O  O413  1  0.37866649  0.87974584  0.11300535  1
  O  O414  1  0.36153174  0.86445421  0.63134903  1
  O  O415  1  0.88124316  0.36286300  0.11796818  1
  O  O416  1  0.86884025  0.36715532  0.61930204  1
  O  O417  1  0.87349786  0.87078625  0.11670674  1
  O  O418  1  0.85602694  0.89699750  0.61081717  1
  O  O419  1  0.12902055  0.13585704  0.38252131  1
  O  O420  1  0.13086444  0.12947658  0.87735544  1
  O  O421  1  0.13054652  0.63323115  0.37891554  1
  O  O422  1  0.12848698  0.62867441  0.88460256  1
  O  O423  1  0.62947910  0.13172508  0.37724337  1
  O  O424  1  0.62312556  0.12652407  0.88703285  1
  O  O425  1  0.63856501  0.62277444  0.37314034  1
  O  O426  1  0.61911029  0.63369178  0.88499704  1
