# generated using pymatgen
data_V85Zn86O256
_symmetry_space_group_name_H-M   'P 1'
_cell_length_a   16.93905998
_cell_length_b   16.92383021
_cell_length_c   16.93038188
_cell_angle_alpha   89.97592685
_cell_angle_beta   90.00901559
_cell_angle_gamma   90.08607893
_symmetry_Int_Tables_number   1
_chemical_formula_structural   V85Zn86O256
_chemical_formula_sum   'V85 Zn86 O256'
_cell_volume   4853.49052045
_cell_formula_units_Z   1
loop_
 _symmetry_equiv_pos_site_id
 _symmetry_equiv_pos_as_xyz
  1  'x, y, z'
loop_
 _atom_site_type_symbol
 _atom_site_label
 _atom_site_symmetry_multiplicity
 _atom_site_fract_x
 _atom_site_fract_y
 _atom_site_fract_z
 _atom_site_occupancy
  V  V0  1  -0.00312405  0.11820438  0.12837790  1
  V  V1  1  0.62375832  -0.00251501  0.62323770  1
  V  V2  1  0.86595714  0.62186984  0.74945890  1
  V  V3  1  0.26419881  0.37205606  0.62384584  1
  V  V4  1  0.00411378  0.87100186  0.37129049  1
  V  V5  1  0.62244409  0.74726819  0.87607085  1
  V  V6  1  0.49695351  0.75077039  0.24944304  1
  V  V7  1  0.24663842  0.50545184  0.75601837  1
  V  V8  1  0.87555360  0.24622038  0.13002664  1
  V  V9  1  0.25156304  0.12214218  0.36900892  1
  V  V10  1  0.11989727  0.11789374  -0.00133605  1
  V  V11  1  0.12539881  0.49800058  0.62266690  1
  V  V12  1  0.24458804  0.76452130  0.50153872  1
  V  V13  1  0.13306682  0.74737091  0.87577407  1
  V  V14  1  0.75274770  0.74732675  0.00417166  1
  V  V15  1  0.75204752  0.00370193  0.24880658  1
  V  V16  1  0.37460756  0.25078783  0.12681565  1
  V  V17  1  0.74327417  0.38916224  0.64076532  1
  V  V18  1  0.50301769  0.88490534  0.88209069  1
  V  V19  1  0.37401807  -0.00161365  0.37508418  1
  V  V20  1  0.24921605  0.37533912  0.12506276  1
  V  V21  1  0.87711798  0.00546469  0.36850644  1
  V  V22  1  0.50434893  0.37968959  0.86549447  1
  V  V23  1  0.75307878  -0.00190215  0.75065222  1
  V  V24  1  0.25202746  0.12448625  0.87485958  1
  V  V25  1  0.37892165  0.49299631  0.38701039  1
  V  V26  1  0.87214915  0.37479326  0.00618556  1
  V  V27  1  0.74536127  0.63215542  0.36748906  1
  V  V28  1  0.75419590  0.87340940  0.62613518  1
  V  V29  1  0.12485212  0.24946011  0.37514782  1
  V  V30  1  0.62556597  0.87209259  0.75158291  1
  V  V31  1  0.86215769  0.37202800  0.49704613  1
  V  V32  1  0.37411671  0.62774520  0.25226986  1
  V  V33  1  0.37185537  0.77697419  0.61801699  1
  V  V34  1  0.88500153  0.87298649  0.00451726  1
  V  V35  1  0.49534146  0.62448894  0.12825544  1
  V  V36  1  0.74758617  0.25081327  0.00568988  1
  V  V37  1  0.49487830  -0.00875615  0.49978110  1
  V  V38  1  0.12320002  0.24899428  0.87581175  1
  V  V39  1  0.00221768  0.75110306  0.75322917  1
  V  V40  1  0.37588188  0.12469907  0.25077477  1
  V  V41  1  0.74728966  0.48693165  0.24796640  1
  V  V42  1  0.88341850  -0.00373850  0.88123137  1
  V  V43  1  0.36947940  0.63219688  0.73432647  1
  V  V44  1  0.86272210  0.24812627  0.61993237  1
  V  V45  1  0.63409329  0.26043314  0.38580795  1
  V  V46  1  0.26058931  0.74546812  0.00221880  1
  V  V47  1  0.00366717  0.73655786  0.25045747  1
  V  V48  1  0.61883554  0.00012486  0.11743050  1
  V  V49  1  0.12652707  0.87508651  0.25041767  1
  V  V50  1  0.12827284  0.62442275  -0.00132316  1
  V  V51  1  0.13010518  -0.00721743  0.62505097  1
  V  V52  1  0.37716615  0.13555679  0.74566548  1
  V  V53  1  -0.00233865  0.50454157  0.00299082  1
  V  V54  1  0.62332433  0.62398452  0.00471854  1
  V  V55  1  0.87591512  0.12309175  0.74973409  1
  V  V56  1  0.87421915  0.50795828  0.36919758  1
  V  V57  1  0.25151898  0.50059912  0.25166061  1
  V  V58  1  0.51645090  0.25468056  0.24622187  1
  V  V59  1  0.00042796  0.62218428  0.62414591  1
  V  V60  1  0.87608631  0.87335315  0.49658959  1
  V  V61  1  0.50020019  0.13298163  0.62318344  1
  V  V62  1  0.62462609  0.48672174  0.13065343  1
  V  V63  1  0.12539854  0.12527936  0.49994092  1
  V  V64  1  -0.00212395  0.37319357  0.37667490  1
  V  V65  1  0.11888839  0.50369598  0.12612208  1
  V  V66  1  0.86945558  0.49860772  0.87247044  1
  V  V67  1  0.56420704  0.57135123  0.57864082  1
  V  V68  1  0.00056844  0.12532339  0.62342996  1
  V  V69  1  0.25521597  -0.00453163  0.74745312  1
  V  V70  1  0.37876377  0.88313905  0.00478442  1
  V  V71  1  0.87558135  0.74986548  0.62046131  1
  V  V72  1  0.37247171  0.51439216  0.87681588  1
  V  V73  1  0.74952745  0.12226121  0.37919797  1
  V  V74  1  0.74987025  0.12392202  0.87876405  1
  V  V75  1  0.25876072  0.25224782  0.50421969  1
  V  V76  1  0.12511293  -0.00486455  0.12146731  1
  V  V77  1  0.12440420  0.37456952  0.74984149  1
  V  V78  1  0.12369395  0.37268146  0.24968990  1
  V  V79  1  0.62364302  0.87569241  0.25207426  1
  V  V80  1  0.25433770  0.87208482  0.12875812  1
  V  V81  1  -0.00111941  0.25022993  0.74893671  1
  V  V82  1  0.24512699  0.62872630  0.38080078  1
  V  V83  1  0.37448100  0.37734911  -0.00254467  1
  V  V84  1  0.88015596  0.73437532  0.13086900  1
  Zn  Zn85  1  0.61565866  0.12318696  -0.00459272  1
  Zn  Zn86  1  0.50434746  0.38115657  0.38232988  1
  Zn  Zn87  1  0.63008505  0.26052612  0.87175134  1
  Zn  Zn88  1  0.24837400  0.24914017  0.00103407  1
  Zn  Zn89  1  0.00306624  -0.00153239  0.49785242  1
  Zn  Zn90  1  0.50043650  0.50128362  0.00059329  1
  Zn  Zn91  1  0.12420089  0.62859350  0.49716411  1
  Zn  Zn92  1  0.71062898  0.71100593  0.52659934  1
  Zn  Zn93  1  0.74486766  0.61980601  0.87320979  1
  Zn  Zn94  1  0.50554724  0.25996219  0.74317972  1
  Zn  Zn95  1  0.13189837  0.87235612  0.74967388  1
  Zn  Zn96  1  0.61515827  0.74347918  0.37911506  1
  Zn  Zn97  1  -0.00390536  0.24314798  0.25173176  1
  Zn  Zn98  1  0.00058254  0.49938028  0.49802742  1
  Zn  Zn99  1  0.38463696  0.00794366  0.87989016  1
  Zn  Zn100  1  0.49601757  0.75275419  0.74746999  1
  Zn  Zn101  1  0.75329367  0.87355840  0.12828433  1
  Zn  Zn102  1  0.00674732  0.87684239  0.87955817  1
  Zn  Zn103  1  0.49329083  0.12001914  0.11577958  1
  Zn  Zn104  1  0.49063575  0.86971016  0.37960779  1
  Zn  Zn105  1  0.62910095  0.12166549  0.49856571  1
  Zn  Zn106  1  -0.00046676  0.37544150  0.87615373  1
  Zn  Zn107  1  0.18658830  0.18654427  0.18702268  1
  Zn  Zn108  1  0.18921016  0.18589378  0.68684296  1
  Zn  Zn109  1  0.18672225  0.68804366  0.18566595  1
  Zn  Zn110  1  0.19055830  0.68895375  0.68316396  1
  Zn  Zn111  1  0.69098185  0.18061602  0.18613499  1
  Zn  Zn112  1  0.68339609  0.18932839  0.69186302  1
  Zn  Zn113  1  0.68769727  0.68317697  0.19270911  1
  Zn  Zn114  1  0.66599779  0.66048170  0.69707667  1
  Zn  Zn115  1  0.31328278  0.30929514  0.31297097  1
  Zn  Zn116  1  0.31386114  0.31513141  0.81192624  1
  Zn  Zn117  1  0.31057787  0.80989498  0.31452029  1
  Zn  Zn118  1  0.31439396  0.81437060  0.81750496  1
  Zn  Zn119  1  0.81082473  0.31220854  0.31020961  1
  Zn  Zn120  1  0.81408206  0.31105587  0.81504873  1
  Zn  Zn121  1  0.81631640  0.81513133  0.30749802  1
  Zn  Zn122  1  0.81313129  0.80848435  0.81540140  1
  Zn  Zn123  1  0.19094169  0.43749358  0.43951246  1
  Zn  Zn124  1  0.18726819  0.43698010  0.93661307  1
  Zn  Zn125  1  0.18572320  0.94067869  0.43282580  1
  Zn  Zn126  1  0.19087889  0.93563272  0.93758870  1
  Zn  Zn127  1  0.68441952  0.45033940  0.44784259  1
  Zn  Zn128  1  0.68886394  0.43819189  0.94278453  1
  Zn  Zn129  1  0.67298254  0.90786899  0.45187538  1
  Zn  Zn130  1  0.69570271  0.93313180  0.93900875  1
  Zn  Zn131  1  0.30734539  0.06066830  0.06487362  1
  Zn  Zn132  1  0.31465394  0.06448803  0.56111179  1
  Zn  Zn133  1  0.31153244  0.56286627  0.06492699  1
  Zn  Zn134  1  0.31020763  0.56200738  0.56193463  1
  Zn  Zn135  1  0.81149126  0.06018221  0.06304664  1
  Zn  Zn136  1  0.81486956  0.05681960  0.55834723  1
  Zn  Zn137  1  0.80891421  0.55983878  0.06613664  1
  Zn  Zn138  1  0.81281745  0.55720303  0.55640043  1
  Zn  Zn139  1  0.43946232  0.43654551  0.19273457  1
  Zn  Zn140  1  0.43894813  0.44883367  0.68534538  1
  Zn  Zn141  1  0.43546207  0.93825212  0.19016251  1
  Zn  Zn142  1  0.44022215  0.94227775  0.69340622  1
  Zn  Zn143  1  0.93522126  0.43576629  0.18952736  1
  Zn  Zn144  1  0.93307831  0.43513628  0.68671052  1
  Zn  Zn145  1  0.93958851  0.93448638  0.18557892  1
  Zn  Zn146  1  0.94366903  0.93695530  0.68878349  1
  Zn  Zn147  1  0.06508059  0.05776504  0.30802470  1
  Zn  Zn148  1  0.06414787  0.06111487  0.80991097  1
  Zn  Zn149  1  0.06447657  0.55897431  0.31458894  1
  Zn  Zn150  1  0.05851511  0.56447145  0.81543595  1
  Zn  Zn151  1  0.56142662  0.06554440  0.31069650  1
  Zn  Zn152  1  0.56538534  0.06604062  0.80897168  1
  Zn  Zn153  1  0.56406287  0.56005410  0.31612962  1
  Zn  Zn154  1  0.55571244  0.56369680  0.79845028  1
  Zn  Zn155  1  0.46263327  0.22083372  0.46038168  1
  Zn  Zn156  1  0.43867730  0.19262059  0.93815328  1
  Zn  Zn157  1  0.43473968  0.68215922  0.44531669  1
  Zn  Zn158  1  0.43989025  0.69045787  0.93872987  1
  Zn  Zn159  1  0.93576010  0.18696570  0.43764063  1
  Zn  Zn160  1  0.93781798  0.18576012  0.94119205  1
  Zn  Zn161  1  0.93691377  0.68646499  0.43565518  1
  Zn  Zn162  1  0.94034250  0.68410200  0.93779967  1
  Zn  Zn163  1  0.05913813  0.31174565  0.06141363  1
  Zn  Zn164  1  0.06179580  0.31223070  0.56133012  1
  Zn  Zn165  1  0.06315479  0.80613078  0.06507976  1
  Zn  Zn166  1  0.06294752  0.81198401  0.56098923  1
  Zn  Zn167  1  0.55835205  0.30864342  0.05475551  1
  Zn  Zn168  1  0.56741247  0.32550953  0.55999398  1
  Zn  Zn169  1  0.56097469  0.81193947  0.06798296  1
  Zn  Zn170  1  0.56509685  0.78531779  0.56445811  1
  O  O171  1  0.12357104  0.11537901  0.11731649  1
  O  O172  1  0.12046589  0.11911679  0.61690292  1
  O  O173  1  0.12807969  0.61499775  0.11365051  1
  O  O174  1  0.11769995  0.61345967  0.62761140  1
  O  O175  1  0.62592035  0.10864064  0.12135646  1
  O  O176  1  0.62273576  0.10977236  0.62525250  1
  O  O177  1  0.61576356  0.61987930  0.12080088  1
  O  O178  1  0.62245086  0.67775229  0.59394892  1
  O  O179  1  0.36982076  0.39157023  0.36886480  1
  O  O180  1  0.37876231  0.38733879  0.88079001  1
  O  O181  1  0.37339753  0.89377514  0.36292857  1
  O  O182  1  0.38643297  0.87762429  0.88432943  1
  O  O183  1  0.87990926  0.37744208  0.37978344  1
  O  O184  1  0.87816384  0.38101629  0.88593522  1
  O  O185  1  0.88314773  0.88070939  0.37985889  1
  O  O186  1  0.87799659  0.87913737  0.88340067  1
  O  O187  1  0.25597124  0.01404387  0.37906052  1
  O  O188  1  0.24900819  0.01347200  0.86814605  1
  O  O189  1  0.25620229  0.50633928  0.36881843  1
  O  O190  1  0.25576464  0.49500912  0.86236499  1
  O  O191  1  0.75916183  0.00401132  0.36701865  1
  O  O192  1  0.76265568  0.00272380  0.87073877  1
  O  O193  1  0.75438113  0.50489063  0.36650470  1
  O  O194  1  0.76438546  0.50236807  0.88224636  1
  O  O195  1  0.23978507  0.49514332  0.13115058  1
  O  O196  1  0.24242020  0.49417036  0.63399444  1
  O  O197  1  0.23653435  0.98619272  0.12206093  1
  O  O198  1  0.24163079  1.00972624  0.63434806  1
  O  O199  1  0.74156972  0.50370575  0.13964496  1
  O  O200  1  0.76103774  0.48849049  0.63054077  1
  O  O201  1  0.74394175  0.99613478  0.13323717  1
  O  O202  1  0.74556417  0.99402090  0.63074987  1
  O  O203  1  0.00475543  0.37200951  0.26158475  1
  O  O204  1  0.00514577  0.36681840  0.75112501  1
  O  O205  1  0.00619253  0.86603091  0.25498197  1
  O  O206  1  0.00286435  0.86017646  0.75322386  1
  O  O207  1  0.49467692  0.35695761  0.25880747  1
  O  O208  1  0.49319418  0.38072620  0.76171066  1
  O  O209  1  0.50349978  0.86482023  0.24827449  1
  O  O210  1  0.50694793  0.87293626  0.76235547  1
  O  O211  1  0.49381559  0.13720855  0.24200749  1
  O  O212  1  0.49125070  0.12183813  0.74216023  1
  O  O213  1  0.49387156  0.62877087  0.24714629  1
  O  O214  1  0.46948682  0.63938180  0.76549515  1
  O  O215  1  1.00798361  0.12538474  0.23362562  1
  O  O216  1  0.99498634  0.13019909  0.74392731  1
  O  O217  1  1.00713652  0.63765305  0.25325508  1
  O  O218  1  0.99446639  0.63374788  0.74100492  1
  O  O219  1  0.37036935  0.26147752  0.00683080  1
  O  O220  1  0.35565093  0.23354167  0.50010449  1
  O  O221  1  0.36432725  0.75785693  -0.00381532  1
  O  O222  1  0.36554822  0.75368124  0.51268802  1
  O  O223  1  0.87129884  0.25697278  0.00691005  1
  O  O224  1  0.87846768  0.25818536  0.50840797  1
  O  O225  1  0.87130635  0.75028919  0.00906270  1
  O  O226  1  0.88261382  0.75861088  0.50831280  1
  O  O227  1  0.12923093  0.24242295  0.49384135  1
  O  O228  1  0.12607262  0.24351307  0.99082278  1
  O  O229  1  0.13914802  0.74657239  0.50686353  1
  O  O230  1  0.13147268  0.74182159  0.99497847  1
  O  O231  1  0.63376083  0.24419782  0.48614096  1
  O  O232  1  0.63467416  0.24893183  0.99181840  1
  O  O233  1  0.64165136  0.79213469  0.48040093  1
  O  O234  1  0.63224985  0.74149177  1.00015569  1
  O  O235  1  0.49392772  0.25151664  0.13402411  1
  O  O236  1  0.51215521  0.23563917  0.62588578  1
  O  O237  1  0.50336707  0.73904602  0.13947956  1
  O  O238  1  0.47642224  0.76285831  0.63087455  1
  O  O239  1  0.99317536  0.23988622  0.12524416  1
  O  O240  1  0.99367098  0.24402436  0.63046652  1
  O  O241  1  0.98945321  0.74924189  0.13527183  1
  O  O242  1  0.99480170  0.74352044  0.63215845  1
  O  O243  1  0.00503043  0.25507062  0.37226290  1
  O  O244  1  0.00526622  0.24881465  0.86798299  1
  O  O245  1  -0.00689466  0.75617426  0.35969957  1
  O  O246  1  0.01208283  0.74690499  0.86831332  1
  O  O247  1  0.52569132  0.23934208  0.35909895  1
  O  O248  1  0.49591044  0.27313979  0.87430607  1
  O  O249  1  0.49600357  0.74941186  0.36576834  1
  O  O250  1  0.51263640  0.76000313  0.87958842  1
  O  O251  1  0.23744655  0.12957404  0.49485471  1
  O  O252  1  0.23978788  0.12633665  0.99211428  1
  O  O253  1  0.24815844  0.63260680  0.49435421  1
  O  O254  1  0.24298895  0.63445006  1.00586648  1
  O  O255  1  0.75128446  0.11712990  0.48402184  1
  O  O256  1  0.74979681  0.13085522  0.99284584  1
  O  O257  1  0.76412000  0.62424033  0.47765730  1
  O  O258  1  0.74300164  0.63342393  1.00036141  1
  O  O259  1  0.25943107  0.37556852  0.00439389  1
  O  O260  1  0.24524929  0.36502175  0.51082518  1
  O  O261  1  0.25808408  0.86689055  0.00663146  1
  O  O262  1  0.24472470  0.86350689  0.49373172  1
  O  O263  1  0.75996127  0.36498584  -0.00238387  1
  O  O264  1  0.76051308  0.38015653  0.50645799  1
  O  O265  1  0.76016465  0.85874578  0.00280319  1
  O  O266  1  0.77028864  0.88465318  0.50971595  1
  O  O267  1  0.12981368  0.49444888  0.24224901  1
  O  O268  1  0.12995626  0.49771406  0.74689326  1
  O  O269  1  0.12346181  0.98335721  0.24052900  1
  O  O270  1  0.13464981  1.00076973  0.74175192  1
  O  O271  1  0.63519383  0.50136057  0.24432838  1
  O  O272  1  0.60058625  0.56609021  0.69456869  1
  O  O273  1  0.63152587  0.99544657  0.24010098  1
  O  O274  1  0.63349543  0.99245107  0.74406449  1
  O  O275  1  0.38216490  0.01677482  0.25579854  1
  O  O276  1  0.36928591  0.01126532  0.75638759  1
  O  O277  1  0.36889258  0.51063075  0.25458919  1
  O  O278  1  0.36659192  0.51509169  0.75527111  1
  O  O279  1  0.86669798  -0.00997474  0.25762046  1
  O  O280  1  0.87169620  0.00347403  0.75584291  1
  O  O281  1  0.86172780  0.49305010  0.25627591  1
  O  O282  1  0.88445779  0.50968163  0.76055595  1
  O  O283  1  0.11727695  0.37140713  0.37172580  1
  O  O284  1  0.12296555  0.36722937  0.86879686  1
  O  O285  1  0.11331633  0.87860918  0.36614292  1
  O  O286  1  0.12399093  0.86445732  0.87363903  1
  O  O287  1  0.62969991  0.36450536  0.38340412  1
  O  O288  1  0.60751357  0.38443742  0.88042256  1
  O  O289  1  0.61325173  0.88476572  0.35678771  1
  O  O290  1  0.62263740  0.86765534  0.87403657  1
  O  O291  1  0.37062856  0.13146622  0.13174601  1
  O  O292  1  0.38717445  0.12033027  0.63367306  1
  O  O293  1  0.38717699  0.61839971  0.13417545  1
  O  O294  1  0.37143049  0.62898111  0.63398504  1
  O  O295  1  0.88691259  0.13072298  0.11568189  1
  O  O296  1  0.88016147  0.12956923  0.62659382  1
  O  O297  1  0.87636581  0.63585565  0.12202489  1
  O  O298  1  0.88171573  0.62966379  0.62961156  1
  O  O299  1  0.25589681  0.25808591  0.12438940  1
  O  O300  1  0.24121238  0.26083644  0.61737631  1
  O  O301  1  0.24417139  0.76113790  0.11459626  1
  O  O302  1  0.25852524  0.75099994  0.61230244  1
  O  O303  1  0.75868320  0.24006707  0.11313652  1
  O  O304  1  0.76112040  0.25037981  0.62815894  1
  O  O305  1  0.76161150  0.74791984  0.12259142  1
  O  O306  1  0.76814323  0.75599232  0.62497451  1
  O  O307  1  0.24303866  0.24257499  0.38190254  1
  O  O308  1  0.24271936  0.23975193  0.87350044  1
  O  O309  1  0.25841246  0.74184180  0.39113947  1
  O  O310  1  0.24000932  0.75305271  0.88465333  1
  O  O311  1  0.73868684  0.23964938  0.36243495  1
  O  O312  1  0.75454574  0.24015847  0.88616313  1
  O  O313  1  0.75520511  0.73487659  0.36306646  1
  O  O314  1  0.73929252  0.74659992  0.88530500  1
  O  O315  1  0.01360465  0.12729269  0.00862255  1
  O  O316  1  0.01193235  0.12465862  0.50289969  1
  O  O317  1  0.00737369  0.61173071  0.00034636  1
  O  O318  1  0.00200572  0.62491443  0.51209644  1
  O  O319  1  0.50215897  0.12894912  0.00251215  1
  O  O320  1  0.50629975  0.11985717  0.50917981  1
  O  O321  1  0.50603555  0.62497345  0.01014063  1
  O  O322  1  0.50683462  0.62812267  0.51248938  1
  O  O323  1  0.48985010  0.33185966  0.48348681  1
  O  O324  1  0.48702489  0.38087137  0.99160187  1
  O  O325  1  0.50034524  0.88902620  0.49893154  1
  O  O326  1  0.49005195  0.86824060  0.99695619  1
  O  O327  1  0.99398066  0.37425831  0.48773366  1
  O  O328  1  0.99450412  0.38685349  0.99800167  1
  O  O329  1  0.99456220  0.87418498  0.48948091  1
  O  O330  1  0.98897111  0.86561731  0.99831488  1
  O  O331  1  0.48531643  0.49796579  0.37239098  1
  O  O332  1  0.49094052  0.49638706  0.87338255  1
  O  O333  1  0.49118281  1.00431978  0.38328437  1
  O  O334  1  0.50522467  0.98862742  0.87485644  1
  O  O335  1  0.99223794  0.49125560  0.37378010  1
  O  O336  1  0.98921913  0.49944769  0.88482295  1
  O  O337  1  0.99373879  0.99082954  0.37171813  1
  O  O338  1  0.98767633  0.99799322  0.86952411  1
  O  O339  1  0.01202146  0.00399459  0.12569037  1
  O  O340  1  0.00886288  0.00910422  0.62446654  1
  O  O341  1  0.01132131  0.49446061  0.12071817  1
  O  O342  1  0.00575015  0.50657839  0.62514805  1
  O  O343  1  0.51563221  -0.00130875  0.12923381  1
  O  O344  1  0.50786095  0.00466222  0.61994483  1
  O  O345  1  0.50714366  0.50722396  0.12738691  1
  O  O346  1  0.49168382  0.50334787  0.60544702  1
  O  O347  1  0.24339788  0.37984057  0.24552814  1
  O  O348  1  0.24256371  0.38213002  0.74439378  1
  O  O349  1  0.23969977  0.86340550  0.24090751  1
  O  O350  1  0.25118906  0.89161083  0.75754439  1
  O  O351  1  0.74678932  0.38772237  0.25170530  1
  O  O352  1  0.75712672  0.37380551  0.73992223  1
  O  O353  1  0.74136512  0.88341672  0.25010576  1
  O  O354  1  0.74777345  0.87730125  0.74546561  1
  O  O355  1  0.25764650  0.13154108  0.25986379  1
  O  O356  1  0.25721855  0.12030531  0.75602126  1
  O  O357  1  0.25637624  0.62322770  0.25550959  1
  O  O358  1  0.25750202  0.61858590  0.74914674  1
  O  O359  1  0.74951174  0.11027924  0.25798700  1
  O  O360  1  0.75896563  0.11853817  0.75775954  1
  O  O361  1  0.75142824  0.61336370  0.26177507  1
  O  O362  1  0.76331534  0.63174543  0.75298539  1
  O  O363  1  0.36586408  0.12047042  0.36606487  1
  O  O364  1  0.36669541  0.12667930  0.86981920  1
  O  O365  1  0.36635870  0.61579228  0.37068994  1
  O  O366  1  0.37034951  0.61618018  0.88120983  1
  O  O367  1  0.87223318  0.11261506  0.37582205  1
  O  O368  1  0.86873747  0.11607701  0.87393763  1
  O  O369  1  0.87442995  0.61130980  0.37202893  1
  O  O370  1  0.87452276  0.61861914  0.86660955  1
  O  O371  1  0.12930592  0.38074138  0.12839724  1
  O  O372  1  0.12520893  0.38571710  0.63090717  1
  O  O373  1  0.12904185  0.87864846  0.12857007  1
  O  O374  1  0.11944051  0.88905817  0.62771247  1
  O  O375  1  0.61735915  0.38876217  0.11436844  1
  O  O376  1  0.64455751  0.37277214  0.62465216  1
  O  O377  1  0.62790870  0.88225377  0.13408383  1
  O  O378  1  0.63087092  0.88184042  0.63259707  1
  O  O379  1  0.12338334  0.25622743  0.25710747  1
  O  O380  1  0.11897080  0.25195385  0.75657123  1
  O  O381  1  0.11058322  0.75831851  0.24126575  1
  O  O382  1  0.12189696  0.74850091  0.75708958  1
  O  O383  1  0.61874949  0.24971932  0.24521096  1
  O  O384  1  0.61712029  0.24129252  0.76239267  1
  O  O385  1  0.61710226  0.75754363  0.25340552  1
  O  O386  1  0.62246315  0.75307620  0.76184379  1
  O  O387  1  0.38227557  0.24179957  0.24649984  1
  O  O388  1  0.37955386  0.23941034  0.75281989  1
  O  O389  1  0.37990124  0.73581206  0.25389653  1
  O  O390  1  0.36207880  0.74650210  0.73597463  1
  O  O391  1  0.87506691  0.25358860  0.23403578  1
  O  O392  1  0.88116238  0.24212264  0.74370976  1
  O  O393  1  0.88645274  0.75197570  0.23760796  1
  O  O394  1  0.88423123  0.74308263  0.74508921  1
  O  O395  1  0.36628829  0.49929014  0.48506846  1
  O  O396  1  0.37450706  0.49517489  0.99354967  1
  O  O397  1  0.38274531  1.00775895  0.48843526  1
  O  O398  1  0.36806309  0.98757341  0.99726151  1
  O  O399  1  0.88043047  0.48887900  0.48830977  1
  O  O400  1  0.88043350  0.49468776  0.99922378  1
  O  O401  1  0.88388950  0.99207724  0.48971505  1
  O  O402  1  0.86934777  0.98594386  0.99288164  1
  O  O403  1  0.12757349  0.00653056  0.00578646  1
  O  O404  1  0.12403110  0.00766397  0.50649570  1
  O  O405  1  0.11944888  0.50436271  0.00509231  1
  O  O406  1  0.12256324  0.50249415  0.51007692  1
  O  O407  1  0.63453097  -0.00583309  0.01543463  1
  O  O408  1  0.61939879  -0.00292819  0.50938716  1
  O  O409  1  0.62579493  0.51275517  0.00802593  1
  O  O410  1  0.62732309  0.51702280  0.51945672  1
  O  O411  1  0.37036413  0.37336301  0.11846432  1
  O  O412  1  0.36234477  0.37720172  0.63451651  1
  O  O413  1  0.36510090  0.87941916  0.12035628  1
  O  O414  1  0.36862248  0.87508064  0.62812541  1
  O  O415  1  0.88193317  0.36541143  0.11294066  1
  O  O416  1  0.86977175  0.36579797  0.61692297  1
  O  O417  1  0.87376547  0.86462433  0.11824225  1
  O  O418  1  0.87852450  0.86827779  0.61810821  1
  O  O419  1  0.13010931  0.12689162  0.37998096  1
  O  O420  1  0.12950561  0.12830773  0.88077485  1
  O  O421  1  0.14040958  0.61942279  0.37588041  1
  O  O422  1  0.12267984  0.62978299  0.88887977  1
  O  O423  1  0.63609638  0.12883415  0.37450539  1
  O  O424  1  0.64270192  0.11569677  0.87784124  1
  O  O425  1  0.63932298  0.62750263  0.37407989  1
  O  O426  1  0.62208657  0.63014699  0.88324981  1
