# generated using pymatgen
data_V85Zn86O256
_symmetry_space_group_name_H-M   'P 1'
_cell_length_a   16.98968097
_cell_length_b   16.98833212
_cell_length_c   16.98608330
_cell_angle_alpha   90.05294943
_cell_angle_beta   89.90531388
_cell_angle_gamma   90.25844498
_symmetry_Int_Tables_number   1
_chemical_formula_structural   V85Zn86O256
_chemical_formula_sum   'V85 Zn86 O256'
_cell_volume   4902.57247577
_cell_formula_units_Z   1
loop_
 _symmetry_equiv_pos_site_id
 _symmetry_equiv_pos_as_xyz
  1  'x, y, z'
loop_
 _atom_site_type_symbol
 _atom_site_label
 _atom_site_symmetry_multiplicity
 _atom_site_fract_x
 _atom_site_fract_y
 _atom_site_fract_z
 _atom_site_occupancy
  V  V0  1  0.87410547  0.49767753  0.87328038  1
  V  V1  1  0.00042054  0.87588984  0.87368497  1
  V  V2  1  0.13341758  0.49967389  0.62611240  1
  V  V3  1  0.00446129  0.75297241  0.24915485  1
  V  V4  1  0.75078043  0.24460892  -0.00578088  1
  V  V5  1  0.25868067  0.12103713  0.86241262  1
  V  V6  1  0.38217314  -0.01363989  0.37628320  1
  V  V7  1  0.12688123  0.75958773  0.37085197  1
  V  V8  1  0.49769186  0.23178263  0.74921979  1
  V  V9  1  0.12829551  0.00244536  0.62792472  1
  V  V10  1  0.12431633  0.75127034  0.87819394  1
  V  V11  1  0.86824916  0.62793722  0.24616352  1
  V  V12  1  0.61955405  0.50338779  0.62476760  1
  V  V13  1  0.74913254  0.87671306  0.62566170  1
  V  V14  1  0.25578295  0.87424395  0.12033337  1
  V  V15  1  0.00008906  0.00043082  0.49905910  1
  V  V16  1  0.87415559  0.87313325  0.49813478  1
  V  V17  1  0.61544395  0.11352083  0.51126784  1
  V  V18  1  0.50630513  0.12783768  0.12796167  1
  V  V19  1  0.37671744  0.75750914  0.62420548  1
  V  V20  1  0.87508617  0.24953882  0.62384125  1
  V  V21  1  0.25125104  0.87927920  0.62331485  1
  V  V22  1  0.87534669  0.74889911  0.62315262  1
  V  V23  1  0.86841267  0.50678646  0.37622761  1
  V  V24  1  0.00165103  0.37708693  0.36615453  1
  V  V25  1  0.87662176  0.24275756  0.13784695  1
  V  V26  1  0.25323632  0.12406453  0.37598722  1
  V  V27  1  0.25025839  0.62075885  0.36874150  1
  V  V28  1  0.74979304  0.74968049  0.00410675  1
  V  V29  1  0.87455590  0.62392579  0.74830463  1
  V  V30  1  0.87635228  0.87461628  0.00072340  1
  V  V31  1  0.13074090  0.37801673  0.74754016  1
  V  V32  1  0.29315963  0.44590914  0.19311513  1
  V  V33  1  0.62258475  0.87702951  0.75445661  1
  V  V34  1  0.37320468  0.62657371  0.24760272  1
  V  V35  1  0.62568528  0.11291249  -0.00100362  1
  V  V36  1  0.37240384  0.49756725  0.38046977  1
  V  V37  1  0.74880769  0.36930281  0.13721242  1
  V  V38  1  -0.00056011  0.50220577  0.00248029  1
  V  V39  1  0.49859120  0.49521131  0.49736861  1
  V  V40  1  -0.00098977  0.25150178  0.74871930  1
  V  V41  1  0.24910749  -0.00578874  0.25056449  1
  V  V42  1  0.74648995  0.00334027  0.75030010  1
  V  V43  1  0.00184970  0.12217174  0.13381425  1
  V  V44  1  0.12888452  0.12619857  0.00116883  1
  V  V45  1  -0.00099004  0.37446276  0.87347028  1
  V  V46  1  0.63137222  0.76034649  0.37339587  1
  V  V47  1  0.25823811  0.75446672  0.49776389  1
  V  V48  1  0.61275791  0.24741898  0.37187145  1
  V  V49  1  0.24493994  0.62093708  0.87020453  1
  V  V50  1  0.12628760  0.87862464  0.74895594  1
  V  V51  1  0.38170406  0.23121262  0.62571538  1
  V  V52  1  0.62087913  0.37068537  0.75424194  1
  V  V53  1  0.12673732  -0.00693735  0.12781334  1
  V  V54  1  -0.00011594  0.12654313  0.62347585  1
  V  V55  1  0.87256303  0.00181555  0.37100111  1
  V  V56  1  0.37768486  0.13774200  0.24377970  1
  V  V57  1  0.87319736  0.36885771  0.00115778  1
  V  V58  1  0.26643834  0.37736999  0.62487140  1
  V  V59  1  0.87714677  0.37466169  0.49912128  1
  V  V60  1  0.49775793  0.75027089  0.75387518  1
  V  V61  1  0.00214012  0.62377996  0.62354836  1
  V  V62  1  0.74864735  0.49895638  0.74900192  1
  V  V63  1  0.87400374  0.00343398  0.87156598  1
  V  V64  1  0.26334077  0.26012126  0.00865766  1
  V  V65  1  0.37046359  0.61697142  0.74589358  1
  V  V66  1  0.62741219  0.62027104  0.47779663  1
  V  V67  1  0.37843008  0.75350146  0.11391581  1
  V  V68  1  0.12563765  0.24845278  0.87637632  1
  V  V69  1  -0.00041033  0.74987872  0.74874210  1
  V  V70  1  0.12705753  0.62598665  0.49836477  1
  V  V71  1  0.62911588  0.88890164  0.24234939  1
  V  V72  1  0.74520564  0.24523526  0.50072429  1
  V  V73  1  0.12736961  0.25511427  0.36980700  1
  V  V74  1  0.50729698  0.62350019  0.11249106  1
  V  V75  1  0.62098651  0.24244286  0.87613540  1
  V  V76  1  0.75081308  0.12112130  0.37261143  1
  V  V77  1  0.62347276  0.74597148  0.88191449  1
  V  V78  1  0.74865734  0.37421016  0.62431748  1
  V  V79  1  0.25535116  0.25602291  0.50095667  1
  V  V80  1  0.37299826  -0.01096302  0.87256286  1
  V  V81  1  0.87316707  0.12563758  0.75236643  1
  V  V82  1  0.50046035  0.75395550  0.25524146  1
  V  V83  1  0.74510632  0.62137094  0.87806770  1
  V  V84  1  0.12007173  0.49199071  0.13925019  1
  Zn  Zn85  1  0.00610153  0.25049072  0.24934817  1
  Zn  Zn86  1  0.61910869  0.37465922  0.25498929  1
  Zn  Zn87  1  0.87614926  0.75137315  0.12582170  1
  Zn  Zn88  1  0.47280202  0.46146086  0.97312420  1
  Zn  Zn89  1  0.00272166  0.87794659  0.37171714  1
  Zn  Zn90  1  0.61707771  0.49700925  0.11676197  1
  Zn  Zn91  1  0.50555945  0.63385828  0.62054142  1
  Zn  Zn92  1  0.48572495  -0.00702615  0.00952567  1
  Zn  Zn93  1  0.12742209  0.62422721  0.00363222  1
  Zn  Zn94  1  0.25475839  0.75504892  -0.00519889  1
  Zn  Zn95  1  0.34672783  0.48910791  0.88579294  1
  Zn  Zn96  1  0.74171135  0.50783985  0.25455925  1
  Zn  Zn97  1  0.74896656  0.89484834  0.12529071  1
  Zn  Zn98  1  0.48688963  0.36738693  0.37427623  1
  Zn  Zn99  1  0.81225706  0.05814588  0.20723990  1
  Zn  Zn100  1  0.75137861  0.74349914  0.49637686  1
  Zn  Zn101  1  0.00349022  0.00086344  -0.00092182  1
  Zn  Zn102  1  0.00115981  0.62678366  0.12661453  1
  Zn  Zn103  1  0.00068654  0.49844369  0.49921696  1
  Zn  Zn104  1  0.49001486  0.86814224  0.88791229  1
  Zn  Zn105  1  0.12644468  0.12765551  0.49958038  1
  Zn  Zn106  1  0.49341554  0.99163684  0.51046431  1
  Zn  Zn107  1  0.19196133  0.18680413  0.18728547  1
  Zn  Zn108  1  0.18730012  0.19117976  0.68586284  1
  Zn  Zn109  1  0.18570098  0.68480787  0.18356796  1
  Zn  Zn110  1  0.18839994  0.69111635  0.68775600  1
  Zn  Zn111  1  0.68409591  0.18646028  0.18744028  1
  Zn  Zn112  1  0.68527465  0.18352646  0.68813646  1
  Zn  Zn113  1  0.68711389  0.69030880  0.18884668  1
  Zn  Zn114  1  0.68690748  0.69038315  0.68872098  1
  Zn  Zn115  1  0.31142951  0.31349184  0.31317468  1
  Zn  Zn116  1  0.31058917  0.30123249  0.81164689  1
  Zn  Zn117  1  0.30605364  0.80945523  0.30106618  1
  Zn  Zn118  1  0.30848179  0.81309075  0.80724328  1
  Zn  Zn119  1  0.81507278  0.30677768  0.31821621  1
  Zn  Zn120  1  0.80757844  0.31140556  0.81352949  1
  Zn  Zn121  1  0.80984973  0.81530152  0.31054727  1
  Zn  Zn122  1  0.81132409  0.81212991  0.81358427  1
  Zn  Zn123  1  0.18782790  0.43656385  0.43891882  1
  Zn  Zn124  1  0.18166439  0.43635364  0.94226324  1
  Zn  Zn125  1  0.18996274  0.93967250  0.44110306  1
  Zn  Zn126  1  0.19099464  0.94032697  0.93976807  1
  Zn  Zn127  1  0.68859440  0.43267659  0.43741135  1
  Zn  Zn128  1  0.65079702  0.42123639  0.95716337  1
  Zn  Zn129  1  0.68611452  0.93497515  0.43791930  1
  Zn  Zn130  1  0.69031712  0.93368796  0.93491540  1
  Zn  Zn131  1  0.31244899  0.06660832  0.05975479  1
  Zn  Zn132  1  0.31102725  0.06045756  0.55672890  1
  Zn  Zn133  1  0.31242972  0.56985368  0.05619613  1
  Zn  Zn134  1  0.31540321  0.56650772  0.56237860  1
  Zn  Zn135  1  0.81542813  0.06459921  0.04663258  1
  Zn  Zn136  1  0.80985740  0.06086895  0.56152713  1
  Zn  Zn137  1  0.78030014  0.53729407  0.04223770  1
  Zn  Zn138  1  0.80799729  0.56234775  0.55992086  1
  Zn  Zn139  1  0.45526475  0.43255109  0.18673797  1
  Zn  Zn140  1  0.44228753  0.43019973  0.77495121  1
  Zn  Zn141  1  0.44009049  0.93914918  0.19008016  1
  Zn  Zn142  1  0.43057221  0.95622461  0.69785090  1
  Zn  Zn143  1  0.93121868  0.43875393  0.18772239  1
  Zn  Zn144  1  0.94110496  0.43851163  0.68441620  1
  Zn  Zn145  1  0.94277881  0.93160885  0.18587842  1
  Zn  Zn146  1  0.93768850  0.93748424  0.68551738  1
  Zn  Zn147  1  0.06757506  0.06307973  0.31338179  1
  Zn  Zn148  1  0.06296925  0.06433596  0.81154739  1
  Zn  Zn149  1  0.05517726  0.56739607  0.31495174  1
  Zn  Zn150  1  0.06354913  0.56139121  0.81137063  1
  Zn  Zn151  1  0.55981010  0.06712986  0.31356454  1
  Zn  Zn152  1  0.56007371  0.05931876  0.81801333  1
  Zn  Zn153  1  0.55643097  0.55547514  0.30245275  1
  Zn  Zn154  1  0.55995526  0.56485891  0.81327828  1
  Zn  Zn155  1  0.43466745  0.17875829  0.44493755  1
  Zn  Zn156  1  0.43928915  0.18570458  0.93964966  1
  Zn  Zn157  1  0.44256690  0.81404391  0.43397066  1
  Zn  Zn158  1  0.43233878  0.67729285  0.93406572  1
  Zn  Zn159  1  0.93771991  0.18741159  0.43575833  1
  Zn  Zn160  1  0.94122892  0.18478430  0.94110220  1
  Zn  Zn161  1  0.93960674  0.68754382  0.43451071  1
  Zn  Zn162  1  0.93468924  0.68612250  0.93662952  1
  Zn  Zn163  1  0.06427395  0.31286684  0.06353617  1
  Zn  Zn164  1  0.06579200  0.31391146  0.55705525  1
  Zn  Zn165  1  0.06153449  0.81415832  0.06322039  1
  Zn  Zn166  1  0.06409615  0.81335894  0.55833014  1
  Zn  Zn167  1  0.55945890  0.30061389  0.06702492  1
  Zn  Zn168  1  0.55893978  0.31268995  0.56232116  1
  Zn  Zn169  1  0.56169898  0.81559889  0.06491874  1
  Zn  Zn170  1  0.53972460  0.85665313  0.58953001  1
  O  O171  1  0.12221973  0.11619685  0.11902104  1
  O  O172  1  0.11952752  0.11869727  0.62321886  1
  O  O173  1  0.11922938  0.61524936  0.12095181  1
  O  O174  1  0.12479062  0.61938302  0.61868869  1
  O  O175  1  0.61388638  0.12809184  0.11800056  1
  O  O176  1  0.62966747  0.12457744  0.60883695  1
  O  O177  1  0.60793158  0.63067962  0.13026831  1
  O  O178  1  0.62607088  0.61558437  0.62680219  1
  O  O179  1  0.36798734  0.39275101  0.37429643  1
  O  O180  1  0.36901208  0.38555312  0.84898965  1
  O  O181  1  0.36871604  0.88225425  0.36882241  1
  O  O182  1  0.36820482  0.88400723  0.87510926  1
  O  O183  1  0.88239638  0.37870655  0.38219013  1
  O  O184  1  0.87998368  0.37810419  0.87844243  1
  O  O185  1  0.87453833  0.88199864  0.38365998  1
  O  O186  1  0.88059379  0.87973456  0.88152053  1
  O  O187  1  0.25396419  0.00595680  0.36943642  1
  O  O188  1  0.25324445  0.01395887  0.87821044  1
  O  O189  1  0.25275085  0.51476899  0.38514697  1
  O  O190  1  0.23221408  0.51690345  0.87363594  1
  O  O191  1  0.76103598  0.00738820  0.38091597  1
  O  O192  1  0.76616369  -0.00665976  0.86461819  1
  O  O193  1  0.76456328  0.48966860  0.37091966  1
  O  O194  1  0.75722040  0.50794731  0.86521488  1
  O  O195  1  0.23561823  0.50605630  0.12753134  1
  O  O196  1  0.24066881  0.49344986  0.61695210  1
  O  O197  1  0.24701298  0.99511544  0.13140988  1
  O  O198  1  0.23983675  0.99229281  0.61776695  1
  O  O199  1  0.76976016  0.47279601  0.13928624  1
  O  O200  1  0.74267352  0.49395360  0.63037070  1
  O  O201  1  0.75988440  1.00718816  0.12466707  1
  O  O202  1  0.75718262  0.98485529  0.63373011  1
  O  O203  1  -0.00688164  0.37243572  0.26330949  1
  O  O204  1  0.00674135  0.36904735  0.75251111  1
  O  O205  1  -0.00375291  0.85880320  0.25487615  1
  O  O206  1  0.00564604  0.86944879  0.75298435  1
  O  O207  1  0.50557025  0.37471104  0.26280387  1
  O  O208  1  0.51940952  0.35645816  0.73738300  1
  O  O209  1  0.51365030  0.86461692  0.24307394  1
  O  O210  1  0.50811444  0.86289945  0.76285472  1
  O  O211  1  0.48786332  0.12346532  0.24241969  1
  O  O212  1  0.51090420  0.13302680  0.74468892  1
  O  O213  1  0.48627549  0.63143322  0.24396607  1
  O  O214  1  0.49263453  0.63841647  0.74471713  1
  O  O215  1  1.00854188  0.12709248  0.23737818  1
  O  O216  1  0.99440248  0.13253649  0.74257546  1
  O  O217  1  0.98949220  0.63818020  0.25230586  1
  O  O218  1  0.99491934  0.62948981  0.74244432  1
  O  O219  1  0.36223964  0.24769522  -0.00372713  1
  O  O220  1  0.36867105  0.24707419  0.51301893  1
  O  O221  1  0.37583489  0.74692115  0.01100722  1
  O  O222  1  0.36522962  0.75581312  0.50492541  1
  O  O223  1  0.86949349  0.25035972  0.00652968  1
  O  O224  1  0.86677885  0.25329040  0.50550422  1
  O  O225  1  0.86957855  0.76009116  -0.00228691  1
  O  O226  1  0.87331925  0.75441658  0.50370699  1
  O  O227  1  0.13488109  0.24734804  0.49067300  1
  O  O228  1  0.12340573  0.24253602  0.99175678  1
  O  O229  1  0.13461830  0.74337503  0.49391675  1
  O  O230  1  0.12051034  0.74978153  0.98593444  1
  O  O231  1  0.63060638  0.23962740  0.49621890  1
  O  O232  1  0.63235916  0.24007092  0.99217417  1
  O  O233  1  0.62380204  0.73449018  0.47944354  1
  O  O234  1  0.63453619  0.75283444  0.98870764  1
  O  O235  1  0.49095217  0.22856992  0.12025026  1
  O  O236  1  0.48656671  0.24791814  0.62596329  1
  O  O237  1  0.49431656  0.74181201  0.13307984  1
  O  O238  1  0.49159928  0.75639139  0.63418232  1
  O  O239  1  0.99448609  0.24117142  0.12611240  1
  O  O240  1  0.99579858  0.24618173  0.62784938  1
  O  O241  1  0.99820496  0.74850040  0.13323420  1
  O  O242  1  0.99610837  0.74382200  0.62807510  1
  O  O243  1  0.00943530  0.25620897  0.37470273  1
  O  O244  1  0.00513303  0.25517796  0.86965043  1
  O  O245  1  0.01180855  0.75246548  0.37040426  1
  O  O246  1  0.00472165  0.75590121  0.86870711  1
  O  O247  1  0.51059867  0.24738497  0.38740784  1
  O  O248  1  0.50853517  0.24363860  0.86402801  1
  O  O249  1  0.50925804  0.74914270  0.36117308  1
  O  O250  1  0.50639317  0.74531232  0.87139902  1
  O  O251  1  0.24980703  0.13533876  0.49154348  1
  O  O252  1  0.23799694  0.13280366  0.99366091  1
  O  O253  1  0.24241461  0.63535781  0.49458660  1
  O  O254  1  0.24517401  0.63553002  0.98643153  1
  O  O255  1  0.74325974  0.12996564  0.49427132  1
  O  O256  1  0.74151853  0.13753522  1.00210778  1
  O  O257  1  0.73138749  0.62612212  0.50327260  1
  O  O258  1  0.76710096  0.63700225  0.98191822  1
  O  O259  1  0.24462953  0.35776008  -0.00889501  1
  O  O260  1  0.24608879  0.36285089  0.50932110  1
  O  O261  1  0.24530548  0.87256935  0.01487023  1
  O  O262  1  0.24325938  0.86637235  0.51245855  1
  O  O263  1  0.75536087  0.35897296  0.01453702  1
  O  O264  1  0.75661276  0.36454543  0.50558572  1
  O  O265  1  0.75917533  0.86680048  0.00040226  1
  O  O266  1  0.75373383  0.87013294  0.51002909  1
  O  O267  1  0.11409602  0.50479228  0.23798826  1
  O  O268  1  0.11899076  0.49048416  0.73794673  1
  O  O269  1  0.13971423  1.00679857  0.24276075  1
  O  O270  1  0.11627773  0.99510835  0.73472983  1
  O  O271  1  0.62889792  0.49486967  0.23829639  1
  O  O272  1  0.62996683  0.48991841  0.74292159  1
  O  O273  1  0.62042042  0.98654186  0.25789189  1
  O  O274  1  0.63571803  0.98971643  0.76223486  1
  O  O275  1  0.36462602  0.00423285  0.26155285  1
  O  O276  1  0.36301387  0.00213653  0.77070990  1
  O  O277  1  0.36369241  0.50655204  0.25110300  1
  O  O278  1  0.37592139  0.51867924  0.73208943  1
  O  O279  1  0.88807492  -0.00309162  0.26656982  1
  O  O280  1  0.87066882  0.00454141  0.75387235  1
  O  O281  1  0.87722550  0.51447295  0.25873150  1
  O  O282  1  0.86978545  0.50316704  0.75212530  1
  O  O283  1  0.11445967  0.36762412  0.38292160  1
  O  O284  1  0.11776880  0.37089402  0.86503138  1
  O  O285  1  0.12748156  0.86245141  0.38030802  1
  O  O286  1  0.12173688  0.87176000  0.86899676  1
  O  O287  1  0.63017452  0.35381917  0.37826999  1
  O  O288  1  0.63491267  0.35851604  0.86276077  1
  O  O289  1  0.63009625  0.86358252  0.36459825  1
  O  O290  1  0.63038344  0.86254073  0.86541086  1
  O  O291  1  0.37360721  0.12314213  0.14129083  1
  O  O292  1  0.37015265  0.13277535  0.62405570  1
  O  O293  1  0.37921825  0.63457207  0.13094549  1
  O  O294  1  0.37600400  0.64278732  0.62758850  1
  O  O295  1  0.88546013  0.12731947  0.12479827  1
  O  O296  1  0.87999486  0.13027488  0.63002981  1
  O  O297  1  0.87956666  0.62693369  0.14214844  1
  O  O298  1  0.87986316  0.62874304  0.62836656  1
  O  O299  1  0.24421559  0.24702429  0.10748563  1
  O  O300  1  0.25860433  0.25449832  0.61873933  1
  O  O301  1  0.25855804  0.75791823  0.12491775  1
  O  O302  1  0.25427359  0.75656239  0.61514863  1
  O  O303  1  0.76005109  0.25071802  0.12248762  1
  O  O304  1  0.75363557  0.25210446  0.61597672  1
  O  O305  1  0.75243050  0.74620184  0.10970642  1
  O  O306  1  0.75964654  0.75883412  0.62641918  1
  O  O307  1  0.24753880  0.24507023  0.38342415  1
  O  O308  1  0.24158828  0.23681796  0.88041839  1
  O  O309  1  0.24583828  0.74266552  0.38041471  1
  O  O310  1  0.23870792  0.74576240  0.87351585  1
  O  O311  1  0.74677121  0.24117414  0.38866307  1
  O  O312  1  0.74431243  0.25011248  0.88654687  1
  O  O313  1  0.73517376  0.75027322  0.37489246  1
  O  O314  1  0.74371333  0.74282547  0.88052264  1
  O  O315  1  0.01241346  0.12261266  0.01057653  1
  O  O316  1  0.00172181  0.11753129  0.50586216  1
  O  O317  1  -0.00530123  0.61039914  -0.00073980  1
  O  O318  1  0.01396959  0.62712679  0.50488184  1
  O  O319  1  0.50898819  0.11917221  0.00822382  1
  O  O320  1  0.51078479  0.11301127  0.50029428  1
  O  O321  1  0.49931783  0.62903131  0.01321254  1
  O  O322  1  0.52262407  0.61120303  0.50465091  1
  O  O323  1  0.50831737  0.39054099  0.49334810  1
  O  O324  1  0.54867621  0.39400000  1.00982532  1
  O  O325  1  0.51513408  0.88010790  0.48435317  1
  O  O326  1  0.50711040  0.88247233  0.99752191  1
  O  O327  1  0.99086816  0.37516806  0.49297252  1
  O  O328  1  0.99271815  0.38314551  0.99451686  1
  O  O329  1  0.99380805  0.88384775  0.49794185  1
  O  O330  1  0.99269225  0.87775356  0.99242150  1
  O  O331  1  0.48825122  0.50293676  0.38147770  1
  O  O332  1  0.49090521  0.49401912  0.86141727  1
  O  O333  1  0.48164406  1.00220450  0.37055368  1
  O  O334  1  0.48215518  0.99682056  0.87501416  1
  O  O335  1  0.99081536  0.49281711  0.37891442  1
  O  O336  1  0.99432455  0.49371474  0.88057895  1
  O  O337  1  0.99870558  1.00086454  0.38620153  1
  O  O338  1  0.99155386  0.99219099  0.87149155  1
  O  O339  1  0.00955427  0.00467901  0.12486883  1
  O  O340  1  0.00425093  0.00479956  0.61476534  1
  O  O341  1  0.00377958  0.50047917  0.11859953  1
  O  O342  1  0.01119884  0.50741281  0.62064706  1
  O  O343  1  0.48684602  0.01976512  0.12414529  1
  O  O344  1  0.50521084  -0.03560224  0.62179453  1
  O  O345  1  0.49946347  0.51776251  0.12465696  1
  O  O346  1  0.51627985  0.50034142  0.61698522  1
  O  O347  1  0.24341446  0.38425015  0.25333831  1
  O  O348  1  0.23397356  0.36565960  0.73918061  1
  O  O349  1  0.24784584  0.88456632  0.23751564  1
  O  O350  1  0.23694207  0.86838131  0.73427433  1
  O  O351  1  0.75122445  0.36401775  0.24294872  1
  O  O352  1  0.74231112  0.37764036  0.74215829  1
  O  O353  1  0.73537896  0.87176510  0.24492834  1
  O  O354  1  0.74828506  0.88314673  0.74572942  1
  O  O355  1  0.26013732  0.11829197  0.25626969  1
  O  O356  1  0.24035551  0.12842591  0.76521537  1
  O  O357  1  0.26011745  0.63421160  0.25812878  1
  O  O358  1  0.25848407  0.63415815  0.75635088  1
  O  O359  1  0.74766612  0.13059036  0.26713891  1
  O  O360  1  0.75556089  0.11000300  0.74337976  1
  O  O361  1  0.76366768  0.62610957  0.24772657  1
  O  O362  1  0.75605944  0.62122755  0.75768109  1
  O  O363  1  0.36594346  0.11937070  0.36753887  1
  O  O364  1  0.36064202  0.12557934  0.87262178  1
  O  O365  1  0.36419446  0.61352006  0.36213637  1
  O  O366  1  0.36117460  0.62161574  0.86270618  1
  O  O367  1  0.86464113  0.11535188  0.38300728  1
  O  O368  1  0.88344324  0.11454033  0.86686989  1
  O  O369  1  0.87928349  0.61618461  0.36720061  1
  O  O370  1  0.87110586  0.61818657  0.86449627  1
  O  O371  1  0.11924427  0.39232665  0.12440571  1
  O  O372  1  0.12905348  0.38305988  0.62916259  1
  O  O373  1  0.12963314  0.88871686  0.12231509  1
  O  O374  1  0.12832391  0.88307299  0.62841805  1
  O  O375  1  0.64418718  0.36197187  0.13368762  1
  O  O376  1  0.63299642  0.38003000  0.62837933  1
  O  O377  1  0.63096252  0.87254395  0.13865061  1
  O  O378  1  0.63953346  0.86127925  0.64722778  1
  O  O379  1  0.12866381  0.24535282  0.26585235  1
  O  O380  1  0.11701507  0.25704877  0.75474262  1
  O  O381  1  0.11785985  0.74293346  0.26028307  1
  O  O382  1  0.11687318  0.75652020  0.75771237  1
  O  O383  1  0.62581116  0.24367180  0.27047080  1
  O  O384  1  0.62361885  0.25133180  0.75680591  1
  O  O385  1  0.61917525  0.75123218  0.26066814  1
  O  O386  1  0.61760106  0.75272168  0.76158372  1
  O  O387  1  0.37093622  0.23533405  0.25597567  1
  O  O388  1  0.38385007  0.24667049  0.73483425  1
  O  O389  1  0.38296597  0.74335371  0.24389986  1
  O  O390  1  0.38193267  0.74671308  0.74390774  1
  O  O391  1  0.87990521  0.24696750  0.24053925  1
  O  O392  1  0.87755251  0.24538879  0.74383926  1
  O  O393  1  0.87978184  0.74125455  0.25252277  1
  O  O394  1  0.88122070  0.74481542  0.74461792  1
  O  O395  1  0.38676337  0.51074413  0.49224168  1
  O  O396  1  0.37240884  0.50108424  0.99493505  1
  O  O397  1  0.37183267  1.00041643  0.48042385  1
  O  O398  1  0.37020352  1.01054620  0.98012379  1
  O  O399  1  0.87579256  0.49467840  0.49381000  1
  O  O400  1  0.87711602  0.48891769  0.99302395  1
  O  O401  1  0.88321737  0.99412937  0.49438228  1
  O  O402  1  0.88120125  0.99256996  0.98678466  1
  O  O403  1  0.12501358  0.00863962  0.00845508  1
  O  O404  1  0.11687600  0.00235726  0.50941634  1
  O  O405  1  0.11172628  0.50216951  0.00677589  1
  O  O406  1  0.12394529  0.51014276  0.50702426  1
  O  O407  1  0.62981812  0.01226871  -0.01065350  1
  O  O408  1  0.62856569  0.01327596  0.49576109  1
  O  O409  1  0.67140063  0.51201055  0.01770676  1
  O  O410  1  0.62639035  0.50644843  0.50265981  1
  O  O411  1  0.35709680  0.39215202  0.14012827  1
  O  O412  1  0.36353359  0.36954766  0.63239427  1
  O  O413  1  0.36782967  0.86495406  0.13306664  1
  O  O414  1  0.36250012  0.86476279  0.63406060  1
  O  O415  1  0.87213168  0.35984007  0.12170033  1
  O  O416  1  0.87001992  0.36941825  0.61933232  1
  O  O417  1  0.87415334  0.87363196  0.11154200  1
  O  O418  1  0.87052695  0.86869943  0.61806601  1
  O  O419  1  0.13957753  0.13008975  0.37721672  1
  O  O420  1  0.12769448  0.12762066  0.88357219  1
  O  O421  1  0.13056076  0.63097512  0.38249806  1
  O  O422  1  0.12633897  0.63668671  0.87274094  1
  O  O423  1  0.62978902  0.13268633  0.38449762  1
  O  O424  1  0.62345791  0.13418445  0.88284852  1
  O  O425  1  0.62368772  0.62351265  0.37627612  1
  O  O426  1  0.63616787  0.63213384  0.86821116  1
