# generated using pymatgen
data_V85Zn86O256
_symmetry_space_group_name_H-M   'P 1'
_cell_length_a   16.94375305
_cell_length_b   16.94798416
_cell_length_c   16.94484515
_cell_angle_alpha   90.04604842
_cell_angle_beta   90.07290529
_cell_angle_gamma   89.96694026
_symmetry_Int_Tables_number   1
_chemical_formula_structural   V85Zn86O256
_chemical_formula_sum   'V85 Zn86 O256'
_cell_volume   4865.91707077
_cell_formula_units_Z   1
loop_
 _symmetry_equiv_pos_site_id
 _symmetry_equiv_pos_as_xyz
  1  'x, y, z'
loop_
 _atom_site_type_symbol
 _atom_site_label
 _atom_site_symmetry_multiplicity
 _atom_site_fract_x
 _atom_site_fract_y
 _atom_site_fract_z
 _atom_site_occupancy
  V  V0  1  0.87608036  0.25222384  0.12023798  1
  V  V1  1  0.74559788  0.00205401  0.24343883  1
  V  V2  1  0.12771599  0.87035177  0.75249943  1
  V  V3  1  0.75000084  0.37360986  0.12267101  1
  V  V4  1  0.25026785  0.50838474  0.75340411  1
  V  V5  1  0.49767692  -0.00082815  -0.00052154  1
  V  V6  1  -0.00353143  0.36775125  0.88101854  1
  V  V7  1  0.50316630  0.12409475  0.12614509  1
  V  V8  1  0.12789511  -0.00591816  0.62447607  1
  V  V9  1  0.00211754  -0.00596794  0.49765373  1
  V  V10  1  0.86964732  0.62453387  0.75504195  1
  V  V11  1  0.12218426  0.37839193  0.24912647  1
  V  V12  1  0.00013737  -0.00034050  -0.00004750  1
  V  V13  1  0.74493077  0.49916216  0.25166216  1
  V  V14  1  0.49969729  0.36525889  0.37157536  1
  V  V15  1  0.37429237  0.75319739  0.11729007  1
  V  V16  1  0.25842212  0.74754895  0.50505440  1
  V  V17  1  0.63147182  0.37453287  0.73190244  1
  V  V18  1  0.37735174  0.37289295  -0.00220715  1
  V  V19  1  0.50768616  0.49912892  0.00060479  1
  V  V20  1  0.00544304  0.62148879  0.12687978  1
  V  V21  1  0.25415164  -0.00092396  0.25053185  1
  V  V22  1  0.50049665  0.36798674  0.86216800  1
  V  V23  1  0.50341476  0.12112827  0.64099971  1
  V  V24  1  0.87677939  0.49546585  0.37736981  1
  V  V25  1  0.61219709  0.11980617  0.49794373  1
  V  V26  1  0.74979714  0.11800084  0.37552938  1
  V  V27  1  0.81631762  0.42222166  0.55968793  1
  V  V28  1  -0.00384413  0.37587401  0.39015174  1
  V  V29  1  0.37646850  0.49747470  0.36933584  1
  V  V30  1  0.38382606  0.63204564  0.73990835  1
  V  V31  1  0.75073494  0.25263056  -0.00417325  1
  V  V32  1  0.86992545  0.87007687  0.00089183  1
  V  V33  1  0.13564116  0.73885501  0.88499568  1
  V  V34  1  0.24599697  0.24773514  -0.01312841  1
  V  V35  1  0.63916696  -0.00498319  0.62607280  1
  V  V36  1  0.37620393  0.51125484  0.87581835  1
  V  V37  1  0.24653952  0.37044576  0.62792358  1
  V  V38  1  0.50716588  0.75489486  0.26360425  1
  V  V39  1  0.86967662  0.11942194  0.74654919  1
  V  V40  1  0.12721319  0.62224489  0.50175166  1
  V  V41  1  0.12496302  0.25147464  0.37643110  1
  V  V42  1  0.63916269  0.88058662  0.75574551  1
  V  V43  1  0.62805210  0.74012338  0.88135666  1
  V  V44  1  0.61851579  0.62767773  0.52363978  1
  V  V45  1  0.00292074  0.12652368  0.12481264  1
  V  V46  1  0.87590113  0.24799945  0.61963475  1
  V  V47  1  0.25416610  0.24975127  0.50235631  1
  V  V48  1  0.36700281  -0.00082439  0.87367123  1
  V  V49  1  0.26380467  0.87140293  0.62645675  1
  V  V50  1  0.62563398  0.12109704  0.00109287  1
  V  V51  1  0.00312747  0.12350174  0.62490147  1
  V  V52  1  -0.00013013  0.62485110  0.62115111  1
  V  V53  1  0.51043499  0.62479225  0.12184594  1
  V  V54  1  0.38718959  0.87799851  0.49210634  1
  V  V55  1  0.12057254  0.49827635  0.62564902  1
  V  V56  1  0.73822873  0.87788515  0.12194010  1
  V  V57  1  0.62231347  0.87405925  0.26973324  1
  V  V58  1  -0.00056201  0.25157290  0.25076458  1
  V  V59  1  0.00212266  0.49626247  0.00453797  1
  V  V60  1  0.62042879  0.36955025  0.24499311  1
  V  V61  1  0.36688243  0.13100192  0.75674110  1
  V  V62  1  0.73736254  0.63449583  0.37248063  1
  V  V63  1  0.86553819  0.75655210  0.62534769  1
  V  V64  1  0.38004699  0.13039289  0.25118017  1
  V  V65  1  0.25058514  0.62348534  0.37566445  1
  V  V66  1  0.24262163  0.50079478  0.24317451  1
  V  V67  1  -0.00005145  0.87091835  0.87755664  1
  V  V68  1  -0.00073702  0.74836032  0.75156754  1
  V  V69  1  0.38102466  0.38690565  0.51072944  1
  V  V70  1  0.87193837  -0.00226870  0.87151146  1
  V  V71  1  0.12646435  0.00099031  0.12483951  1
  V  V72  1  0.87225169  0.49330309  0.87802647  1
  V  V73  1  0.25289867  0.12525585  0.37578130  1
  V  V74  1  0.12367917  0.87498705  0.25336146  1
  V  V75  1  0.12735821  0.12775184  -0.01763037  1
  V  V76  1  0.87451701  0.62793038  0.25618905  1
  V  V77  1  0.37780035  0.62856791  0.25084415  1
  V  V78  1  0.37934753  0.24984176  0.12503988  1
  V  V79  1  0.12705385  0.36999373  0.76825144  1
  V  V80  1  0.74928819  0.24642109  0.50096789  1
  V  V81  1  0.86168292  0.87631619  0.50131401  1
  V  V82  1  0.74817333  0.12226501  0.86949275  1
  V  V83  1  0.24526897  0.37295222  0.12376318  1
  V  V84  1  0.87219709  0.75147431  0.12479961  1
  Zn  Zn85  1  0.12449624  0.75003189  0.37708417  1
  Zn  Zn86  1  0.12998158  0.12290449  0.50121593  1
  Zn  Zn87  1  0.87447065  0.12309600  0.25051746  1
  Zn  Zn88  1  0.36715326  0.87138611  -0.00592931  1
  Zn  Zn89  1  0.39093140  0.00095116  0.37678544  1
  Zn  Zn90  1  0.14218195  0.62455961  0.01295319  1
  Zn  Zn91  1  0.73784867  0.76085557  0.49485854  1
  Zn  Zn92  1  0.87687038  -0.00137677  0.37219993  1
  Zn  Zn93  1  0.51340602  0.49885794  0.50621040  1
  Zn  Zn94  1  0.50264319  0.75500262  0.74648107  1
  Zn  Zn95  1  0.00468843  0.24628835  0.75503208  1
  Zn  Zn96  1  0.66682401  0.54127853  0.07842972  1
  Zn  Zn97  1  0.74764442  0.62045943  0.89797986  1
  Zn  Zn98  1  -0.00232545  0.87165999  0.37533341  1
  Zn  Zn99  1  0.62446733  0.24783307  0.37165294  1
  Zn  Zn100  1  0.38443951  0.24679800  0.62755699  1
  Zn  Zn101  1  0.24876904  0.00119840  0.75383486  1
  Zn  Zn102  1  0.00099475  0.75095112  0.25385841  1
  Zn  Zn103  1  0.24709090  0.86673252  0.12285373  1
  Zn  Zn104  1  0.61874197  0.24578575  0.86454585  1
  Zn  Zn105  1  0.50049201  0.87411974  0.87206621  1
  Zn  Zn106  1  0.74513145  0.49915040  0.74582253  1
  Zn  Zn107  1  0.18934437  0.18899181  0.18523082  1
  Zn  Zn108  1  0.18577140  0.18734524  0.69142735  1
  Zn  Zn109  1  0.18861218  0.69011294  0.18979732  1
  Zn  Zn110  1  0.19129553  0.68796305  0.68985652  1
  Zn  Zn111  1  0.68558573  0.18854120  0.18577073  1
  Zn  Zn112  1  0.68608132  0.19189556  0.68561484  1
  Zn  Zn113  1  0.69099658  0.70335235  0.06023930  1
  Zn  Zn114  1  0.68701502  0.69293725  0.69392580  1
  Zn  Zn115  1  0.31381189  0.31252756  0.31246269  1
  Zn  Zn116  1  0.31504329  0.31602787  0.81091771  1
  Zn  Zn117  1  0.31293995  0.80939692  0.31390311  1
  Zn  Zn118  1  0.31188477  0.81195824  0.81679971  1
  Zn  Zn119  1  0.81259372  0.31018237  0.31227192  1
  Zn  Zn120  1  0.81149144  0.31026135  0.80516048  1
  Zn  Zn121  1  0.81173073  0.81670598  0.31234413  1
  Zn  Zn122  1  0.80752176  0.80514285  0.81872897  1
  Zn  Zn123  1  0.18962648  0.43886550  0.43741958  1
  Zn  Zn124  1  0.20507883  0.47031652  0.95593276  1
  Zn  Zn125  1  0.19377941  0.93674262  0.43709645  1
  Zn  Zn126  1  0.18904800  0.93374557  0.94033371  1
  Zn  Zn127  1  0.68040218  0.44356095  0.43281576  1
  Zn  Zn128  1  0.68858555  0.43013457  0.92677964  1
  Zn  Zn129  1  0.56380452  0.94035314  0.44250189  1
  Zn  Zn130  1  0.68700197  0.93922250  0.93747956  1
  Zn  Zn131  1  0.31018908  0.06234642  0.06068274  1
  Zn  Zn132  1  0.31775659  0.05881112  0.56588116  1
  Zn  Zn133  1  0.32078841  0.56335405  0.06477497  1
  Zn  Zn134  1  0.32250243  0.55073306  0.56820790  1
  Zn  Zn135  1  0.81393480  0.06172647  0.06121306  1
  Zn  Zn136  1  0.81192295  0.06136940  0.55774898  1
  Zn  Zn137  1  0.83069944  0.55891341  0.06578240  1
  Zn  Zn138  1  0.80921206  0.58520465  0.55950171  1
  Zn  Zn139  1  0.43912098  0.43861723  0.18414218  1
  Zn  Zn140  1  0.43510657  0.43848453  0.68661692  1
  Zn  Zn141  1  0.44175799  0.93989763  0.18949795  1
  Zn  Zn142  1  0.44651243  0.93968043  0.69040807  1
  Zn  Zn143  1  0.93389556  0.43572885  0.19050610  1
  Zn  Zn144  1  0.94342794  0.43957963  0.69725955  1
  Zn  Zn145  1  0.93603518  0.93877343  0.18839115  1
  Zn  Zn146  1  0.93773350  0.93604070  0.68763761  1
  Zn  Zn147  1  0.06519888  0.06335123  0.31353750  1
  Zn  Zn148  1  0.05853080  0.05659674  0.80878282  1
  Zn  Zn149  1  0.06041184  0.55989552  0.31591269  1
  Zn  Zn150  1  0.05898645  0.55946801  0.81384821  1
  Zn  Zn151  1  0.56551304  0.06400936  0.30582802  1
  Zn  Zn152  1  0.56224906  0.05587851  0.81367296  1
  Zn  Zn153  1  0.55928158  0.55893484  0.31057407  1
  Zn  Zn154  1  0.56319545  0.55731079  0.80861104  1
  Zn  Zn155  1  0.43633889  0.19072958  0.44001591  1
  Zn  Zn156  1  0.43531790  0.18687599  0.93713040  1
  Zn  Zn157  1  0.44081886  0.69177498  0.56365102  1
  Zn  Zn158  1  0.44635358  0.68672667  0.93569563  1
  Zn  Zn159  1  0.93746751  0.18413157  0.43837770  1
  Zn  Zn160  1  0.93570901  0.18643719  0.93790553  1
  Zn  Zn161  1  0.93835703  0.69051897  0.43880989  1
  Zn  Zn162  1  0.93987623  0.68518422  0.93960209  1
  Zn  Zn163  1  0.06495456  0.31318853  0.05732743  1
  Zn  Zn164  1  0.06592530  0.30915505  0.56556719  1
  Zn  Zn165  1  0.06143011  0.80969897  0.06597004  1
  Zn  Zn166  1  0.06400597  0.80908558  0.56316203  1
  Zn  Zn167  1  0.56489751  0.31071679  0.05739816  1
  Zn  Zn168  1  0.56142327  0.30534361  0.55988933  1
  Zn  Zn169  1  0.55236680  0.81484308  0.06387155  1
  Zn  Zn170  1  0.56984912  0.81123329  0.57215334  1
  O  O171  1  0.11447183  0.12254649  0.12148161  1
  O  O172  1  0.11894951  0.11469062  0.62609584  1
  O  O173  1  0.10981500  0.63054820  0.12906237  1
  O  O174  1  0.12011272  0.61845486  0.62323524  1
  O  O175  1  0.61388385  0.13190455  0.11538478  1
  O  O176  1  0.61803800  0.11835665  0.62261300  1
  O  O177  1  0.61423771  0.63206171  0.12765126  1
  O  O178  1  0.63295215  0.62094508  0.62192023  1
  O  O179  1  0.38276950  0.38007332  0.37706314  1
  O  O180  1  0.38718675  0.38237092  0.87459520  1
  O  O181  1  0.37171646  0.87510089  0.38980454  1
  O  O182  1  0.37951424  0.88322249  0.87541483  1
  O  O183  1  0.88289320  0.38226996  0.37115346  1
  O  O184  1  0.88251460  0.38234076  0.86556978  1
  O  O185  1  0.87742846  0.87831779  0.38549485  1
  O  O186  1  0.87754922  0.87565746  0.88301925  1
  O  O187  1  0.25303632  0.00742554  0.36375027  1
  O  O188  1  0.26219460  -0.00255117  0.87363744  1
  O  O189  1  0.25011409  0.50300021  0.35651104  1
  O  O190  1  0.26554275  0.48331618  0.85877068  1
  O  O191  1  0.75139831  0.01415286  0.36504032  1
  O  O192  1  0.75715767  0.01486400  0.88100096  1
  O  O193  1  0.75910991  0.50595651  0.36959825  1
  O  O194  1  0.75806623  0.50255462  0.87259191  1
  O  O195  1  0.26001320  0.48712978  0.13734464  1
  O  O196  1  0.24197109  0.48991921  0.63467497  1
  O  O197  1  0.24390332  1.00538782  0.13859859  1
  O  O198  1  0.23923858  0.99182146  0.62603494  1
  O  O199  1  0.75585594  0.48985178  0.13340679  1
  O  O200  1  0.76789802  0.48903182  0.61865246  1
  O  O201  1  0.75455152  0.99196009  0.13182044  1
  O  O202  1  0.73700889  1.01055904  0.62838891  1
  O  O203  1  0.00504957  0.36904674  0.25558475  1
  O  O204  1  0.00998811  0.37180852  0.76069916  1
  O  O205  1  0.00965616  0.87695039  0.25271442  1
  O  O206  1  0.00814801  0.86886526  0.75633786  1
  O  O207  1  0.51004144  0.38175927  0.25488838  1
  O  O208  1  0.50413156  0.38015062  0.75735199  1
  O  O209  1  0.51287943  0.86902608  0.24647210  1
  O  O210  1  0.51624614  0.87638508  0.75385565  1
  O  O211  1  0.49284469  0.12565493  0.23821425  1
  O  O212  1  0.49389404  0.12418115  0.74471813  1
  O  O213  1  0.49557537  0.63337943  0.24456958  1
  O  O214  1  0.48561844  0.62075622  0.74880068  1
  O  O215  1  1.00091230  0.13236636  0.24192238  1
  O  O216  1  0.99415757  0.12455509  0.73835978  1
  O  O217  1  0.98802364  0.62154994  0.24693486  1
  O  O218  1  0.99034828  0.62778868  0.74267706  1
  O  O219  1  0.36734548  0.25364645  0.00621450  1
  O  O220  1  0.36832097  0.26170302  0.50495467  1
  O  O221  1  0.38301099  0.74861420  0.01396913  1
  O  O222  1  0.36526885  0.76206659  0.50466383  1
  O  O223  1  0.86623686  0.24291036  0.01230506  1
  O  O224  1  0.86966339  0.24431397  0.51141157  1
  O  O225  1  0.88025956  0.76019599  0.00841857  1
  O  O226  1  0.87454882  0.75887026  0.50925158  1
  O  O227  1  0.13449244  0.24614785  0.49424918  1
  O  O228  1  0.13356079  0.23927157  1.00271658  1
  O  O229  1  0.13544004  0.73749471  0.50200089  1
  O  O230  1  0.12050212  0.74240130  0.99035277  1
  O  O231  1  0.63370507  0.23913471  0.49639111  1
  O  O232  1  0.63270586  0.23821717  0.99303993  1
  O  O233  1  0.62651124  0.73473735  0.50504655  1
  O  O234  1  0.61879796  0.75561251  0.98759519  1
  O  O235  1  0.48673623  0.24207398  0.11546568  1
  O  O236  1  0.50059321  0.22717550  0.61932624  1
  O  O237  1  0.49080680  0.74208639  0.13199892  1
  O  O238  1  0.50199186  0.75069581  0.63432264  1
  O  O239  1  0.99400657  0.24581141  0.12720767  1
  O  O240  1  0.99482540  0.23883247  0.62412346  1
  O  O241  1  0.98888155  0.74219928  0.13020574  1
  O  O242  1  0.99616627  0.74217555  0.63338400  1
  O  O243  1  0.00343762  0.25518162  0.37094357  1
  O  O244  1  -0.00658982  0.26272290  0.87542903  1
  O  O245  1  0.00630793  0.75241317  0.37285507  1
  O  O246  1  0.00512973  0.75471609  0.86949774  1
  O  O247  1  0.50013680  0.26151056  0.37353048  1
  O  O248  1  0.49693298  0.26496765  0.87715401  1
  O  O249  1  0.49751854  0.74851195  0.35792553  1
  O  O250  1  0.51297316  0.75282375  0.86997255  1
  O  O251  1  0.25518389  0.13215423  0.49606979  1
  O  O252  1  0.23868701  0.13480885  1.00327135  1
  O  O253  1  0.24731091  0.63074884  0.49940997  1
  O  O254  1  0.24145762  0.57823998  0.99003723  1
  O  O255  1  0.74201196  0.12924020  0.49212162  1
  O  O256  1  0.74367934  0.13178855  0.99546306  1
  O  O257  1  0.73791938  0.63031023  0.48562111  1
  O  O258  1  0.74196130  0.61169763  1.01501267  1
  O  O259  1  0.25605240  0.37243928  0.00867928  1
  O  O260  1  0.25274144  0.36860749  0.50992639  1
  O  O261  1  0.25609065  0.88351410  0.01217668  1
  O  O262  1  0.25527655  0.86656332  0.50793823  1
  O  O263  1  0.74408339  0.36034974  0.00475623  1
  O  O264  1  0.74853705  0.36922747  0.50030121  1
  O  O265  1  0.76184675  0.88347254  0.00740529  1
  O  O266  1  0.76241946  0.87588911  0.50045485  1
  O  O267  1  0.13063368  0.49194510  0.25039297  1
  O  O268  1  0.13233123  0.49425143  0.74566001  1
  O  O269  1  0.13306973  0.99573938  0.24500705  1
  O  O270  1  0.12594121  0.98630085  0.74436908  1
  O  O271  1  0.63845262  0.49070293  0.25282863  1
  O  O272  1  0.62786773  0.48281165  0.75214139  1
  O  O273  1  0.63523933  0.98669346  0.24850302  1
  O  O274  1  0.62718605  0.99041165  0.74317420  1
  O  O275  1  0.36938991  0.01080995  0.25040477  1
  O  O276  1  0.37468235  0.00925595  0.75723128  1
  O  O277  1  0.36915328  0.50511012  0.25377299  1
  O  O278  1  0.36947385  0.51068755  0.75432166  1
  O  O279  1  0.86117738  0.00081177  0.25096655  1
  O  O280  1  0.87983356  0.01145692  0.75407941  1
  O  O281  1  0.86546361  0.50464607  0.25965557  1
  O  O282  1  0.87478773  0.50773573  0.76044791  1
  O  O283  1  0.11812247  0.37134593  0.37041274  1
  O  O284  1  0.11702321  0.38361217  0.86898138  1
  O  O285  1  0.12715980  0.87675550  0.36328117  1
  O  O286  1  0.11982187  0.86725676  0.86945160  1
  O  O287  1  0.61682993  0.37397065  0.36570646  1
  O  O288  1  0.61109599  0.36928456  0.86682599  1
  O  O289  1  0.62928515  0.87463434  0.36778326  1
  O  O290  1  0.62660808  0.87064208  0.86821241  1
  O  O291  1  0.37953121  0.13249116  0.13087989  1
  O  O292  1  0.38635690  0.12126404  0.63741003  1
  O  O293  1  0.38372827  0.63131446  0.13487215  1
  O  O294  1  0.36883559  0.63082665  0.63599958  1
  O  O295  1  0.88810817  0.12997957  0.12500693  1
  O  O296  1  0.88182926  0.12795510  0.62875410  1
  O  O297  1  0.88093604  0.63413011  0.13713534  1
  O  O298  1  0.88436998  0.63319206  0.63092609  1
  O  O299  1  0.26023904  0.25652183  0.11874862  1
  O  O300  1  0.24483931  0.25325500  0.61414500  1
  O  O301  1  0.26953658  0.74601785  0.13022233  1
  O  O302  1  0.24474766  0.76079340  0.61810679  1
  O  O303  1  0.75720900  0.25294838  0.11745672  1
  O  O304  1  0.75861768  0.24479272  0.61008497  1
  O  O305  1  0.76421647  0.76181526  0.12553723  1
  O  O306  1  0.76329198  0.74536468  0.62204468  1
  O  O307  1  0.24772271  0.24786941  0.38623424  1
  O  O308  1  0.25426186  0.25748399  0.88814849  1
  O  O309  1  0.24854291  0.74033769  0.38446224  1
  O  O310  1  0.23377208  0.75100012  0.87553384  1
  O  O311  1  0.75244958  0.24141590  0.38550994  1
  O  O312  1  0.75371175  0.23941578  0.88166077  1
  O  O313  1  0.75479882  0.73647452  0.37413521  1
  O  O314  1  0.73589422  0.74074194  0.88086493  1
  O  O315  1  0.00639355  0.12085232  0.00602543  1
  O  O316  1  0.00184459  0.11317944  0.51119367  1
  O  O317  1  -0.00297119  0.61622031  0.01260853  1
  O  O318  1  0.00883636  0.62915767  0.51407051  1
  O  O319  1  0.50669623  0.12056021  0.00372466  1
  O  O320  1  0.50978772  0.12552282  0.50314616  1
  O  O321  1  0.49694593  0.61277752  0.00921024  1
  O  O322  1  0.51421643  0.62101582  0.50743616  1
  O  O323  1  0.49928760  0.37514335  0.48827235  1
  O  O324  1  0.49482143  0.37818037  0.99132740  1
  O  O325  1  0.49035949  0.87130469  0.50389796  1
  O  O326  1  0.49367422  0.89030277  1.00060628  1
  O  O327  1  1.00525504  0.37049394  0.48914003  1
  O  O328  1  0.99899287  0.38011362  0.99297246  1
  O  O329  1  1.00024446  0.88523430  0.50094296  1
  O  O330  1  0.99213574  0.87988637  0.99802328  1
  O  O331  1  0.48911906  0.49222075  0.37725103  1
  O  O332  1  0.49421784  0.49044696  0.87999164  1
  O  O333  1  0.50307165  1.00090814  0.37222013  1
  O  O334  1  0.48986021  1.00018268  0.88412098  1
  O  O335  1  0.98551545  0.49222117  0.37473922  1
  O  O336  1  0.99255614  0.49040926  0.88115877  1
  O  O337  1  0.99983577  1.00066665  0.38559740  1
  O  O338  1  0.99258165  0.99059667  0.87974944  1
  O  O339  1  0.00498295  0.00878841  0.12087868  1
  O  O340  1  0.01188510  0.00256419  0.62077520  1
  O  O341  1  -0.01579314  0.50915892  0.11771971  1
  O  O342  1  0.01308024  0.50715904  0.63160879  1
  O  O343  1  0.49201727  0.01490210  0.11511570  1
  O  O344  1  0.51195691  0.01515973  0.62744864  1
  O  O345  1  0.49851038  0.50920396  0.11518681  1
  O  O346  1  0.43053529  0.47991132  0.58230470  1
  O  O347  1  0.24390699  0.37977599  0.24438798  1
  O  O348  1  0.24232511  0.37903026  0.74405280  1
  O  O349  1  0.24578468  0.88329695  0.24724024  1
  O  O350  1  0.24412073  0.87462136  0.74312091  1
  O  O351  1  0.74552526  0.38066122  0.24320536  1
  O  O352  1  0.73727164  0.37695419  0.74634362  1
  O  O353  1  0.73860723  0.88043620  0.24475253  1
  O  O354  1  0.73941827  0.87453881  0.75568130  1
  O  O355  1  0.25770114  0.12063123  0.25511267  1
  O  O356  1  0.26349769  0.12030268  0.74445506  1
  O  O357  1  0.25648776  0.61725962  0.25085502  1
  O  O358  1  0.25835874  0.61372888  0.74742915  1
  O  O359  1  0.74726564  0.11828418  0.25396416  1
  O  O360  1  0.75824514  0.13140172  0.75732679  1
  O  O361  1  0.76230393  0.61595830  0.26084131  1
  O  O362  1  0.76374679  0.62091990  0.74633356  1
  O  O363  1  0.37104059  0.12649319  0.36725927  1
  O  O364  1  0.37937208  0.11943542  0.86148081  1
  O  O365  1  0.36845446  0.61592392  0.35883878  1
  O  O366  1  0.38042486  0.61394250  0.86878676  1
  O  O367  1  0.86651138  0.12243938  0.37182959  1
  O  O368  1  0.87002142  0.12053693  0.86544661  1
  O  O369  1  0.87088913  0.61690959  0.37302391  1
  O  O370  1  0.87241541  0.61875107  0.86942051  1
  O  O371  1  0.13845683  0.36808539  0.13036881  1
  O  O372  1  0.13070767  0.38174221  0.63137487  1
  O  O373  1  0.12486958  0.88062237  0.13620012  1
  O  O374  1  0.13081181  0.87853256  0.63341315  1
  O  O375  1  0.63783015  0.36865799  0.12980770  1
  O  O376  1  0.61580164  0.37557135  0.63321886  1
  O  O377  1  0.63707058  0.86940902  0.12284525  1
  O  O378  1  0.62993398  0.88880618  0.63515675  1
  O  O379  1  0.12099990  0.25734236  0.25637424  1
  O  O380  1  0.12282448  0.26296298  0.74817458  1
  O  O381  1  0.12468771  0.76097637  0.25271974  1
  O  O382  1  0.12143873  0.75711212  0.75699279  1
  O  O383  1  0.63173996  0.26485322  0.25328885  1
  O  O384  1  0.62688410  0.26591124  0.74946256  1
  O  O385  1  0.61404609  0.76714764  0.25032825  1
  O  O386  1  0.62799324  0.76200255  0.76245965  1
  O  O387  1  0.36919409  0.23848901  0.24116386  1
  O  O388  1  0.37108942  0.23472245  0.74865619  1
  O  O389  1  0.38462350  0.74432575  0.24452750  1
  O  O390  1  0.37479036  0.73256766  0.76078773  1
  O  O391  1  0.87976771  0.24633550  0.23760633  1
  O  O392  1  0.87791288  0.23953028  0.73600883  1
  O  O393  1  0.87578413  0.74287275  0.24508069  1
  O  O394  1  0.87893202  0.74446859  0.74593874  1
  O  O395  1  0.34219301  0.49340233  0.46953354  1
  O  O396  1  0.38717957  0.49037806  0.99169964  1
  O  O397  1  0.36999066  0.98241559  0.49678873  1
  O  O398  1  0.38238717  1.00718320  0.99055362  1
  O  O399  1  0.86492965  0.49073672  0.49861509  1
  O  O400  1  0.88425955  0.49896398  0.98531155  1
  O  O401  1  0.88480812  0.99233782  0.50117154  1
  O  O402  1  0.88242219  0.99318754  0.99347929  1
  O  O403  1  0.11914309  0.00758840  0.00588640  1
  O  O404  1  0.12145823  -0.00003459  0.50770324  1
  O  O405  1  0.10448851  0.49981652  0.00262439  1
  O  O406  1  0.13411515  0.51239181  0.51109633  1
  O  O407  1  0.61630625  0.01355347  -0.00543667  1
  O  O408  1  0.62674832  0.00643545  0.51577600  1
  O  O409  1  0.61259597  0.48734019  -0.00507869  1
  O  O410  1  0.62631595  0.52013973  0.49620001  1
  O  O411  1  0.36917553  0.36619796  0.12166100  1
  O  O412  1  0.35665824  0.36190081  0.63269073  1
  O  O413  1  0.37875977  0.85925276  0.12901251  1
  O  O414  1  0.36620470  0.88399697  0.62021954  1
  O  O415  1  0.86163379  0.36481682  0.12921938  1
  O  O416  1  0.88170048  0.36883740  0.62239069  1
  O  O417  1  0.87020382  0.86929386  0.11917606  1
  O  O418  1  0.88276215  0.86606868  0.61712883  1
  O  O419  1  0.13486133  0.13320429  0.37704492  1
  O  O420  1  0.11800241  0.12038590  0.88311543  1
  O  O421  1  0.13132956  0.62144924  0.38567919  1
  O  O422  1  0.11879400  0.63811163  0.87311862  1
  O  O423  1  0.63169990  0.12703407  0.38188495  1
  O  O424  1  0.63223875  0.12690463  0.87785158  1
  O  O425  1  0.63831274  0.62381336  0.36521080  1
  O  O426  1  0.62550578  0.63652329  0.86916542  1
