# generated using pymatgen
data_V85Zn86O256
_symmetry_space_group_name_H-M   'P 1'
_cell_length_a   16.91650164
_cell_length_b   16.92161058
_cell_length_c   16.92353997
_cell_angle_alpha   90.01334339
_cell_angle_beta   90.03639868
_cell_angle_gamma   90.01507188
_symmetry_Int_Tables_number   1
_chemical_formula_structural   V85Zn86O256
_chemical_formula_sum   'V85 Zn86 O256'
_cell_volume   4844.43740304
_cell_formula_units_Z   1
loop_
 _symmetry_equiv_pos_site_id
 _symmetry_equiv_pos_as_xyz
  1  'x, y, z'
loop_
 _atom_site_type_symbol
 _atom_site_label
 _atom_site_symmetry_multiplicity
 _atom_site_fract_x
 _atom_site_fract_y
 _atom_site_fract_z
 _atom_site_occupancy
  V  V0  1  0.62105318  0.74312085  0.37685687  1
  V  V1  1  0.36420147  0.61386450  0.24530168  1
  V  V2  1  0.75086649  0.62399965  0.87456222  1
  V  V3  1  0.25142080  0.75413364  0.49094978  1
  V  V4  1  0.63300373  0.24844723  0.88245671  1
  V  V5  1  0.37909570  0.00269212  0.87498123  1
  V  V6  1  0.62506344  0.62394934  -0.00043810  1
  V  V7  1  0.88257851  0.49609585  0.87483385  1
  V  V8  1  0.62527151  0.87602602  0.23980279  1
  V  V9  1  0.61742689  0.37550918  0.24781971  1
  V  V10  1  0.25253204  0.12700965  0.37344821  1
  V  V11  1  0.13052085  0.87144925  0.25053378  1
  V  V12  1  0.37315447  0.49905987  0.38604280  1
  V  V13  1  0.86599820  0.63020562  0.24420383  1
  V  V14  1  0.64303715  0.12322576  0.00111160  1
  V  V15  1  0.38008775  0.25169088  0.63215055  1
  V  V16  1  0.86922139  0.00681899  0.37510891  1
  V  V17  1  0.36931389  0.87805751  0.00551838  1
  V  V18  1  0.74962644  0.00296322  0.75806454  1
  V  V19  1  0.50264122  0.12830947  0.63189696  1
  V  V20  1  0.37704366  0.73526697  0.62369897  1
  V  V21  1  0.74549611  0.49489555  0.74552362  1
  V  V22  1  0.49617075  0.75059555  0.24733107  1
  V  V23  1  0.12415180  0.63230118  0.49155913  1
  V  V24  1  0.24660367  0.38263535  0.13016286  1
  V  V25  1  0.12543077  -0.00710981  0.62790860  1
  V  V26  1  0.50460760  0.13113951  0.12714736  1
  V  V27  1  0.36293674  0.75299491  0.12401471  1
  V  V28  1  0.74843169  0.87395660  0.62639298  1
  V  V29  1  0.49669110  0.87432643  0.37693923  1
  V  V30  1  0.49450675  0.73572955  0.74898050  1
  V  V31  1  0.63443767  0.12463845  0.49746514  1
  V  V32  1  -0.00685253  0.25102321  0.24094407  1
  V  V33  1  0.26246762  0.87685960  0.62083504  1
  V  V34  1  0.12028840  0.37854824  0.75602427  1
  V  V35  1  0.49940070  0.87501703  0.87587248  1
  V  V36  1  0.87162466  0.36263984  -0.00145412  1
  V  V37  1  0.25320137  0.63428833  0.87118318  1
  V  V38  1  0.75937719  0.75161567  0.00717205  1
  V  V39  1  0.24784759  0.00077532  0.24536825  1
  V  V40  1  0.01530312  0.75569941  0.75136761  1
  V  V41  1  0.25961030  0.50286529  0.75164307  1
  V  V42  1  0.74356422  0.74358576  0.49957744  1
  V  V43  1  0.12230975  0.63448617  -0.00501382  1
  V  V44  1  -0.00136881  0.50202269  0.49968198  1
  V  V45  1  0.87365604  0.12371984  0.75712629  1
  V  V46  1  0.62455224  0.24340483  0.36591021  1
  V  V47  1  0.87363034  0.24818225  0.62539128  1
  V  V48  1  0.87418772  0.75175377  0.62747287  1
  V  V49  1  0.24987682  0.37537816  0.62478088  1
  V  V50  1  0.00305656  0.10927512  0.12158304  1
  V  V51  1  0.37469826  0.00029674  0.37916169  1
  V  V52  1  0.37350783  0.37235693  -0.00208195  1
  V  V53  1  0.12430637  0.25212127  0.37308977  1
  V  V54  1  0.12512424  0.12422128  0.50252325  1
  V  V55  1  -0.00124747  0.25216834  0.75576021  1
  V  V56  1  0.62518094  -0.00037173  0.62588791  1
  V  V57  1  0.12405460  0.50038039  0.62457354  1
  V  V58  1  0.49960353  -0.00370506  0.50149617  1
  V  V59  1  0.87187015  0.37547600  0.49990777  1
  V  V60  1  0.87482486  0.62562012  0.74964469  1
  V  V61  1  0.61736137  0.36659296  0.74408195  1
  V  V62  1  0.74592450  0.00728089  0.24656043  1
  V  V63  1  0.00235733  0.49440978  0.00128497  1
  V  V64  1  -0.00206449  0.37503446  0.37435067  1
  V  V65  1  0.00425839  0.87007935  0.37526481  1
  V  V66  1  0.50255856  0.49541417  -0.00326236  1
  V  V67  1  0.86485740  0.50162523  0.36854764  1
  V  V68  1  0.37750978  0.25272195  0.13554428  1
  V  V69  1  0.87850254  -0.00375534  0.88401084  1
  V  V70  1  0.63805576  0.49979121  0.12808974  1
  V  V71  1  0.00045695  0.62763231  0.62453140  1
  V  V72  1  0.12189139  0.25140239  0.87895794  1
  V  V73  1  0.56583160  0.56605515  0.55861325  1
  V  V74  1  0.62329690  0.87374060  0.75140759  1
  V  V75  1  0.62439993  0.74882081  0.87519612  1
  V  V76  1  0.87427188  0.87532582  0.49820593  1
  V  V77  1  0.25123855  -0.00246761  0.74831206  1
  V  V78  1  0.75711717  0.35921140  0.12917247  1
  V  V79  1  0.50619206  0.00181663  0.00876793  1
  V  V80  1  0.00002147  0.74954825  0.24558019  1
  V  V81  1  0.49801028  0.62440484  0.12288265  1
  V  V82  1  0.25058728  0.12850411  0.87539518  1
  V  V83  1  0.01398674  0.87558752  0.87588467  1
  V  V84  1  0.25249879  0.25376219  0.50159673  1
  Zn  Zn85  1  0.24203995  0.76070343  -0.00493904  1
  Zn  Zn86  1  0.74649440  0.37607350  0.62307731  1
  Zn  Zn87  1  0.75342165  0.24449750  0.49365262  1
  Zn  Zn88  1  0.87152522  0.13003383  0.25012599  1
  Zn  Zn89  1  0.17829936  0.94900672  0.08408828  1
  Zn  Zn90  1  0.38305370  0.12894575  0.25374680  1
  Zn  Zn91  1  0.12722977  0.38340754  0.25392251  1
  Zn  Zn92  1  0.12206278  0.11030370  0.00304391  1
  Zn  Zn93  1  0.74059468  0.61723075  0.37469790  1
  Zn  Zn94  1  0.00081825  -0.00056081  0.49938817  1
  Zn  Zn95  1  0.88723266  0.87414572  0.00603439  1
  Zn  Zn96  1  0.50132441  0.37599490  0.38018907  1
  Zn  Zn97  1  0.38301342  0.13026678  0.75514087  1
  Zn  Zn98  1  0.76077825  0.87368554  0.12775378  1
  Zn  Zn99  1  0.12606471  0.50702358  0.13424582  1
  Zn  Zn100  1  -0.00356072  0.62617591  0.12339855  1
  Zn  Zn101  1  0.38645846  0.37877323  0.50563679  1
  Zn  Zn102  1  0.24087450  0.62191507  0.36573396  1
  Zn  Zn103  1  0.24774934  0.25008066  0.00293986  1
  Zn  Zn104  1  0.00189975  0.12167434  0.62731865  1
  Zn  Zn105  1  0.49705827  0.36322198  0.87076659  1
  Zn  Zn106  1  0.37803961  0.50142472  0.87225172  1
  Zn  Zn107  1  0.18601416  0.18996651  0.18747397  1
  Zn  Zn108  1  0.18882352  0.18614910  0.69029745  1
  Zn  Zn109  1  0.18031476  0.69107973  0.18454091  1
  Zn  Zn110  1  0.19192391  0.68630806  0.68235887  1
  Zn  Zn111  1  0.68638251  0.18584663  0.18621523  1
  Zn  Zn112  1  0.68898446  0.18917184  0.69085452  1
  Zn  Zn113  1  0.68544523  0.68738442  0.18877040  1
  Zn  Zn114  1  0.68495456  0.68475103  0.68838756  1
  Zn  Zn115  1  0.31337371  0.31694770  0.31236866  1
  Zn  Zn116  1  0.31093509  0.31523019  0.81160465  1
  Zn  Zn117  1  0.31423274  0.81374258  0.31170912  1
  Zn  Zn118  1  0.31393358  0.81486111  0.80900222  1
  Zn  Zn119  1  0.80591737  0.31280472  0.31190100  1
  Zn  Zn120  1  0.80978676  0.31171456  0.81660001  1
  Zn  Zn121  1  0.81065842  0.81277014  0.31331836  1
  Zn  Zn122  1  0.81516474  0.81378789  0.81678608  1
  Zn  Zn123  1  0.19147192  0.44148812  0.43498951  1
  Zn  Zn124  1  0.18863097  0.44025463  0.93777212  1
  Zn  Zn125  1  0.18763255  0.93643117  0.43642111  1
  Zn  Zn126  1  0.18762835  0.93665090  0.92183034  1
  Zn  Zn127  1  0.68216434  0.43330291  0.43865813  1
  Zn  Zn128  1  0.69176393  0.43324697  0.93544170  1
  Zn  Zn129  1  0.68571336  0.93336634  0.43280776  1
  Zn  Zn130  1  0.68876862  0.93746244  0.94011283  1
  Zn  Zn131  1  0.31764857  0.06999824  0.05979536  1
  Zn  Zn132  1  0.31542052  0.06616532  0.56159901  1
  Zn  Zn133  1  0.31087222  0.56261556  0.05602828  1
  Zn  Zn134  1  0.30800417  0.56552522  0.56102871  1
  Zn  Zn135  1  0.82160966  0.06067294  0.07297617  1
  Zn  Zn136  1  0.81393283  0.06011404  0.56850013  1
  Zn  Zn137  1  0.81510232  0.56185323  0.06053076  1
  Zn  Zn138  1  0.80851998  0.56190333  0.56180625  1
  Zn  Zn139  1  0.44030653  0.43838295  0.18275032  1
  Zn  Zn140  1  0.44303927  0.44193709  0.67992132  1
  Zn  Zn141  1  0.43490890  0.94063008  0.18924429  1
  Zn  Zn142  1  0.43748488  0.93586304  0.68922597  1
  Zn  Zn143  1  0.93756680  0.44041731  0.18680459  1
  Zn  Zn144  1  0.93661526  0.43637649  0.68736250  1
  Zn  Zn145  1  0.93518458  0.93541718  0.18864929  1
  Zn  Zn146  1  0.93887631  0.93788916  0.68949622  1
  Zn  Zn147  1  0.06115956  0.06043131  0.31094156  1
  Zn  Zn148  1  0.06331325  0.06223345  0.81304730  1
  Zn  Zn149  1  0.05614529  0.56124541  0.31056698  1
  Zn  Zn150  1  0.06450341  0.56565842  0.81407532  1
  Zn  Zn151  1  0.56474808  0.06261682  0.31186938  1
  Zn  Zn152  1  0.56638713  0.06612620  0.81900195  1
  Zn  Zn153  1  0.55587596  0.56017593  0.30929082  1
  Zn  Zn154  1  0.56441612  0.55599796  0.81019130  1
  Zn  Zn155  1  0.44394200  0.18978499  0.44233312  1
  Zn  Zn156  1  0.44379916  0.19088311  0.93965397  1
  Zn  Zn157  1  0.43332906  0.68258896  0.43739975  1
  Zn  Zn158  1  0.43399718  0.68804916  0.93728955  1
  Zn  Zn159  1  0.94054135  0.18698272  0.43742767  1
  Zn  Zn160  1  0.93946911  0.18245314  0.93948696  1
  Zn  Zn161  1  0.93380735  0.68870499  0.43336521  1
  Zn  Zn162  1  0.94119147  0.68782495  0.93205501  1
  Zn  Zn163  1  0.06023314  0.31393631  0.06110436  1
  Zn  Zn164  1  0.05992945  0.31178715  0.56514958  1
  Zn  Zn165  1  0.05754578  0.81150352  0.06646914  1
  Zn  Zn166  1  0.06561888  0.81490232  0.56396917  1
  Zn  Zn167  1  0.56597250  0.30972750  0.06070913  1
  Zn  Zn168  1  0.56240897  0.31217623  0.55689648  1
  Zn  Zn169  1  0.56044312  0.81011158  0.06125739  1
  Zn  Zn170  1  0.55828545  0.80731339  0.56284372  1
  O  O171  1  0.10999300  0.13483163  0.12234684  1
  O  O172  1  0.12805413  0.11630012  0.61756725  1
  O  O173  1  0.12389373  0.62337969  0.10895158  1
  O  O174  1  0.11913284  0.61923731  0.61622648  1
  O  O175  1  0.61932550  0.13184101  0.11021162  1
  O  O176  1  0.62101963  0.11970980  0.61977903  1
  O  O177  1  0.62030943  0.61737893  0.12037365  1
  O  O178  1  0.62172922  0.63113621  0.61521715  1
  O  O179  1  0.37393062  0.38757473  0.37750637  1
  O  O180  1  0.37735554  0.37697389  0.88283752  1
  O  O181  1  0.38876129  0.88306355  0.37194308  1
  O  O182  1  0.38022756  0.88027292  0.88479160  1
  O  O183  1  0.87696443  0.38083019  0.38110814  1
  O  O184  1  0.86876116  0.38300247  0.88837220  1
  O  O185  1  0.87967542  0.88121794  0.38361827  1
  O  O186  1  0.88521875  0.88131005  0.87841170  1
  O  O187  1  0.25899479  0.00653408  0.37235959  1
  O  O188  1  0.25892411  0.00743235  0.86474745  1
  O  O189  1  0.26478845  0.50396157  0.37209187  1
  O  O190  1  0.25134358  0.50889342  0.86656566  1
  O  O191  1  0.75903973  -0.00901581  0.36431600  1
  O  O192  1  0.75952399  -0.00925804  0.86350212  1
  O  O193  1  0.76126437  0.49897015  0.37959005  1
  O  O194  1  0.76069428  0.50459507  0.86770815  1
  O  O195  1  0.24856379  0.48577563  0.11745451  1
  O  O196  1  0.24313041  0.49691666  0.63183688  1
  O  O197  1  0.26212833  1.00484373  0.14015307  1
  O  O198  1  0.24942880  0.99576320  0.62861620  1
  O  O199  1  0.73995670  0.49627329  0.11974236  1
  O  O200  1  0.75796467  0.49746243  0.64128208  1
  O  O201  1  0.75244344  0.99560705  0.14270888  1
  O  O202  1  0.74465704  0.99250130  0.63605784  1
  O  O203  1  -0.00123711  0.36575836  0.25678216  1
  O  O204  1  0.00877428  0.36641753  0.74627139  1
  O  O205  1  0.00547883  0.86882276  0.25828107  1
  O  O206  1  -0.00469434  0.86099734  0.75479975  1
  O  O207  1  0.51429616  0.37449735  0.24433081  1
  O  O208  1  0.51449208  0.38048891  0.75196607  1
  O  O209  1  0.50498766  0.87185384  0.25588523  1
  O  O210  1  0.50573830  0.86994464  0.75792792  1
  O  O211  1  0.50206389  0.11511786  0.23197112  1
  O  O212  1  0.50319159  0.11705444  0.73615086  1
  O  O213  1  0.48697504  0.63113351  0.24096133  1
  O  O214  1  0.50136417  0.63657033  0.75879732  1
  O  O215  1  1.00238307  0.13813604  0.24631383  1
  O  O216  1  0.99373230  0.13322249  0.74765851  1
  O  O217  1  0.98836849  0.63519362  0.25237226  1
  O  O218  1  0.99642064  0.63639881  0.74589435  1
  O  O219  1  0.37533974  0.26177929  0.00726749  1
  O  O220  1  0.36700264  0.24895475  0.51128265  1
  O  O221  1  0.37267659  0.76069462  0.00642012  1
  O  O222  1  0.36738382  0.74467188  0.51361650  1
  O  O223  1  0.87770788  0.26418668  -0.00689827  1
  O  O224  1  0.87576581  0.25471528  0.50747549  1
  O  O225  1  0.86136276  0.74726802  -0.00733237  1
  O  O226  1  0.86864016  0.76039323  0.50486326  1
  O  O227  1  0.13050193  0.24447944  0.49623255  1
  O  O228  1  0.12360194  0.25331577  0.98540450  1
  O  O229  1  0.13645499  0.74260326  0.50843570  1
  O  O230  1  0.12422577  0.73852609  1.00063406  1
  O  O231  1  0.63054711  0.23933410  0.49303828  1
  O  O232  1  0.62969436  0.23902488  0.99250664  1
  O  O233  1  0.63224244  0.75867316  0.48951360  1
  O  O234  1  0.63013355  0.74230516  0.99340576  1
  O  O235  1  0.49202257  0.24280825  0.11952339  1
  O  O236  1  0.49251181  0.23951161  0.61997808  1
  O  O237  1  0.49022000  0.74226719  0.12709343  1
  O  O238  1  0.48495054  0.75388784  0.63246680  1
  O  O239  1  1.00052043  0.25364284  0.14001262  1
  O  O240  1  0.99007819  0.24800199  0.63569017  1
  O  O241  1  0.99837141  0.74598634  0.14015572  1
  O  O242  1  0.99446614  0.74953641  0.63424848  1
  O  O243  1  0.00844328  0.25531671  0.37105326  1
  O  O244  1  0.00628087  0.24565501  0.86382485  1
  O  O245  1  -0.00711281  0.76367430  0.36769946  1
  O  O246  1  -0.00275164  0.75905829  0.85894094  1
  O  O247  1  0.51749269  0.25251192  0.37902115  1
  O  O248  1  0.51895997  0.24840499  0.87678082  1
  O  O249  1  0.50060524  0.75715641  0.37048837  1
  O  O250  1  0.50257527  0.75532656  0.86943545  1
  O  O251  1  0.24134974  0.13166949  0.49464271  1
  O  O252  1  0.24826605  0.12875305  0.98709913  1
  O  O253  1  0.23976004  0.63401300  0.49741661  1
  O  O254  1  0.23969727  0.62672894  0.98829867  1
  O  O255  1  0.73812954  0.12048979  0.50569145  1
  O  O256  1  0.74102204  0.11628598  1.00792688  1
  O  O257  1  0.75717300  0.64039447  0.49574257  1
  O  O258  1  0.74641187  0.63312212  0.99469582  1
  O  O259  1  0.25792885  0.37310954  0.00634657  1
  O  O260  1  0.25163523  0.37054500  0.50924452  1
  O  O261  1  0.25819884  0.87836533  -0.00103246  1
  O  O262  1  0.24739385  0.86641921  0.50716442  1
  O  O263  1  0.76350483  0.37970346  0.01120607  1
  O  O264  1  0.76189546  0.37221919  0.50306266  1
  O  O265  1  0.74788121  0.85926467  0.00090503  1
  O  O266  1  0.75587802  0.86755858  0.50496292  1
  O  O267  1  0.11961923  0.49642777  0.24766110  1
  O  O268  1  0.12847268  0.49345719  0.74566194  1
  O  O269  1  0.13835637  0.99230183  0.25739846  1
  O  O270  1  0.13775300  1.00814136  0.73940951  1
  O  O271  1  0.62176301  0.49239360  0.23877538  1
  O  O272  1  0.63548228  0.48176531  0.75937572  1
  O  O273  1  0.63822717  0.99087781  0.25880086  1
  O  O274  1  0.63257016  0.99578660  0.74878507  1
  O  O275  1  0.36937137  0.00287180  0.26366968  1
  O  O276  1  0.37060967  0.00426911  0.75696504  1
  O  O277  1  0.37292070  0.51233255  0.24284395  1
  O  O278  1  0.36248036  0.49424596  0.74948528  1
  O  O279  1  0.86311574  0.00025551  0.25983159  1
  O  O280  1  0.86873375  0.00604215  0.75513556  1
  O  O281  1  0.88075806  0.51394418  0.25895461  1
  O  O282  1  0.87188253  0.50390292  0.75749846  1
  O  O283  1  0.12025844  0.36516126  0.37913856  1
  O  O284  1  0.13045876  0.36875355  0.86318133  1
  O  O285  1  0.11422832  0.87908551  0.36745492  1
  O  O286  1  0.11278938  0.87322664  0.86264642  1
  O  O287  1  0.62432726  0.36761549  0.36347215  1
  O  O288  1  0.62503751  0.36316409  0.87114339  1
  O  O289  1  0.61279641  0.86605583  0.36620828  1
  O  O290  1  0.61893318  0.86874698  0.87175935  1
  O  O291  1  0.38377420  0.13725180  0.12571097  1
  O  O292  1  0.38518334  0.13206754  0.62688450  1
  O  O293  1  0.37552198  0.63113039  0.12882666  1
  O  O294  1  0.36684974  0.63689991  0.63053595  1
  O  O295  1  0.89448114  0.12306922  0.13372831  1
  O  O296  1  0.87888584  0.13008125  0.63568465  1
  O  O297  1  0.87414895  0.62103317  0.14055032  1
  O  O298  1  0.88128868  0.63064725  0.62929013  1
  O  O299  1  0.25912830  0.25813112  0.12209573  1
  O  O300  1  0.25524989  0.25520796  0.62155755  1
  O  O301  1  0.26044536  0.74869129  0.11939642  1
  O  O302  1  0.26082072  0.75794646  0.62136719  1
  O  O303  1  0.75283821  0.26047893  0.12559895  1
  O  O304  1  0.76481981  0.24959266  0.62451437  1
  O  O305  1  0.74491297  0.74851319  0.10967285  1
  O  O306  1  0.75367324  0.75554483  0.61935429  1
  O  O307  1  0.24354352  0.24790254  0.37970431  1
  O  O308  1  0.24171786  0.24326890  0.87334559  1
  O  O309  1  0.25876601  0.74701088  0.38821112  1
  O  O310  1  0.25291124  0.73876878  0.87322400  1
  O  O311  1  0.73297313  0.25243021  0.37761572  1
  O  O312  1  0.73431548  0.24661858  0.87145963  1
  O  O313  1  0.73785688  0.75187803  0.38322990  1
  O  O314  1  0.74368953  0.74362465  0.88135252  1
  O  O315  1  0.00144677  0.12480950  0.01603364  1
  O  O316  1  0.01373151  0.12379969  0.50354497  1
  O  O317  1  0.00864635  0.62022772  -0.00275175  1
  O  O318  1  0.00399914  0.62491730  0.50533097  1
  O  O319  1  0.50579213  0.11723799  0.00906064  1
  O  O320  1  0.51085681  0.11342320  0.50940837  1
  O  O321  1  0.50416316  0.61845709  0.00372165  1
  O  O322  1  0.50707866  0.62287733  0.49657235  1
  O  O323  1  0.49924343  0.37790098  0.49586042  1
  O  O324  1  0.49429472  0.38121982  1.00000322  1
  O  O325  1  0.50570126  0.88787556  0.49274553  1
  O  O326  1  0.49576034  0.88254966  0.99460957  1
  O  O327  1  0.98927936  0.37821906  0.49583706  1
  O  O328  1  0.98472282  0.38279117  1.00580974  1
  O  O329  1  0.99229319  0.87491841  0.49456496  1
  O  O330  1  1.00358298  0.86443120  0.98049840  1
  O  O331  1  0.47751206  0.49639858  0.36181098  1
  O  O332  1  0.49919255  0.49763923  0.88728292  1
  O  O333  1  0.49564245  0.99508569  0.38128758  1
  O  O334  1  0.49640514  0.99643102  0.88455417  1
  O  O335  1  0.98849938  0.49320312  0.38315345  1
  O  O336  1  0.98853003  0.50322061  0.87829816  1
  O  O337  1  0.99016121  0.98897210  0.37621090  1
  O  O338  1  0.99346063  0.98339797  0.86242792  1
  O  O339  1  0.00770442  0.01100933  0.13702095  1
  O  O340  1  0.01087500  -0.00029317  0.62320429  1
  O  O341  1  0.00138057  0.50499326  0.11419582  1
  O  O342  1  0.00357846  0.50657362  0.61955586  1
  O  O343  1  0.49570032  0.00511327  0.11282602  1
  O  O344  1  0.50540631  0.00270097  0.61801564  1
  O  O345  1  0.50904929  0.50465473  0.11277732  1
  O  O346  1  0.50788775  0.51109481  0.62291401  1
  O  O347  1  0.24878259  0.37221028  0.23363794  1
  O  O348  1  0.24098828  0.38339967  0.74397681  1
  O  O349  1  0.24206041  0.88439150  0.25812601  1
  O  O350  1  0.25512355  0.88943412  0.74128796  1
  O  O351  1  0.74290942  0.37386793  0.23459598  1
  O  O352  1  0.74308200  0.38028295  0.74935084  1
  O  O353  1  0.74050307  0.87866776  0.24860025  1
  O  O354  1  0.74361803  0.87894571  0.74564638  1
  O  O355  1  0.25122203  0.11974295  0.25850544  1
  O  O356  1  0.25450366  0.11802052  0.76012292  1
  O  O357  1  0.26118174  0.63494675  0.24839354  1
  O  O358  1  0.24108883  0.61798363  0.76274649  1
  O  O359  1  0.75002721  0.11179779  0.24927002  1
  O  O360  1  0.75931800  0.11388434  0.74654419  1
  O  O361  1  0.76153253  0.63103874  0.25482204  1
  O  O362  1  0.75356910  0.61745061  0.75600806  1
  O  O363  1  0.37258487  0.12044745  0.37500428  1
  O  O364  1  0.36970296  0.12277717  0.87591039  1
  O  O365  1  0.37197765  0.61574121  0.36138961  1
  O  O366  1  0.35784565  0.62055550  0.88133076  1
  O  O367  1  0.87969788  0.11033975  0.37673076  1
  O  O368  1  0.88269124  0.11481735  0.86412866  1
  O  O369  1  0.87092376  0.61656866  0.36771653  1
  O  O370  1  0.87028461  0.61742842  0.86824759  1
  O  O371  1  0.13976690  0.37402240  0.12174303  1
  O  O372  1  0.12887864  0.37949387  0.63380467  1
  O  O373  1  0.12372573  0.86925103  0.14210742  1
  O  O374  1  0.13765363  0.88813642  0.62074586  1
  O  O375  1  0.63697705  0.37891258  0.12681928  1
  O  O376  1  0.62922524  0.36210503  0.64053515  1
  O  O377  1  0.62383553  0.87049285  0.13735841  1
  O  O378  1  0.62775628  0.88008912  0.63117408  1
  O  O379  1  0.11617506  0.25613069  0.26024863  1
  O  O380  1  0.11813594  0.25625998  0.75674941  1
  O  O381  1  0.11523246  0.75662022  0.25414187  1
  O  O382  1  0.11325239  0.74843792  0.74128935  1
  O  O383  1  0.62783747  0.25479968  0.25911443  1
  O  O384  1  0.62801762  0.26018169  0.75985230  1
  O  O385  1  0.61618394  0.75697779  0.25485468  1
  O  O386  1  0.61742965  0.75480176  0.75603413  1
  O  O387  1  0.37527771  0.25020868  0.23985021  1
  O  O388  1  0.37077395  0.24896309  0.73691323  1
  O  O389  1  0.37906319  0.74604310  0.24089613  1
  O  O390  1  0.38236986  0.75543699  0.73706857  1
  O  O391  1  0.88946686  0.24794590  0.26173820  1
  O  O392  1  0.88034933  0.24451053  0.74774853  1
  O  O393  1  0.88020047  0.73726450  0.25767389  1
  O  O394  1  0.87584291  0.74308444  0.74312982  1
  O  O395  1  0.37204518  0.50306203  0.48902698  1
  O  O396  1  0.38414653  0.48879493  1.00081197  1
  O  O397  1  0.38399650  1.00550647  0.48842874  1
  O  O398  1  0.38279283  0.99478390  0.99518311  1
  O  O399  1  0.87935082  0.49293014  0.49598362  1
  O  O400  1  0.88474880  0.49790160  0.99238872  1
  O  O401  1  0.87418502  0.98954240  0.49624644  1
  O  O402  1  0.87050943  0.99952846  0.98630624  1
  O  O403  1  0.13128155  -0.00286559  -0.00298218  1
  O  O404  1  0.12607820  0.00881946  0.50626121  1
  O  O405  1  0.11242110  0.50555526  -0.00226293  1
  O  O406  1  0.11804641  0.50642267  0.50487490  1
  O  O407  1  0.61922834  0.01206816  -0.00479026  1
  O  O408  1  0.62007745  0.00363453  0.50367963  1
  O  O409  1  0.62112298  0.50385198  0.00391518  1
  O  O410  1  0.63179446  0.50850625  0.50407774  1
  O  O411  1  0.36699159  0.37096594  0.11947347  1
  O  O412  1  0.36936738  0.36888731  0.62537261  1
  O  O413  1  0.38173564  0.86809461  0.11403757  1
  O  O414  1  0.36589850  0.87223169  0.62309893  1
  O  O415  1  0.86327424  0.37984009  0.11724134  1
  O  O416  1  0.87507190  0.36654523  0.61685174  1
  O  O417  1  0.87502645  0.87587578  0.11768089  1
  O  O418  1  0.86947174  0.87229347  0.61780743  1
  O  O419  1  0.12888203  0.13494676  0.38215162  1
  O  O420  1  0.13237589  0.13371906  0.87533921  1
  O  O421  1  0.12188940  0.62214890  0.38804846  1
  O  O422  1  0.13537117  0.62207701  0.88593737  1
  O  O423  1  0.62162914  0.13388579  0.38201259  1
  O  O424  1  0.62644420  0.13242933  0.89044677  1
  O  O425  1  0.62277588  0.63883807  0.36292126  1
  O  O426  1  0.63177806  0.62760008  0.87989159  1
