# generated using pymatgen
data_V85Zn86O256
_symmetry_space_group_name_H-M   'P 1'
_cell_length_a   16.93906657
_cell_length_b   16.93536460
_cell_length_c   16.95523653
_cell_angle_alpha   90.00772576
_cell_angle_beta   89.98416131
_cell_angle_gamma   90.06552660
_symmetry_Int_Tables_number   1
_chemical_formula_structural   V85Zn86O256
_chemical_formula_sum   'V85 Zn86 O256'
_cell_volume   4863.93288562
_cell_formula_units_Z   1
loop_
 _symmetry_equiv_pos_site_id
 _symmetry_equiv_pos_as_xyz
  1  'x, y, z'
loop_
 _atom_site_type_symbol
 _atom_site_label
 _atom_site_symmetry_multiplicity
 _atom_site_fract_x
 _atom_site_fract_y
 _atom_site_fract_z
 _atom_site_occupancy
  V  V0  1  0.37669671  0.38188886  -0.00016156  1
  V  V1  1  0.37637623  0.00345837  0.38930179  1
  V  V2  1  0.37098794  0.62631943  0.76613428  1
  V  V3  1  0.74927859  0.37692723  0.63310782  1
  V  V4  1  0.62355778  0.87992396  0.74611764  1
  V  V5  1  0.00303313  0.75192695  0.74440416  1
  V  V6  1  0.76139867  0.75257114  0.50557530  1
  V  V7  1  0.26630223  0.87316536  0.61967282  1
  V  V8  1  0.13044282  0.50092242  0.62698303  1
  V  V9  1  0.38697092  0.49409754  0.38095630  1
  V  V10  1  0.12926974  -0.00082045  0.62235441  1
  V  V11  1  -0.01340757  -0.00229118  -0.00062133  1
  V  V12  1  0.87047108  0.10969317  0.75180426  1
  V  V13  1  0.37675238  0.00069219  0.87412776  1
  V  V14  1  0.13833478  0.62421567  -0.00249715  1
  V  V15  1  0.49420664  -0.00187533  0.00136388  1
  V  V16  1  0.12516757  0.24919269  0.87444797  1
  V  V17  1  -0.00815103  0.62909427  0.62488047  1
  V  V18  1  0.81994840  0.82485123  -0.05574546  1
  V  V19  1  0.37527689  0.24271444  0.12701928  1
  V  V20  1  0.87273131  0.35994540  0.00343742  1
  V  V21  1  0.25501372  0.50070511  0.76538980  1
  V  V22  1  0.74934780  0.49748682  0.25433767  1
  V  V23  1  0.00457888  0.63021182  0.12437479  1
  V  V24  1  0.63618743  0.25072437  0.87568433  1
  V  V25  1  0.74911478  0.62445009  0.37688372  1
  V  V26  1  0.00722547  0.25110163  0.25606836  1
  V  V27  1  0.75994423  0.88064154  0.62022699  1
  V  V28  1  0.87366105  0.24819390  0.62808216  1
  V  V29  1  0.49664133  0.24217439  0.25298229  1
  V  V30  1  0.75060574  0.00083463  0.25259846  1
  V  V31  1  0.49266293  0.87919556  0.38873292  1
  V  V32  1  0.87908371  -0.01081001  0.37665987  1
  V  V33  1  0.12370801  0.75601393  0.37514684  1
  V  V34  1  0.25227254  0.37683121  0.13178374  1
  V  V35  1  -0.00029968  0.37330962  0.87671456  1
  V  V36  1  0.61670702  0.37516139  0.25191793  1
  V  V37  1  0.48743718  0.62329726  0.62169601  1
  V  V38  1  0.61851187  0.49931777  0.62611697  1
  V  V39  1  0.24986259  0.61774695  0.37159145  1
  V  V40  1  0.25131760  0.13285716  0.36939228  1
  V  V41  1  0.12236804  0.87958642  0.25154683  1
  V  V42  1  0.81542872  0.69886917  0.07355463  1
  V  V43  1  0.87258839  0.13390104  0.24805334  1
  V  V44  1  0.75190245  0.36090700  0.12523120  1
  V  V45  1  0.62367761  -0.00152837  0.12542377  1
  V  V46  1  0.49671695  0.75054467  0.74407712  1
  V  V47  1  0.62175072  0.87685116  0.25003908  1
  V  V48  1  0.25552214  0.12745748  0.86930492  1
  V  V49  1  0.75242382  0.10574289  0.87403046  1
  V  V50  1  0.37196082  0.61885730  0.24916980  1
  V  V51  1  0.12435251  0.13241098  0.49384284  1
  V  V52  1  0.87052679  0.37374525  0.50128706  1
  V  V53  1  0.49276964  0.75413556  0.25036377  1
  V  V54  1  0.25428900  0.87480737  0.11742090  1
  V  V55  1  0.12456311  0.12307909  -0.00116825  1
  V  V56  1  0.13047454  0.49957684  0.13427252  1
  V  V57  1  0.25903080  0.00348703  0.24912233  1
  V  V58  1  0.87512257  0.62864518  0.25180881  1
  V  V59  1  0.74915971  0.12573565  0.37970491  1
  V  V60  1  0.49222063  0.23965262  0.75728423  1
  V  V61  1  0.25687210  0.00260925  0.74705173  1
  V  V62  1  0.62247621  0.00055614  0.61689769  1
  V  V63  1  0.12625835  0.62734034  0.50007095  1
  V  V64  1  0.62704318  0.12949082  0.00110218  1
  V  V65  1  -0.00061676  0.75405662  0.24988633  1
  V  V66  1  -0.00022768  0.12354218  0.62354814  1
  V  V67  1  0.49850391  0.38165282  0.87434274  1
  V  V68  1  -0.00078751  0.24797583  0.75060769  1
  V  V69  1  -0.00559071  0.13180976  0.12206249  1
  V  V70  1  0.49087100  0.12190183  0.62064468  1
  V  V71  1  0.00535339  0.88072702  0.87799665  1
  V  V72  1  0.62234523  0.75293279  0.37954833  1
  V  V73  1  0.76283018  0.87695873  0.12811384  1
  V  V74  1  0.00022392  -0.01254514  0.49422613  1
  V  V75  1  0.13361727  0.74757761  0.87366715  1
  V  V76  1  0.25082880  0.25834218  0.49973524  1
  V  V77  1  0.26206167  0.75409139  0.50040174  1
  V  V78  1  0.00337904  0.49741699  0.00050310  1
  V  V79  1  0.86989290  0.50470697  0.87246780  1
  V  V80  1  0.50220122  0.62454472  0.11920237  1
  V  V81  1  0.49750524  0.87018630  0.88098533  1
  V  V82  1  0.61999979  0.62181843  0.50243030  1
  V  V83  1  -0.00161792  0.49941830  0.50084803  1
  V  V84  1  0.62014889  0.25512779  0.38093898  1
  Zn  Zn85  1  0.00371530  0.36625699  0.38162424  1
  Zn  Zn86  1  0.39359287  0.37657324  0.50544401  1
  Zn  Zn87  1  0.25532552  0.37761834  0.62636565  1
  Zn  Zn88  1  0.13045712  0.87450860  0.74870198  1
  Zn  Zn89  1  0.62513535  0.49903101  0.12139070  1
  Zn  Zn90  1  0.25277271  0.25037807  -0.00005588  1
  Zn  Zn91  1  0.74880869  0.24750033  0.50474053  1
  Zn  Zn92  1  0.64342388  0.62654903  -0.01253722  1
  Zn  Zn93  1  0.50431020  0.50359035  -0.00650034  1
  Zn  Zn94  1  0.62355835  0.37421160  0.75181470  1
  Zn  Zn95  1  0.87033183  0.63240122  0.75091977  1
  Zn  Zn96  1  0.13167184  0.37486033  0.25923687  1
  Zn  Zn97  1  0.61977783  0.12189247  0.49897669  1
  Zn  Zn98  1  0.37860032  0.75588895  0.11378541  1
  Zn  Zn99  1  0.87574270  0.49668620  0.37531544  1
  Zn  Zn100  1  0.73895013  0.51608419  0.75951409  1
  Zn  Zn101  1  0.49563109  0.12192806  0.12678261  1
  Zn  Zn102  1  0.37269793  0.25256099  0.62888835  1
  Zn  Zn103  1  0.12426691  0.00183311  0.12588744  1
  Zn  Zn104  1  0.12744135  0.37556123  0.75091999  1
  Zn  Zn105  1  0.25927412  0.75359077  -0.00995954  1
  Zn  Zn106  1  0.63506169  0.74675425  0.87625550  1
  Zn  Zn107  1  0.18755815  0.18742626  0.18481193  1
  Zn  Zn108  1  0.18779274  0.18796819  0.68596636  1
  Zn  Zn109  1  0.18960909  0.69112687  0.18768637  1
  Zn  Zn110  1  0.19131307  0.68667725  0.68575253  1
  Zn  Zn111  1  0.68273484  0.18643640  0.19139022  1
  Zn  Zn112  1  0.68523095  0.18490039  0.69230731  1
  Zn  Zn113  1  0.67866513  0.68691533  0.19420367  1
  Zn  Zn114  1  0.68531995  0.69008458  0.68903949  1
  Zn  Zn115  1  0.31460679  0.31303814  0.31193515  1
  Zn  Zn116  1  0.31446927  0.31632213  0.81373760  1
  Zn  Zn117  1  0.31008325  0.81545196  0.31311832  1
  Zn  Zn118  1  0.31622228  0.81595170  0.80812730  1
  Zn  Zn119  1  0.81152963  0.31200927  0.31597678  1
  Zn  Zn120  1  0.81467364  0.31150810  0.81232756  1
  Zn  Zn121  1  0.81083580  0.80971211  0.31258319  1
  Zn  Zn122  1  0.82135244  0.82394131  0.78290409  1
  Zn  Zn123  1  0.18526244  0.43888403  0.43378056  1
  Zn  Zn124  1  0.18822425  0.43474992  0.94332958  1
  Zn  Zn125  1  0.19018842  0.93925851  0.43703616  1
  Zn  Zn126  1  0.18424758  0.94156971  0.93614206  1
  Zn  Zn127  1  0.56728700  0.43807647  0.43815799  1
  Zn  Zn128  1  0.68550348  0.43771623  0.94268398  1
  Zn  Zn129  1  0.68596058  0.93732466  0.43900263  1
  Zn  Zn130  1  0.67557429  0.93726161  0.93760984  1
  Zn  Zn131  1  0.31078447  0.06096647  0.05917926  1
  Zn  Zn132  1  0.31161410  0.06987183  0.56041867  1
  Zn  Zn133  1  0.31619579  0.56125510  0.06472411  1
  Zn  Zn134  1  0.31103497  0.56112340  0.55919194  1
  Zn  Zn135  1  0.80992283  0.06624834  0.06261851  1
  Zn  Zn136  1  0.81486596  0.05842179  0.56061700  1
  Zn  Zn137  1  0.81819237  0.53248584  0.06765230  1
  Zn  Zn138  1  0.80761007  0.56115333  0.56598567  1
  Zn  Zn139  1  0.43571464  0.43837674  0.18881933  1
  Zn  Zn140  1  0.43722639  0.43582325  0.68968033  1
  Zn  Zn141  1  0.43492169  0.93959562  0.19105859  1
  Zn  Zn142  1  0.43828744  0.94154716  0.68901434  1
  Zn  Zn143  1  0.93762151  0.43727183  0.18703631  1
  Zn  Zn144  1  0.94008325  0.43761314  0.68925432  1
  Zn  Zn145  1  0.94027748  0.94464863  0.18969596  1
  Zn  Zn146  1  0.94410770  0.93573326  0.68450976  1
  Zn  Zn147  1  0.06395855  0.06425944  0.31284601  1
  Zn  Zn148  1  0.06439864  0.06106068  0.81020503  1
  Zn  Zn149  1  0.06134703  0.56182378  0.31536108  1
  Zn  Zn150  1  0.06336232  0.56297580  0.81185787  1
  Zn  Zn151  1  0.55994471  0.06373247  0.31541353  1
  Zn  Zn152  1  0.56559996  0.06098236  0.81075347  1
  Zn  Zn153  1  0.56260045  0.56721249  0.30709468  1
  Zn  Zn154  1  0.56520818  0.56749619  0.81206380  1
  Zn  Zn155  1  0.43421468  0.19077533  0.43848231  1
  Zn  Zn156  1  0.43844806  0.18898270  0.94111783  1
  Zn  Zn157  1  0.43790048  0.68582033  0.43559488  1
  Zn  Zn158  1  0.43704064  0.69271044  0.93763040  1
  Zn  Zn159  1  0.93539552  0.18284632  0.43779711  1
  Zn  Zn160  1  0.93373877  0.18317415  0.93461411  1
  Zn  Zn161  1  0.93973092  0.68799955  0.43479468  1
  Zn  Zn162  1  0.95464202  0.68280422  0.93007001  1
  Zn  Zn163  1  0.06367482  0.30988366  0.06557157  1
  Zn  Zn164  1  0.06386542  0.31420157  0.56442487  1
  Zn  Zn165  1  0.06808654  0.81352954  0.06193707  1
  Zn  Zn166  1  0.07068320  0.81333545  0.56252818  1
  Zn  Zn167  1  0.56162740  0.31181411  0.06348002  1
  Zn  Zn168  1  0.56342469  0.30548452  0.56850983  1
  Zn  Zn169  1  0.57213882  0.80535437  0.05928822  1
  Zn  Zn170  1  0.56274651  0.80806740  0.56452941  1
  O  O171  1  0.11772046  0.12429676  0.11461322  1
  O  O172  1  0.12248989  0.11495266  0.61785659  1
  O  O173  1  0.12211970  0.61916299  0.12062309  1
  O  O174  1  0.11940661  0.61559403  0.62096182  1
  O  O175  1  0.62675743  0.11733441  0.11636095  1
  O  O176  1  0.61792693  0.11631529  0.62586853  1
  O  O177  1  0.60960861  0.62407502  0.12862312  1
  O  O178  1  0.61550205  0.61856232  0.61956682  1
  O  O179  1  0.37105865  0.39294993  0.37414232  1
  O  O180  1  0.38608179  0.36720405  0.88720039  1
  O  O181  1  0.37976197  0.89056423  0.36943236  1
  O  O182  1  0.38420489  0.88987958  0.86886380  1
  O  O183  1  0.87994883  0.37544361  0.38682555  1
  O  O184  1  0.88230623  0.37869660  0.88212021  1
  O  O185  1  0.87127286  0.88992232  0.36667180  1
  O  O186  1  0.88195194  0.87469748  0.87836698  1
  O  O187  1  0.25924019  0.00754956  0.36944430  1
  O  O188  1  0.25685759  0.00480209  0.86770360  1
  O  O189  1  0.25833723  0.51414480  0.37840240  1
  O  O190  1  0.24404771  0.49934366  0.86384900  1
  O  O191  1  0.75428476  0.00646991  0.37101032  1
  O  O192  1  0.74500038  0.00724112  0.87396799  1
  O  O193  1  0.75389686  0.50767113  0.36103183  1
  O  O194  1  0.76649181  0.49156356  0.87548522  1
  O  O195  1  0.24185085  0.49164752  0.12207447  1
  O  O196  1  0.24254753  0.50061490  0.63083141  1
  O  O197  1  0.24821078  0.99434789  0.13180047  1
  O  O198  1  0.24775487  0.99902070  0.62932402  1
  O  O199  1  0.74515850  0.48871217  0.14098709  1
  O  O200  1  0.73717500  0.49266216  0.62633879  1
  O  O201  1  0.74510142  0.99390766  0.13171638  1
  O  O202  1  0.74108779  0.98748905  0.61568510  1
  O  O203  1  -0.00539619  0.35754644  0.24739300  1
  O  O204  1  0.00291123  0.36711570  0.75860368  1
  O  O205  1  0.01373210  0.87199349  0.24265309  1
  O  O206  1  0.00728768  0.87037372  0.75601861  1
  O  O207  1  0.51251361  0.36728059  0.24307897  1
  O  O208  1  0.50054069  0.36131397  0.75881774  1
  O  O209  1  0.50269139  0.86923984  0.25556340  1
  O  O210  1  0.50252236  0.86817274  0.75439161  1
  O  O211  1  0.50592624  0.13736852  0.24455240  1
  O  O212  1  0.50331976  0.13497425  0.74646175  1
  O  O213  1  0.49240927  0.63505215  0.24324075  1
  O  O214  1  0.48768157  0.63000238  0.74382209  1
  O  O215  1  0.99424846  0.13277741  0.24314279  1
  O  O216  1  0.99384759  0.12815567  0.74444059  1
  O  O217  1  0.99278998  0.62850445  0.24325718  1
  O  O218  1  0.99975432  0.63199523  0.74126369  1
  O  O219  1  0.37633306  0.25992482  0.01016116  1
  O  O220  1  0.36445620  0.25415533  0.50325080  1
  O  O221  1  0.37091117  0.75452076  0.00063066  1
  O  O222  1  0.36109247  0.74807302  0.49232377  1
  O  O223  1  0.87781891  0.26051867  -0.00258708  1
  O  O224  1  0.87587927  0.25515603  0.50980289  1
  O  O225  1  0.87830597  0.75100587  -0.00352991  1
  O  O226  1  0.86001125  0.74680656  0.49427257  1
  O  O227  1  0.12935506  0.23871159  0.50584343  1
  O  O228  1  0.12546247  0.23857424  0.99344205  1
  O  O229  1  0.13092779  0.74484169  0.49035797  1
  O  O230  1  0.13112109  0.74193582  0.99207610  1
  O  O231  1  0.63013663  0.24424685  0.49222218  1
  O  O232  1  0.61841891  0.23612674  0.99273299  1
  O  O233  1  0.63175778  0.74056793  0.49588781  1
  O  O234  1  0.63324058  0.74238565  0.99275287  1
  O  O235  1  0.49278451  0.24741593  0.13289987  1
  O  O236  1  0.50238278  0.23678811  0.64140235  1
  O  O237  1  0.49903366  0.74336578  0.13336138  1
  O  O238  1  0.50193421  0.74073266  0.63695210  1
  O  O239  1  1.00024995  0.23781687  0.13334076  1
  O  O240  1  0.99583393  0.24293012  0.63165186  1
  O  O241  1  1.00899035  0.73784458  0.13149265  1
  O  O242  1  1.01235985  0.74174608  0.63176254  1
  O  O243  1  -0.00284703  0.24465450  0.35981338  1
  O  O244  1  0.00418361  0.25249269  0.86949389  1
  O  O245  1  0.01484727  0.74367002  0.36644254  1
  O  O246  1  0.01259147  0.76171430  0.86890050  1
  O  O247  1  0.50985009  0.24277739  0.36759765  1
  O  O248  1  0.50813821  0.25037275  0.86797204  1
  O  O249  1  0.50175732  0.75795412  0.36799463  1
  O  O250  1  0.49811773  0.75907960  0.86245473  1
  O  O251  1  0.24304844  0.13585465  0.49269865  1
  O  O252  1  0.24140635  0.12418861  0.98796723  1
  O  O253  1  0.24417982  0.63245201  0.49253608  1
  O  O254  1  0.24087346  0.62555815  1.00483672  1
  O  O255  1  0.75066022  0.12505094  0.48871939  1
  O  O256  1  0.74166419  0.11971300  0.98630079  1
  O  O257  1  0.74325802  0.63517633  0.49920020  1
  O  O258  1  0.76323958  0.62633394  1.02180156  1
  O  O259  1  0.25863505  0.37195655  0.00993299  1
  O  O260  1  0.24568721  0.36367183  0.49929050  1
  O  O261  1  0.24274431  0.88050029  0.01514772  1
  O  O262  1  0.24558057  0.86681232  0.50731920  1
  O  O263  1  0.75643360  0.37774643  0.01675627  1
  O  O264  1  0.76568875  0.37156633  0.51608400  1
  O  O265  1  0.75609216  0.88110029  0.00522664  1
  O  O266  1  0.74552016  0.86334454  0.50729760  1
  O  O267  1  0.11775370  0.49958887  0.23687357  1
  O  O268  1  0.13779036  0.50312755  0.74439702  1
  O  O269  1  0.13334264  0.99415530  0.25041498  1
  O  O270  1  0.13822814  1.00153135  0.74042484  1
  O  O271  1  0.63134698  0.49140610  0.25072640  1
  O  O272  1  0.62464985  0.49441442  0.74100096  1
  O  O273  1  0.63020331  0.99664811  0.24606522  1
  O  O274  1  0.61838136  0.98703598  0.73874766  1
  O  O275  1  0.36207227  0.00195323  0.25619529  1
  O  O276  1  0.36429931  0.00285773  0.75678991  1
  O  O277  1  0.37986213  0.51148878  0.26133866  1
  O  O278  1  0.36267181  0.50980136  0.74859457  1
  O  O279  1  0.87035208  0.01164279  0.25706887  1
  O  O280  1  0.88053383  0.01073699  0.74526746  1
  O  O281  1  0.87021074  0.51115994  0.24978225  1
  O  O282  1  0.87871612  0.49868925  0.76661641  1
  O  O283  1  0.11507979  0.38240974  0.37004276  1
  O  O284  1  0.11765345  0.36615540  0.87773155  1
  O  O285  1  0.13222944  0.86644326  0.36602548  1
  O  O286  1  0.12000901  0.86978533  0.87145959  1
  O  O287  1  0.62739815  0.36573680  0.36507504  1
  O  O288  1  0.61894168  0.36513069  0.87786831  1
  O  O289  1  0.61612870  0.87324295  0.36889730  1
  O  O290  1  0.61527233  0.87322901  0.86370348  1
  O  O291  1  0.37340619  0.13853291  0.11865686  1
  O  O292  1  0.38745319  0.12765411  0.62661819  1
  O  O293  1  0.38349611  0.62802714  0.13428841  1
  O  O294  1  0.38535200  0.61814958  0.62805658  1
  O  O295  1  0.88139116  0.12121460  0.13492806  1
  O  O296  1  0.87786619  0.12862365  0.63189036  1
  O  O297  1  0.88212359  0.62702156  0.12842434  1
  O  O298  1  0.88975309  0.62077444  0.62323503  1
  O  O299  1  0.25741765  0.25612621  0.12250375  1
  O  O300  1  0.25115456  0.25246913  0.61652233  1
  O  O301  1  0.25031373  0.76630531  0.12474048  1
  O  O302  1  0.24363675  0.76103436  0.61375588  1
  O  O303  1  0.74949916  0.26203392  0.13362373  1
  O  O304  1  0.75493413  0.25622006  0.62787339  1
  O  O305  1  0.75054319  0.75764056  0.13236601  1
  O  O306  1  0.74490816  0.76257399  0.61148869  1
  O  O307  1  0.25653957  0.23978902  0.38027108  1
  O  O308  1  0.24563872  0.24272623  0.87574895  1
  O  O309  1  0.24181915  0.74326140  0.37901885  1
  O  O310  1  0.23756926  0.75895807  0.87130962  1
  O  O311  1  0.74041620  0.24207840  0.37662205  1
  O  O312  1  0.73845116  0.24549947  0.87183760  1
  O  O313  1  0.74238347  0.74616118  0.38446491  1
  O  O314  1  0.76267763  0.77528319  0.87781887  1
  O  O315  1  0.00366444  0.12083348  0.00454678  1
  O  O316  1  0.00812019  0.12029961  0.50577904  1
  O  O317  1  0.01086508  0.61984408  0.00937933  1
  O  O318  1  0.00604045  0.62089658  0.50640133  1
  O  O319  1  0.50831805  0.11575562  0.00189826  1
  O  O320  1  0.50027892  0.13215217  0.51779735  1
  O  O321  1  0.49360738  0.62436253  0.01469212  1
  O  O322  1  0.50781967  0.63340432  0.50948265  1
  O  O323  1  0.50578226  0.36754193  0.49729972  1
  O  O324  1  0.49536538  0.37606422  0.99283267  1
  O  O325  1  0.50201399  0.86768409  0.48720052  1
  O  O326  1  0.50902975  0.88257042  0.98779032  1
  O  O327  1  0.98983768  0.38292898  0.50506539  1
  O  O328  1  0.99453627  0.37672721  0.99726967  1
  O  O329  1  1.00838267  0.88823305  0.50183363  1
  O  O330  1  1.00654657  0.88423476  0.99262966  1
  O  O331  1  0.49172782  0.50448629  0.37404655  1
  O  O332  1  0.50420453  0.48465099  0.87117394  1
  O  O333  1  0.48476734  0.99577153  0.37173060  1
  O  O334  1  0.49451814  0.99552327  0.88015889  1
  O  O335  1  0.99618915  0.50474510  0.39226654  1
  O  O336  1  0.99697381  0.49075901  0.88022064  1
  O  O337  1  0.99171694  1.00620315  0.38215138  1
  O  O338  1  1.00611161  0.98865223  0.88068233  1
  O  O339  1  0.00300688  0.01196761  0.11775470  1
  O  O340  1  0.01030687  0.00494702  0.61756549  1
  O  O341  1  0.00537536  0.50987785  0.12008416  1
  O  O342  1  0.00641088  0.50713152  0.61789240  1
  O  O343  1  0.50307479  -0.00058581  0.11821523  1
  O  O344  1  0.50500010  0.01522315  0.63104942  1
  O  O345  1  0.50175530  0.51419265  0.12863286  1
  O  O346  1  0.51053680  0.50724984  0.62994731  1
  O  O347  1  0.24908323  0.37067083  0.23661673  1
  O  O348  1  0.24915544  0.38827484  0.75029977  1
  O  O349  1  0.24106560  0.88378567  0.24358703  1
  O  O350  1  0.24995235  0.88464216  0.73968815  1
  O  O351  1  0.74525001  0.37926480  0.24460620  1
  O  O352  1  0.75057763  0.37801894  0.74070662  1
  O  O353  1  0.74314444  0.87960634  0.24448759  1
  O  O354  1  0.73804774  0.87321563  0.72904976  1
  O  O355  1  0.24213948  0.11764596  0.25899235  1
  O  O356  1  0.24639561  0.11951725  0.76219938  1
  O  O357  1  0.26146611  0.63255042  0.25756382  1
  O  O358  1  0.26336514  0.61760075  0.74778090  1
  O  O359  1  0.75506281  0.12141038  0.25857372  1
  O  O360  1  0.75601517  0.12443799  0.76380347  1
  O  O361  1  0.75576713  0.61990069  0.25259222  1
  O  O362  1  0.75910818  0.62551410  0.73912900  1
  O  O363  1  0.36686718  0.11358822  0.37825345  1
  O  O364  1  0.36742762  0.11413092  0.88184640  1
  O  O365  1  0.37048208  0.61749095  0.36825467  1
  O  O366  1  0.38006154  0.62097514  0.86381711  1
  O  O367  1  0.86542349  0.11932914  0.36806688  1
  O  O368  1  0.85992904  0.12461676  0.86866576  1
  O  O369  1  0.86795260  0.62284663  0.36742442  1
  O  O370  1  0.88436466  0.60778441  0.87674196  1
  O  O371  1  0.13315059  0.38267977  0.12587465  1
  O  O372  1  0.12508193  0.39016362  0.62869448  1
  O  O373  1  0.13555308  0.87933973  0.13314932  1
  O  O374  1  0.13401638  0.89008530  0.62499810  1
  O  O375  1  0.63559334  0.37368847  0.13250166  1
  O  O376  1  0.63340028  0.38126916  0.62662423  1
  O  O377  1  0.63305085  0.88060265  0.13102148  1
  O  O378  1  0.62661454  0.88252780  0.62775182  1
  O  O379  1  0.10986476  0.25048237  0.24549006  1
  O  O380  1  0.11764040  0.25029249  0.75647444  1
  O  O381  1  0.12184249  0.75857786  0.25651102  1
  O  O382  1  0.11994971  0.74911179  0.75609684  1
  O  O383  1  0.61781832  0.25640199  0.25815751  1
  O  O384  1  0.61596539  0.25140101  0.76086472  1
  O  O385  1  0.61225938  0.75574046  0.25948530  1
  O  O386  1  0.61507853  0.76234801  0.74955443  1
  O  O387  1  0.38654272  0.25613894  0.24217266  1
  O  O388  1  0.38895003  0.24925133  0.75294950  1
  O  O389  1  0.38408225  0.74478146  0.25123547  1
  O  O390  1  0.37918328  0.73559144  0.75200908  1
  O  O391  1  0.88142257  0.23826737  0.25417146  1
  O  O392  1  0.88222992  0.24110536  0.74590209  1
  O  O393  1  0.88048692  0.73760688  0.25432557  1
  O  O394  1  0.89710297  0.74821601  0.75218094  1
  O  O395  1  0.37516966  0.50012664  0.48455510  1
  O  O396  1  0.38142954  0.48634241  1.00584563  1
  O  O397  1  0.36954455  1.00045062  0.48788739  1
  O  O398  1  0.38730205  1.00130233  0.99400923  1
  O  O399  1  0.88138407  0.49232747  0.50305811  1
  O  O400  1  0.88524655  0.48788228  0.98849347  1
  O  O401  1  0.88787835  1.00438285  0.48961902  1
  O  O402  1  0.88724108  1.00417425  1.00208401  1
  O  O403  1  0.11685374  0.01350561  -0.00112332  1
  O  O404  1  0.12244271  0.01003216  0.50467183  1
  O  O405  1  0.12093630  0.50608142  0.00884802  1
  O  O406  1  0.11869358  0.50711804  0.50798136  1
  O  O407  1  0.61396522  0.00820142  0.00493405  1
  O  O408  1  0.62223152  0.00141946  0.51131890  1
  O  O409  1  0.62301819  0.50962544  0.00419558  1
  O  O410  1  0.62574248  0.51480129  0.50543367  1
  O  O411  1  0.36995235  0.36822550  0.12090860  1
  O  O412  1  0.37284448  0.37237871  0.62184808  1
  O  O413  1  0.35806456  0.87576916  0.13317883  1
  O  O414  1  0.36558563  0.88026869  0.62535829  1
  O  O415  1  0.86230321  0.38036924  0.11809910  1
  O  O416  1  0.87071368  0.36895773  0.62447599  1
  O  O417  1  0.86288624  0.87815455  0.13231242  1
  O  O418  1  0.85948109  0.88023663  0.62834980  1
  O  O419  1  0.13651484  0.12065997  0.38445595  1
  O  O420  1  0.13107184  0.13019037  0.87956599  1
  O  O421  1  0.13391256  0.63050635  0.37733094  1
  O  O422  1  0.11701863  0.63450540  0.88620066  1
  O  O423  1  0.63293172  0.13058033  0.37679945  1
  O  O424  1  0.63526754  0.12754230  0.87949127  1
  O  O425  1  0.62936188  0.63109771  0.38160865  1
  O  O426  1  0.63049673  0.63200107  0.87263915  1
