# generated using pymatgen
data_V85Zn86O256
_symmetry_space_group_name_H-M   'P 1'
_cell_length_a   16.93944790
_cell_length_b   16.93973565
_cell_length_c   16.95270854
_cell_angle_alpha   89.96069752
_cell_angle_beta   90.05793872
_cell_angle_gamma   89.96194397
_symmetry_Int_Tables_number   1
_chemical_formula_structural   V85Zn86O256
_chemical_formula_sum   'V85 Zn86 O256'
_cell_volume   4864.57110239
_cell_formula_units_Z   1
loop_
 _symmetry_equiv_pos_site_id
 _symmetry_equiv_pos_as_xyz
  1  'x, y, z'
loop_
 _atom_site_type_symbol
 _atom_site_label
 _atom_site_symmetry_multiplicity
 _atom_site_fract_x
 _atom_site_fract_y
 _atom_site_fract_z
 _atom_site_occupancy
  V  V0  1  0.75338286  0.37787805  0.12433400  1
  V  V1  1  0.62768573  0.24916564  0.87266492  1
  V  V2  1  0.50322944  0.62416093  0.12627454  1
  V  V3  1  0.87793537  0.88136251  0.48446931  1
  V  V4  1  0.26250893  0.00240874  0.74990211  1
  V  V5  1  -0.00154782  0.50773370  -0.00013696  1
  V  V6  1  0.50122765  0.87333585  0.37493438  1
  V  V7  1  0.12622505  0.00032745  0.12130766  1
  V  V8  1  0.11673344  0.49666942  0.62772618  1
  V  V9  1  0.37904993  -0.00181112  0.37155789  1
  V  V10  1  0.76644378  0.49216644  0.26203645  1
  V  V11  1  0.50113276  0.49990633  0.50252380  1
  V  V12  1  0.24605627  0.62566310  0.37756985  1
  V  V13  1  0.62460536  0.62069832  0.50166854  1
  V  V14  1  0.24754732  0.86769037  0.11804659  1
  V  V15  1  0.11928182  0.50724937  0.12522708  1
  V  V16  1  0.74033181  0.25337046  0.49982114  1
  V  V17  1  0.12593090  0.12416808  -0.00476604  1
  V  V18  1  0.37440707  0.24505128  0.62637762  1
  V  V19  1  0.13090646  -0.00387121  0.62529638  1
  V  V20  1  -0.00242069  0.12351985  0.62465362  1
  V  V21  1  0.37328554  0.37466472  0.50161818  1
  V  V22  1  0.25173935  0.25016830  0.50116404  1
  V  V23  1  0.24834312  0.25391684  0.00209489  1
  V  V24  1  0.87038501  0.25705857  0.62222541  1
  V  V25  1  0.86779616  0.50201935  0.87488846  1
  V  V26  1  0.12735091  0.12407659  0.50064543  1
  V  V27  1  0.87014113  0.63096042  0.75807857  1
  V  V28  1  -0.00155355  0.87834186  0.87430002  1
  V  V29  1  0.75275008  0.75343291  0.49673508  1
  V  V30  1  0.37018764  0.50073575  0.37976569  1
  V  V31  1  0.37284184  0.75299275  0.62665677  1
  V  V32  1  0.63665680  0.74815796  0.87558949  1
  V  V33  1  0.24719323  0.49696633  0.75278759  1
  V  V34  1  0.63071218  0.88476816  0.24028435  1
  V  V35  1  0.62155014  0.23618834  0.36821953  1
  V  V36  1  0.13272274  0.87528128  0.74926261  1
  V  V37  1  0.12358226  0.25093924  0.37217758  1
  V  V38  1  0.76119770  0.11694508  0.38266609  1
  V  V39  1  0.00107492  0.37743276  0.86983232  1
  V  V40  1  0.00018063  0.25080784  0.74708565  1
  V  V41  1  0.37325452  0.62738901  0.25125038  1
  V  V42  1  0.49729294  0.12024144  0.62625791  1
  V  V43  1  0.49790736  0.50232244  0.00115196  1
  V  V44  1  0.87275141  0.63172241  0.22704576  1
  V  V45  1  0.25512065  0.12502986  0.37215833  1
  V  V46  1  0.50512678  0.00412606  0.49631042  1
  V  V47  1  0.62242029  0.11825011  0.01687599  1
  V  V48  1  0.26286482  0.12290317  0.87064982  1
  V  V49  1  0.74706812  0.11208470  0.86907713  1
  V  V50  1  0.38512262  0.14059825  0.23629897  1
  V  V51  1  0.75547985  0.24899789  -0.00158615  1
  V  V52  1  0.11662020  0.62496955  0.50493517  1
  V  V53  1  0.62321047  0.37752235  0.73992268  1
  V  V54  1  0.11776193  0.87577763  0.25189861  1
  V  V55  1  0.37117647  0.74663572  0.11644947  1
  V  V56  1  0.11689679  0.75489430  0.37659108  1
  V  V57  1  0.24330054  0.37359215  0.62788607  1
  V  V58  1  -0.00296222  0.00028186  0.48855207  1
  V  V59  1  0.62652903  0.74564844  0.37276721  1
  V  V60  1  0.25345081  0.63211199  0.87880103  1
  V  V61  1  0.49470676  0.24236237  0.74960149  1
  V  V62  1  0.12761591  0.63198056  0.00078494  1
  V  V63  1  0.75469929  0.87954031  0.62645005  1
  V  V64  1  -0.00388165  0.74874189  0.23760233  1
  V  V65  1  0.74157638  0.50446537  0.75195000  1
  V  V66  1  0.75483115  0.74593648  0.01698265  1
  V  V67  1  0.63030311  0.88097241  0.75370118  1
  V  V68  1  0.12527425  0.25478552  0.86906758  1
  V  V69  1  0.42010763  0.33069636  0.05404557  1
  V  V70  1  0.50160377  0.74952028  0.75294267  1
  V  V71  1  0.50144039  0.37123523  0.36973990  1
  V  V72  1  0.24548666  0.37783313  0.12124017  1
  V  V73  1  0.37242763  0.88195546  -0.00512448  1
  V  V74  1  0.86990216  0.87611934  0.01238937  1
  V  V75  1  0.50294402  0.62041445  0.62751858  1
  V  V76  1  0.63150624  0.00358045  0.62241270  1
  V  V77  1  0.00319568  0.74999150  0.74989718  1
  V  V78  1  -0.00190735  0.12792137  0.12240258  1
  V  V79  1  0.11765734  0.37506019  0.24951609  1
  V  V80  1  0.49971934  0.88320405  0.87652767  1
  V  V81  1  0.25173517  -0.00198815  0.24805884  1
  V  V82  1  0.81029647  0.56649872  0.42731160  1
  V  V83  1  0.24849679  0.75792494  0.50532349  1
  V  V84  1  0.49348309  0.37547563  0.87099393  1
  Zn  Zn85  1  0.37531178  0.62239290  0.75286646  1
  Zn  Zn86  1  0.86654860  -0.00636529  0.86790915  1
  Zn  Zn87  1  0.74891034  0.38000780  0.62215667  1
  Zn  Zn88  1  0.87752059  0.75358793  0.62528469  1
  Zn  Zn89  1  0.49834262  0.00345311  0.01010391  1
  Zn  Zn90  1  0.88338003  0.12257890  0.26679228  1
  Zn  Zn91  1  0.63133667  0.62130432  -0.00365243  1
  Zn  Zn92  1  0.63026398  0.50241530  0.13017694  1
  Zn  Zn93  1  0.37275776  0.87616742  0.50227307  1
  Zn  Zn94  1  0.87649899  0.37532775  -0.00083416  1
  Zn  Zn95  1  -0.05164674  0.41635392  0.40935776  1
  Zn  Zn96  1  0.37063824  0.49641068  0.88062964  1
  Zn  Zn97  1  0.50127452  0.74993843  0.24871282  1
  Zn  Zn98  1  0.76172975  0.00054981  0.24140291  1
  Zn  Zn99  1  -0.00269170  -0.00043570  -0.00374143  1
  Zn  Zn100  1  0.62583229  0.37487576  0.25183269  1
  Zn  Zn101  1  0.24517542  0.50306493  0.24972168  1
  Zn  Zn102  1  0.86545409  0.11718175  0.74552031  1
  Zn  Zn103  1  -0.00186936  0.25175648  0.24756700  1
  Zn  Zn104  1  0.13024869  0.75329538  0.87944582  1
  Zn  Zn105  1  0.87560061  0.25005725  0.13163202  1
  Zn  Zn106  1  -0.00162753  0.62226861  0.62744710  1
  Zn  Zn107  1  0.19145927  0.18736212  0.18503911  1
  Zn  Zn108  1  0.18581259  0.18438622  0.68993061  1
  Zn  Zn109  1  0.18495929  0.68851826  0.18851886  1
  Zn  Zn110  1  0.18912707  0.68540805  0.69020726  1
  Zn  Zn111  1  0.69811014  0.18916626  0.19482413  1
  Zn  Zn112  1  0.68217933  0.18635956  0.68603363  1
  Zn  Zn113  1  0.68766300  0.68274696  0.19312072  1
  Zn  Zn114  1  0.68811637  0.69011104  0.68602799  1
  Zn  Zn115  1  0.30753020  0.31605572  0.31032777  1
  Zn  Zn116  1  0.31194914  0.31085103  0.80984429  1
  Zn  Zn117  1  0.30988895  0.81071138  0.30973057  1
  Zn  Zn118  1  0.31455012  0.81270282  0.81160379  1
  Zn  Zn119  1  0.81895265  0.31245509  0.31593978  1
  Zn  Zn120  1  0.81366235  0.31275887  0.80976102  1
  Zn  Zn121  1  0.80980484  0.80985237  0.30912075  1
  Zn  Zn122  1  0.81316921  0.81776153  0.81368024  1
  Zn  Zn123  1  0.13883666  0.45844411  0.41990288  1
  Zn  Zn124  1  0.18426722  0.43945568  0.93759472  1
  Zn  Zn125  1  0.18639845  0.93807972  0.43641254  1
  Zn  Zn126  1  0.19067191  0.93864224  0.93329323  1
  Zn  Zn127  1  0.68371611  0.43082439  0.44001295  1
  Zn  Zn128  1  0.68339407  0.43595043  0.93614221  1
  Zn  Zn129  1  0.68554976  0.93702929  0.43555659  1
  Zn  Zn130  1  0.68965612  0.93643736  1.06651281  1
  Zn  Zn131  1  0.31378472  0.06141851  0.06250610  1
  Zn  Zn132  1  0.31538761  0.06018499  0.56220833  1
  Zn  Zn133  1  0.31369428  0.55726975  0.05957251  1
  Zn  Zn134  1  0.30836948  0.56562909  0.56513800  1
  Zn  Zn135  1  0.81420177  0.06137851  0.05949434  1
  Zn  Zn136  1  0.81332056  0.06822222  0.55567248  1
  Zn  Zn137  1  0.81109219  0.56299873  0.06105970  1
  Zn  Zn138  1  0.81040042  0.56538609  0.58770287  1
  Zn  Zn139  1  0.43751162  0.44715279  0.19591892  1
  Zn  Zn140  1  0.43284133  0.43778827  0.68810694  1
  Zn  Zn141  1  0.43648183  0.93310243  0.18790027  1
  Zn  Zn142  1  0.44169638  0.93309139  0.68576585  1
  Zn  Zn143  1  0.93674562  0.43784994  0.18658777  1
  Zn  Zn144  1  0.93460413  0.43747491  0.69213444  1
  Zn  Zn145  1  0.93860243  0.94699716  0.19036244  1
  Zn  Zn146  1  0.93852815  0.94137020  0.68748327  1
  Zn  Zn147  1  0.06531981  0.06621319  0.30924181  1
  Zn  Zn148  1  0.06437991  0.06237379  0.81030985  1
  Zn  Zn149  1  0.04843476  0.56448912  0.31200308  1
  Zn  Zn150  1  0.06502171  0.56425974  0.81331344  1
  Zn  Zn151  1  0.55905759  0.06320048  0.19037301  1
  Zn  Zn152  1  0.56494002  0.06122524  0.81276044  1
  Zn  Zn153  1  0.56795597  0.55786581  0.31297118  1
  Zn  Zn154  1  0.56192119  0.56445234  0.81624830  1
  Zn  Zn155  1  0.44026462  0.18417908  0.43490389  1
  Zn  Zn156  1  0.44222473  0.18578648  0.93821068  1
  Zn  Zn157  1  0.43697134  0.68871996  0.43966411  1
  Zn  Zn158  1  0.43827805  0.68977164  0.93691060  1
  Zn  Zn159  1  0.94464075  0.21977811  0.44798097  1
  Zn  Zn160  1  0.93537229  0.18499957  0.93414153  1
  Zn  Zn161  1  0.94167648  0.69796021  0.43753175  1
  Zn  Zn162  1  0.93674015  0.69143915  0.93771653  1
  Zn  Zn163  1  0.06123724  0.31547517  0.05826273  1
  Zn  Zn164  1  0.05802672  0.31800946  0.55486640  1
  Zn  Zn165  1  0.05919239  0.81387540  0.06089527  1
  Zn  Zn166  1  0.06024829  0.81734629  0.56459052  1
  Zn  Zn167  1  0.58300815  0.31029925  0.06357766  1
  Zn  Zn168  1  0.56065835  0.30923765  0.55870311  1
  Zn  Zn169  1  0.55844954  0.80795775  0.05927385  1
  Zn  Zn170  1  0.56361557  0.81207971  0.56292788  1
  O  O171  1  0.12215031  0.12190476  0.11339291  1
  O  O172  1  0.11856736  0.11999768  0.61822513  1
  O  O173  1  0.13081480  0.61430749  0.11815877  1
  O  O174  1  0.12277499  0.61811358  0.62154763  1
  O  O175  1  0.62323816  0.13626738  0.11974615  1
  O  O176  1  0.61303474  0.11318346  0.62875720  1
  O  O177  1  0.61406931  0.62456231  0.12290752  1
  O  O178  1  0.61608673  0.63110800  0.61462068  1
  O  O179  1  0.37698384  0.38091333  0.38145476  1
  O  O180  1  0.38898962  0.37404954  0.86958545  1
  O  O181  1  0.38182469  0.88025826  0.37331095  1
  O  O182  1  0.38484140  0.86666559  0.88455995  1
  O  O183  1  0.85184160  0.41221748  0.35388689  1
  O  O184  1  0.88257773  0.38435125  0.87489421  1
  O  O185  1  0.87051852  0.87169562  0.38593610  1
  O  O186  1  0.88371404  0.87532830  0.88244672  1
  O  O187  1  0.25796248  0.00590008  0.37087880  1
  O  O188  1  0.24673174  0.01164692  0.86357953  1
  O  O189  1  0.24498192  0.51511130  0.37771396  1
  O  O190  1  0.25028878  0.50262687  0.86816187  1
  O  O191  1  0.74840599  0.01555342  0.38228476  1
  O  O192  1  0.74191037  0.01467072  0.87450079  1
  O  O193  1  0.73747167  0.51397916  0.37320777  1
  O  O194  1  0.76017298  0.49510009  0.86956340  1
  O  O195  1  0.23951813  0.49331126  0.12445245  1
  O  O196  1  0.24364712  0.49179604  0.63275237  1
  O  O197  1  0.24528250  0.98971607  0.12853545  1
  O  O198  1  0.23834390  1.00807687  0.63133809  1
  O  O199  1  0.75310145  0.49269196  0.13303065  1
  O  O200  1  0.74577144  0.49529377  0.64505935  1
  O  O201  1  0.74463261  1.01074030  0.12828676  1
  O  O202  1  0.73942985  0.99516926  0.61636725  1
  O  O203  1  0.01275006  0.37309274  0.24608513  1
  O  O204  1  -0.00275491  0.36729670  0.76184284  1
  O  O205  1  0.01301777  0.87039087  0.24405310  1
  O  O206  1  0.01071063  0.87034073  0.75555245  1
  O  O207  1  0.49966017  0.38120020  0.26636434  1
  O  O208  1  0.50498759  0.36970469  0.75460737  1
  O  O209  1  0.50961268  0.87166076  0.26135813  1
  O  O210  1  0.50835143  0.86776715  0.75531682  1
  O  O211  1  0.48410939  0.12733065  0.25031365  1
  O  O212  1  0.50378427  0.13225349  0.74303888  1
  O  O213  1  0.49320217  0.62289088  0.24216789  1
  O  O214  1  0.49942827  0.63003661  0.74354600  1
  O  O215  1  1.00552722  0.12623164  0.23340821  1
  O  O216  1  1.00297445  0.13139394  0.73716330  1
  O  O217  1  0.98342358  0.63406677  0.25200910  1
  O  O218  1  0.99472172  0.63505410  0.75245829  1
  O  O219  1  0.36875199  0.26072494  -0.00392437  1
  O  O220  1  0.37087957  0.25249117  0.50564563  1
  O  O221  1  0.37761421  0.75748958  0.01206865  1
  O  O222  1  0.36549202  0.75001973  0.50704828  1
  O  O223  1  0.86306810  0.25261830  -0.00436345  1
  O  O224  1  0.85296237  0.24292959  0.51308964  1
  O  O225  1  0.86222664  0.75952795  -0.00450769  1
  O  O226  1  0.86892294  0.75922476  0.50327515  1
  O  O227  1  0.13406137  0.24269424  0.49132678  1
  O  O228  1  0.13192576  0.24491727  0.99086416  1
  O  O229  1  0.12923321  0.74919121  0.49536535  1
  O  O230  1  0.12059511  0.73567003  1.00078593  1
  O  O231  1  0.63383873  0.24935875  0.49361838  1
  O  O232  1  0.63540961  0.24123419  0.99106636  1
  O  O233  1  0.63267428  0.74128007  0.49555598  1
  O  O234  1  0.63817530  0.75316770  0.99106105  1
  O  O235  1  0.48097350  0.27619089  0.10904885  1
  O  O236  1  0.49750629  0.23966632  0.63040470  1
  O  O237  1  0.49134510  0.73943476  0.12613218  1
  O  O238  1  0.49682790  0.74071067  0.63148501  1
  O  O239  1  1.00112713  0.24337152  0.12322832  1
  O  O240  1  0.99310514  0.24505071  0.63103806  1
  O  O241  1  1.00797379  0.74875674  0.13881155  1
  O  O242  1  0.99909638  0.75262171  0.63979706  1
  O  O243  1  0.02335167  0.22542343  0.36314788  1
  O  O244  1  0.00498656  0.25518310  0.86845583  1
  O  O245  1  0.01313616  0.75198027  0.36601896  1
  O  O246  1  0.00337529  0.76050965  0.86547163  1
  O  O247  1  0.51302721  0.25625795  0.38412976  1
  O  O248  1  0.50627847  0.25395798  0.86727688  1
  O  O249  1  0.50550505  0.75759243  0.37545073  1
  O  O250  1  0.50754602  0.75727197  0.86954598  1
  O  O251  1  0.24902098  0.12940558  0.49204747  1
  O  O252  1  0.24256430  0.13297101  0.99408982  1
  O  O253  1  0.24023188  0.63679838  0.49593725  1
  O  O254  1  0.24135692  0.61574927  0.99018419  1
  O  O255  1  0.74379161  0.13568571  0.49112455  1
  O  O256  1  0.73881503  0.13219185  0.99115062  1
  O  O257  1  0.75060489  0.62799323  0.49708669  1
  O  O258  1  0.74956094  0.64037391  1.00097119  1
  O  O259  1  0.24478244  0.37016325  0.01031306  1
  O  O260  1  0.25734885  0.36645184  0.51383225  1
  O  O261  1  0.25605305  0.87610047  0.00729209  1
  O  O262  1  0.25089051  0.86197577  0.49601840  1
  O  O263  1  0.74907538  0.36745577  0.00549543  1
  O  O264  1  0.74463249  0.36057383  0.50566264  1
  O  O265  1  0.76185314  0.86577809  0.00475583  1
  O  O266  1  0.75537499  0.86968410  0.50534652  1
  O  O267  1  0.12377950  0.49588584  0.24059926  1
  O  O268  1  0.13716645  0.50325505  0.74277830  1
  O  O269  1  0.13100050  0.99286946  0.24318184  1
  O  O270  1  0.13159448  0.99359022  0.74237900  1
  O  O271  1  0.64466873  0.49821089  0.25111006  1
  O  O272  1  0.63090215  0.49031248  0.76282255  1
  O  O273  1  0.62537242  0.98558799  0.25204213  1
  O  O274  1  0.61964310  0.98740402  0.73937346  1
  O  O275  1  0.36950425  0.00199109  0.26021157  1
  O  O276  1  0.36129874  -0.00815522  0.74092378  1
  O  O277  1  0.36633991  0.50886327  0.26185283  1
  O  O278  1  0.36116096  0.50147220  0.75206121  1
  O  O279  1  0.87570044  0.00976091  0.25370715  1
  O  O280  1  0.87874106  0.00508337  0.75536977  1
  O  O281  1  0.87107602  0.51722687  0.23962528  1
  O  O282  1  0.86691617  0.50862088  0.75764004  1
  O  O283  1  0.13997436  0.36106548  0.36117291  1
  O  O284  1  0.11827280  0.36274916  0.87773943  1
  O  O285  1  0.13302020  0.86703650  0.36342511  1
  O  O286  1  0.11921399  0.87226905  0.86871135  1
  O  O287  1  0.61479939  0.36670422  0.37510534  1
  O  O288  1  0.61388854  0.36371683  0.87011743  1
  O  O289  1  0.61829076  0.86531271  0.36980118  1
  O  O290  1  0.61697612  0.86248614  0.86461580  1
  O  O291  1  0.36783179  0.12668275  0.13718683  1
  O  O292  1  0.38825648  0.12854409  0.62201079  1
  O  O293  1  0.37893385  0.62938359  0.12815269  1
  O  O294  1  0.38367080  0.63496033  0.62576145  1
  O  O295  1  0.89339048  0.12893766  0.10971610  1
  O  O296  1  0.88220705  0.13445390  0.62607128  1
  O  O297  1  0.87615094  0.63187775  0.12874949  1
  O  O298  1  0.88108272  0.63242693  0.64230101  1
  O  O299  1  0.24499867  0.25827975  0.10963991  1
  O  O300  1  0.25289958  0.25404897  0.62391895  1
  O  O301  1  0.25508554  0.75946842  0.12817403  1
  O  O302  1  0.25898662  0.74381461  0.61749484  1
  O  O303  1  0.75289184  0.25660795  0.11598088  1
  O  O304  1  0.75151396  0.24944315  0.61844415  1
  O  O305  1  0.74606599  0.74849290  0.11501818  1
  O  O306  1  0.75037728  0.75886743  0.61271224  1
  O  O307  1  0.24606593  0.24082232  0.37875008  1
  O  O308  1  0.24279798  0.24822523  0.88096761  1
  O  O309  1  0.24269910  0.74171972  0.38139772  1
  O  O310  1  0.24981888  0.73604906  0.87153767  1
  O  O311  1  0.74018996  0.24812991  0.38584090  1
  O  O312  1  0.74177800  0.24978765  0.88018802  1
  O  O313  1  0.74127070  0.75265449  0.38811232  1
  O  O314  1  0.73825695  0.75497810  0.87847943  1
  O  O315  1  0.01351136  0.12559578  -0.00128244  1
  O  O316  1  0.00570322  0.12369080  0.51118378  1
  O  O317  1  0.00776617  0.61427558  -0.00941867  1
  O  O318  1  0.01289525  0.63656219  0.50651161  1
  O  O319  1  0.51856679  0.12612322  -0.00320933  1
  O  O320  1  0.49641234  0.11074207  0.50639244  1
  O  O321  1  0.50052239  0.61801607  0.00873240  1
  O  O322  1  0.50756695  0.62188465  0.50746380  1
  O  O323  1  0.49339021  0.38068142  0.49404812  1
  O  O324  1  0.49930991  0.37757065  0.99410127  1
  O  O325  1  0.49934351  0.88013077  0.48961580  1
  O  O326  1  0.49212166  0.87423330  0.99163729  1
  O  O327  1  0.98209879  0.33114750  0.47579415  1
  O  O328  1  0.99960197  0.38586279  0.98667262  1
  O  O329  1  0.99026349  0.88662771  0.50385139  1
  O  O330  1  0.99047877  0.87270257  0.99048127  1
  O  O331  1  0.49347662  0.49348943  0.38398160  1
  O  O332  1  0.49855783  0.49155533  0.88271074  1
  O  O333  1  0.49173411  0.99078741  0.38231083  1
  O  O334  1  0.50623325  0.98608468  0.87814482  1
  O  O335  1  1.03065928  0.49087019  0.39133343  1
  O  O336  1  0.99337285  0.49339473  0.87666770  1
  O  O337  1  1.00994915  1.00847652  0.39016010  1
  O  O338  1  1.00449850  0.98787612  0.87621549  1
  O  O339  1  0.01090112  0.00867055  0.11632044  1
  O  O340  1  0.01131728  0.00857258  0.61951284  1
  O  O341  1  0.00756689  0.49546107  0.11212723  1
  O  O342  1  0.01191095  0.49854351  0.63241124  1
  O  O343  1  0.49947951  -0.00362032  0.12342744  1
  O  O344  1  0.50565864  0.00303103  0.61733905  1
  O  O345  1  0.50291196  0.50735061  0.12077099  1
  O  O346  1  0.49386059  0.51260569  0.62054011  1
  O  O347  1  0.24037623  0.37777239  0.23579519  1
  O  O348  1  0.25195043  0.37922856  0.73724943  1
  O  O349  1  0.24130937  0.87865526  0.24034738  1
  O  O350  1  0.23883705  0.88220819  0.75720593  1
  O  O351  1  0.75074325  0.38136705  0.24097807  1
  O  O352  1  0.73864450  0.38136427  0.75150936  1
  O  O353  1  0.73394831  0.87780004  0.25545622  1
  O  O354  1  0.74130121  0.86988522  0.73963459  1
  O  O355  1  0.25533072  0.11723612  0.25619612  1
  O  O356  1  0.24807604  0.11652471  0.75867803  1
  O  O357  1  0.25401072  0.62696722  0.26069053  1
  O  O358  1  0.25167904  0.61588808  0.76050728  1
  O  O359  1  0.75294442  0.12505787  0.27145170  1
  O  O360  1  0.74581937  0.13200039  0.76536588  1
  O  O361  1  0.76691900  0.61902579  0.24887658  1
  O  O362  1  0.75641971  0.61892037  0.74855590  1
  O  O363  1  0.36798315  0.11785773  0.36897063  1
  O  O364  1  0.36183939  0.13155287  0.88034117  1
  O  O365  1  0.36572083  0.62138364  0.37437314  1
  O  O366  1  0.36799484  0.61992056  0.87671044  1
  O  O367  1  0.86247250  0.13583258  0.38750942  1
  O  O368  1  0.85676697  0.12277100  0.87726378  1
  O  O369  1  0.87468964  0.62428443  0.37558672  1
  O  O370  1  0.87945762  0.61743256  0.86580979  1
  O  O371  1  0.12908741  0.38452240  0.12806603  1
  O  O372  1  0.13160260  0.38219932  0.61661813  1
  O  O373  1  0.13167272  0.87890288  0.12760214  1
  O  O374  1  0.12320473  0.88573998  0.63451554  1
  O  O375  1  0.63983385  0.37901968  0.13020476  1
  O  O376  1  0.62164332  0.37121587  0.63751737  1
  O  O377  1  0.62145808  0.86900308  0.13673216  1
  O  O378  1  0.63417532  0.88003521  0.63101679  1
  O  O379  1  0.12946497  0.25843771  0.25385613  1
  O  O380  1  0.11165202  0.24683084  0.75620787  1
  O  O381  1  0.11929462  0.75591618  0.25755654  1
  O  O382  1  0.12080101  0.75802271  0.75186429  1
  O  O383  1  0.62897040  0.25404601  0.26508276  1
  O  O384  1  0.61518531  0.25677994  0.75578182  1
  O  O385  1  0.62382277  0.75516851  0.25906783  1
  O  O386  1  0.62223940  0.75602567  0.75807442  1
  O  O387  1  0.36905660  0.23878563  0.25308910  1
  O  O388  1  0.38772424  0.25274967  0.74334492  1
  O  O389  1  0.37691723  0.74450376  0.23870358  1
  O  O390  1  0.38292692  0.74679933  0.74360958  1
  O  O391  1  0.88027132  0.24112193  0.24976114  1
  O  O392  1  0.88562391  0.24285474  0.74644956  1
  O  O393  1  0.88056540  0.74072413  0.25148116  1
  O  O394  1  0.88239481  0.74571900  0.75263995  1
  O  O395  1  0.37770765  0.49665280  0.49732102  1
  O  O396  1  0.39056014  0.49231543  1.00102666  1
  O  O397  1  0.38013492  0.99611456  0.48843785  1
  O  O398  1  0.37572893  0.98634710  1.00107568  1
  O  O399  1  0.86055386  0.51178015  0.49497790  1
  O  O400  1  0.88096299  0.50102252  0.99093681  1
  O  O401  1  0.88544016  0.99354457  0.50498927  1
  O  O402  1  0.87537392  0.98635365  0.99149252  1
  O  O403  1  0.12746925  0.00960200  0.00265511  1
  O  O404  1  0.12239589  0.00467109  0.50770211  1
  O  O405  1  0.11654880  0.50830984  0.00514499  1
  O  O406  1  0.13722494  0.51562002  0.51766223  1
  O  O407  1  0.62508247  0.01640481  0.00379970  1
  O  O408  1  0.61432910  -0.00808800  0.50932298  1
  O  O409  1  0.61331609  0.50142921  0.00182128  1
  O  O410  1  0.62046707  0.51346664  0.49590058  1
  O  O411  1  0.36548897  0.38425323  0.12555551  1
  O  O412  1  0.36886986  0.36624113  0.62027455  1
  O  O413  1  0.36603819  0.86537763  0.11957466  1
  O  O414  1  0.38329380  0.85799688  0.62062225  1
  O  O415  1  0.86652515  0.37214000  0.12001616  1
  O  O416  1  0.87066469  0.36129655  0.63449879  1
  O  O417  1  0.88637179  0.87751603  0.10985102  1
  O  O418  1  0.86305509  0.87618533  0.62131314  1
  O  O419  1  0.14193270  0.12607087  0.37859613  1
  O  O420  1  0.13079486  0.13617828  0.87917010  1
  O  O421  1  0.12953971  0.63501399  0.38381500  1
  O  O422  1  0.13414597  0.62626335  0.88371892  1
  O  O423  1  0.63110711  0.13884582  0.37496833  1
  O  O424  1  0.63130657  0.13479122  0.87801358  1
  O  O425  1  0.61545485  0.63885129  0.38370399  1
  O  O426  1  0.61827260  0.64391389  0.87852139  1
