# generated using pymatgen
data_V85Zn86O256
_symmetry_space_group_name_H-M   'P 1'
_cell_length_a   16.93038034
_cell_length_b   16.93522139
_cell_length_c   16.93055224
_cell_angle_alpha   90.06866022
_cell_angle_beta   89.98682871
_cell_angle_gamma   89.95094675
_symmetry_Int_Tables_number   1
_chemical_formula_structural   V85Zn86O256
_chemical_formula_sum   'V85 Zn86 O256'
_cell_volume   4854.31813003
_cell_formula_units_Z   1
loop_
 _symmetry_equiv_pos_site_id
 _symmetry_equiv_pos_as_xyz
  1  'x, y, z'
loop_
 _atom_site_type_symbol
 _atom_site_label
 _atom_site_symmetry_multiplicity
 _atom_site_fract_x
 _atom_site_fract_y
 _atom_site_fract_z
 _atom_site_occupancy
  V  V0  1  0.62411076  0.87312106  0.74940160  1
  V  V1  1  0.12493262  0.74963572  0.87447255  1
  V  V2  1  0.75052766  0.25045331  0.50645985  1
  V  V3  1  0.49620200  0.87730663  0.87520180  1
  V  V4  1  0.55201014  0.55677749  0.06139471  1
  V  V5  1  0.12500304  0.62461256  0.49883114  1
  V  V6  1  0.87261692  0.49523146  0.86980085  1
  V  V7  1  0.12546214  0.49891434  0.62576700  1
  V  V8  1  0.11766861  0.00537639  0.62443614  1
  V  V9  1  0.87735327  0.12239498  0.74926969  1
  V  V10  1  0.87965343  0.12939198  0.25306475  1
  V  V11  1  0.87553953  0.88282932  0.49389596  1
  V  V12  1  0.64512504  0.49839274  0.62488356  1
  V  V13  1  -0.00005653  0.75219614  0.24496965  1
  V  V14  1  -0.00040469  0.62746330  0.12480217  1
  V  V15  1  0.51062761  0.37644561  0.87751913  1
  V  V16  1  0.23992154  0.49634485  0.25097280  1
  V  V17  1  0.37102478  0.12807936  0.75852768  1
  V  V18  1  0.12723159  0.12941218  -0.01266325  1
  V  V19  1  0.50052819  0.74842641  0.75034052  1
  V  V20  1  -0.00200657  0.00166371  0.00090506  1
  V  V21  1  0.11556582  0.12924290  0.50124879  1
  V  V22  1  0.37976652  0.37818327  0.00327681  1
  V  V23  1  0.81146276  0.56659249  0.33354412  1
  V  V24  1  0.12376436  -0.00129217  0.12779545  1
  V  V25  1  0.25066810  0.37336501  0.62412221  1
  V  V26  1  0.25092286  0.62487647  0.87596680  1
  V  V27  1  0.62950003  0.74817326  0.36831389  1
  V  V28  1  0.12624081  0.24767634  0.35844267  1
  V  V29  1  0.49768680  -0.00089461  0.50035072  1
  V  V30  1  0.87712065  0.75188236  0.62439773  1
  V  V31  1  0.24629290  0.87613034  0.13097572  1
  V  V32  1  0.38144085  0.74926475  0.13416419  1
  V  V33  1  0.24907944  0.87713111  0.62568231  1
  V  V34  1  0.24759637  0.24263006  0.49765921  1
  V  V35  1  0.24893712  0.62428998  0.37238257  1
  V  V36  1  0.00077378  0.49453705  0.49453346  1
  V  V37  1  0.00221994  0.37098162  0.35940797  1
  V  V38  1  -0.00262685  0.87308957  0.87777814  1
  V  V39  1  0.85907773  0.87138615  0.00351927  1
  V  V40  1  0.50749591  0.25256223  0.75351401  1
  V  V41  1  0.50015333  0.36762594  0.36912789  1
  V  V42  1  0.49930838  0.87108961  0.37025565  1
  V  V43  1  -0.00070326  0.88431193  0.36965825  1
  V  V44  1  0.24617612  0.00572482  0.25388501  1
  V  V45  1  0.86378277  0.62012682  0.74404111  1
  V  V46  1  0.62567791  0.12499969  0.49931237  1
  V  V47  1  0.74588109  0.26031878  0.00688683  1
  V  V48  1  0.00323299  0.24514823  0.75787362  1
  V  V49  1  -0.00074350  0.62463074  0.62502046  1
  V  V50  1  0.38078715  0.25100947  0.12905211  1
  V  V51  1  0.37544821  0.62476299  0.74960060  1
  V  V52  1  0.37577826  0.24988322  0.62430056  1
  V  V53  1  0.88234996  0.24825450  0.62579199  1
  V  V54  1  0.64024088  0.38550691  0.24385342  1
  V  V55  1  0.62416037  0.87692282  0.24171332  1
  V  V56  1  0.74055084  0.13192215  0.87547473  1
  V  V57  1  0.62528937  0.24664252  0.36472356  1
  V  V58  1  0.74850579  0.62644360  0.88709510  1
  V  V59  1  0.62334446  -0.00154073  0.62518731  1
  V  V60  1  0.12436163  0.75576588  0.36715779  1
  V  V61  1  0.49919960  0.61979269  0.62417585  1
  V  V62  1  0.38102744  0.12744841  0.25192643  1
  V  V63  1  0.24159370  0.37303561  0.12863907  1
  V  V64  1  0.49970413  0.12582930  0.62624337  1
  V  V65  1  0.38283173  0.50153307  0.87915293  1
  V  V66  1  0.75872102  -0.00586911  0.24131287  1
  V  V67  1  0.49843208  0.00599861  0.00327366  1
  V  V68  1  0.24700482  0.24856334  -0.01178834  1
  V  V69  1  0.25220224  0.75114922  0.00250814  1
  V  V70  1  0.85787918  0.75100484  0.12642441  1
  V  V71  1  0.12479463  0.36997026  0.75854603  1
  V  V72  1  0.37459228  0.49704783  0.37521730  1
  V  V73  1  0.62691721  0.62670312  0.49524271  1
  V  V74  1  0.25037058  0.75177762  0.49908352  1
  V  V75  1  0.24997912  0.49913246  0.75069003  1
  V  V76  1  0.37018493  0.00532595  0.37678636  1
  V  V77  1  0.24745841  0.00444138  0.75730441  1
  V  V78  1  0.00102317  0.50092782  0.00018650  1
  V  V79  1  0.87558270  0.37421798  0.50135202  1
  V  V80  1  0.74960098  0.87472300  0.62456519  1
  V  V81  1  0.75699784  0.11405813  0.37741078  1
  V  V82  1  0.63698632  0.37871726  0.74600823  1
  V  V83  1  0.62838714  0.74706500  0.88663861  1
  V  V84  1  0.00121949  0.13495014  0.12708889  1
  Zn  Zn85  1  0.36971871  0.00575274  0.87873246  1
  Zn  Zn86  1  0.87006721  0.00032534  0.87666121  1
  Zn  Zn87  1  0.37663535  0.37093765  0.49804664  1
  Zn  Zn88  1  0.50450431  0.13067695  0.12890251  1
  Zn  Zn89  1  0.12637334  0.62264725  0.00114139  1
  Zn  Zn90  1  0.87244029  0.38095753  0.01646256  1
  Zn  Zn91  1  0.50001613  0.49444248  0.50124328  1
  Zn  Zn92  1  0.55270890  0.69303854  0.19467976  1
  Zn  Zn93  1  0.37322671  0.88040495  0.00183965  1
  Zn  Zn94  1  0.75239419  0.75012707  0.49297716  1
  Zn  Zn95  1  0.62275915  0.13193968  0.00204799  1
  Zn  Zn96  1  0.74950471  0.00062828  0.75349521  1
  Zn  Zn97  1  0.37376263  0.87561711  0.49890970  1
  Zn  Zn98  1  0.12282156  0.87686720  0.75067139  1
  Zn  Zn99  1  0.37531191  0.75005349  0.62260586  1
  Zn  Zn100  1  0.11916241  0.49737465  0.12868786  1
  Zn  Zn101  1  0.00008819  0.74911494  0.75109058  1
  Zn  Zn102  1  0.62993291  0.00278463  0.12099848  1
  Zn  Zn103  1  0.38099939  0.62095618  0.24599015  1
  Zn  Zn104  1  0.00081505  0.37290880  0.87739093  1
  Zn  Zn105  1  0.87382252  0.25748331  0.13093144  1
  Zn  Zn106  1  -0.00458165  0.00553527  0.49882356  1
  Zn  Zn107  1  0.19425632  0.18240657  0.17902114  1
  Zn  Zn108  1  0.18578812  0.18637334  0.68747619  1
  Zn  Zn109  1  0.18670447  0.68411902  0.18878103  1
  Zn  Zn110  1  0.18685341  0.68867648  0.68803740  1
  Zn  Zn111  1  0.68994261  0.18346162  0.18637497  1
  Zn  Zn112  1  0.68947676  0.18933105  0.68764492  1
  Zn  Zn113  1  0.69446424  0.56755638  0.18783097  1
  Zn  Zn114  1  0.68599206  0.68858321  0.68551387  1
  Zn  Zn115  1  0.30876126  0.31089125  0.31159246  1
  Zn  Zn116  1  0.31787233  0.31553284  0.81265615  1
  Zn  Zn117  1  0.30936481  0.81950505  0.31213114  1
  Zn  Zn118  1  0.31264870  0.81393333  0.81030850  1
  Zn  Zn119  1  0.81325210  0.30797448  0.32182426  1
  Zn  Zn120  1  0.81335461  0.30801579  0.81576307  1
  Zn  Zn121  1  0.81260432  0.80903451  0.30810919  1
  Zn  Zn122  1  0.81193893  0.81018991  0.81189585  1
  Zn  Zn123  1  0.18496176  0.43034514  0.43577360  1
  Zn  Zn124  1  0.19035474  0.43797633  0.94055966  1
  Zn  Zn125  1  0.18409396  0.93911810  0.43737442  1
  Zn  Zn126  1  0.18470933  0.93690615  0.94061629  1
  Zn  Zn127  1  0.68492987  0.43283571  0.43989496  1
  Zn  Zn128  1  0.68864006  0.44553208  0.94205555  1
  Zn  Zn129  1  0.68659685  0.93499998  0.43529549  1
  Zn  Zn130  1  0.68258516  0.94353202  0.93402868  1
  Zn  Zn131  1  0.31317609  0.06652105  0.06298726  1
  Zn  Zn132  1  0.30837559  0.06497155  0.56554085  1
  Zn  Zn133  1  0.31558387  0.56254572  0.06531384  1
  Zn  Zn134  1  0.31346284  0.56166103  0.55975524  1
  Zn  Zn135  1  0.81440892  0.06832060  0.06169158  1
  Zn  Zn136  1  0.81303731  0.06207523  0.56699774  1
  Zn  Zn137  1  0.81925704  0.56705688  0.05956916  1
  Zn  Zn138  1  0.81695619  0.56707055  0.53556517  1
  Zn  Zn139  1  0.43830372  0.43476008  0.19324875  1
  Zn  Zn140  1  0.43926874  0.43663493  0.68917817  1
  Zn  Zn141  1  0.43504996  0.93756420  0.18735852  1
  Zn  Zn142  1  0.43307293  0.93835618  0.68849837  1
  Zn  Zn143  1  0.83332041  0.44020376  0.19391966  1
  Zn  Zn144  1  0.93643204  0.43470465  0.68477762  1
  Zn  Zn145  1  0.93606859  0.93544567  0.18574453  1
  Zn  Zn146  1  0.93710595  0.93778810  0.68974916  1
  Zn  Zn147  1  0.06500640  0.06774979  0.31282822  1
  Zn  Zn148  1  0.05874338  0.06130892  0.81272550  1
  Zn  Zn149  1  0.05254683  0.56323147  0.31011795  1
  Zn  Zn150  1  0.05885138  0.56375808  0.81132754  1
  Zn  Zn151  1  0.56419753  0.05806503  0.31156613  1
  Zn  Zn152  1  0.56126370  0.06150115  0.81341081  1
  Zn  Zn153  1  0.55836918  0.55814793  0.31575359  1
  Zn  Zn154  1  0.56834471  0.56048921  0.81230109  1
  Zn  Zn155  1  0.43821965  0.18668620  0.43576685  1
  Zn  Zn156  1  0.43890631  0.19371607  0.93858584  1
  Zn  Zn157  1  0.43950315  0.68441089  0.43178578  1
  Zn  Zn158  1  0.43817355  0.69040515  0.94180741  1
  Zn  Zn159  1  0.93990885  0.19049958  0.43232513  1
  Zn  Zn160  1  0.93033583  0.18916557  0.93796516  1
  Zn  Zn161  1  0.94210489  0.69478884  0.43917006  1
  Zn  Zn162  1  0.93307735  0.68682308  0.93938200  1
  Zn  Zn163  1  0.05984723  0.31689843  0.06078403  1
  Zn  Zn164  1  0.06196245  0.31133677  0.56778907  1
  Zn  Zn165  1  0.06356924  0.81444475  0.06051087  1
  Zn  Zn166  1  0.06311011  0.81606338  0.55910165  1
  Zn  Zn167  1  0.56618960  0.31647600  0.06332049  1
  Zn  Zn168  1  0.56419304  0.31464796  0.56083845  1
  Zn  Zn169  1  0.56297274  0.81959404  0.05907046  1
  Zn  Zn170  1  0.55994921  0.80972232  0.55915255  1
  O  O171  1  0.11994128  0.11488824  0.11627762  1
  O  O172  1  0.12783915  0.11607239  0.61588261  1
  O  O173  1  0.11358455  0.62494074  0.12188501  1
  O  O174  1  0.12001734  0.62009045  0.62003211  1
  O  O175  1  0.61992291  0.12149124  0.12300623  1
  O  O176  1  0.61979113  0.11913744  0.62048726  1
  O  O177  1  0.61043836  0.61881818  0.12671197  1
  O  O178  1  0.61745418  0.61479548  0.62275339  1
  O  O179  1  0.38218126  0.37709103  0.37419571  1
  O  O180  1  0.38423456  0.38346775  0.88157900  1
  O  O181  1  0.38109741  0.88624445  0.37532137  1
  O  O182  1  0.38714341  0.87606313  0.87425905  1
  O  O183  1  0.89296731  0.36057733  0.38946981  1
  O  O184  1  0.87525454  0.38985986  0.86846518  1
  O  O185  1  0.88467001  0.86697527  0.38368007  1
  O  O186  1  0.87990920  0.87377703  0.88536406  1
  O  O187  1  0.25691256  -0.00621361  0.36598562  1
  O  O188  1  0.24908094  -0.00743708  0.86119412  1
  O  O189  1  0.25256957  0.50044878  0.36996625  1
  O  O190  1  0.26002551  0.50400124  0.86946160  1
  O  O191  1  0.74632471  0.00997819  0.36886103  1
  O  O192  1  0.75090063  0.01419192  0.87310503  1
  O  O193  1  0.75417653  0.50804186  0.39503448  1
  O  O194  1  0.75786210  0.51504184  0.87706729  1
  O  O195  1  0.24980419  0.49234809  0.13363512  1
  O  O196  1  0.24638055  0.49402659  0.63032869  1
  O  O197  1  0.24335052  0.99522181  0.12920344  1
  O  O198  1  0.24188351  0.99372915  0.63319445  1
  O  O199  1  0.76300268  0.50278133  0.12797842  1
  O  O200  1  0.74234053  0.50484755  0.61700990  1
  O  O201  1  0.75115266  1.00432237  0.13824108  1
  O  O202  1  0.74344594  0.98848718  0.62764285  1
  O  O203  1  -0.00244562  0.38042142  0.26509770  1
  O  O204  1  0.00931696  0.36729522  0.75050278  1
  O  O205  1  -0.00333803  0.86548148  0.25646881  1
  O  O206  1  -0.00055447  0.87308706  0.76548407  1
  O  O207  1  0.51140455  0.37704293  0.26377359  1
  O  O208  1  0.50664607  0.36928983  0.75629772  1
  O  O209  1  0.50934116  0.88713339  0.26019483  1
  O  O210  1  0.50304528  0.86994046  0.75464537  1
  O  O211  1  0.48580330  0.11672195  0.24968762  1
  O  O212  1  0.49545157  0.13361430  0.74578442  1
  O  O213  1  0.49159825  0.63096197  0.26454519  1
  O  O214  1  0.49585465  0.62828330  0.74389236  1
  O  O215  1  0.99101312  0.11596967  0.24007044  1
  O  O216  1  0.99081663  0.13150276  0.75302132  1
  O  O217  1  1.00138890  0.64018104  0.24112448  1
  O  O218  1  0.99082224  0.62854111  0.74064037  1
  O  O219  1  0.36507271  0.25736373  0.00595273  1
  O  O220  1  0.36589491  0.24773106  0.50469012  1
  O  O221  1  0.36363470  0.75427398  0.00746654  1
  O  O222  1  0.36103948  0.74996047  0.49855338  1
  O  O223  1  0.86266049  0.25409468  0.00226802  1
  O  O224  1  0.87180209  0.25045669  0.50825265  1
  O  O225  1  0.87681652  0.76458678  0.00834092  1
  O  O226  1  0.87465045  0.76178085  0.51189731  1
  O  O227  1  0.12986467  0.24344528  0.50132567  1
  O  O228  1  0.13863486  0.24548321  1.00310515  1
  O  O229  1  0.13441291  0.74588154  0.49341800  1
  O  O230  1  0.13620659  0.75063593  0.99029522  1
  O  O231  1  0.63407716  0.24387153  0.49630410  1
  O  O232  1  0.63934058  0.25131517  1.00068136  1
  O  O233  1  0.62458073  0.74350488  0.49119433  1
  O  O234  1  0.62231321  0.75575685  0.98566027  1
  O  O235  1  0.48447240  0.25272970  0.11959217  1
  O  O236  1  0.49416183  0.24639797  0.62969490  1
  O  O237  1  0.48499493  0.75865049  0.12202429  1
  O  O238  1  0.49901268  0.73772828  0.63034005  1
  O  O239  1  1.00517197  0.23657721  0.12179650  1
  O  O240  1  0.98845402  0.25030458  0.63545150  1
  O  O241  1  1.00243149  0.74886267  0.13123426  1
  O  O242  1  0.99353461  0.74643991  0.62477009  1
  O  O243  1  0.01429581  0.25866111  0.37366518  1
  O  O244  1  -0.00640589  0.25347566  0.86242957  1
  O  O245  1  0.00696513  0.75669328  0.36666607  1
  O  O246  1  0.00765766  0.75560519  0.87725592  1
  O  O247  1  0.51323657  0.25350395  0.37944433  1
  O  O248  1  0.49666392  0.26267770  0.86408026  1
  O  O249  1  0.50429129  0.76656030  0.38250998  1
  O  O250  1  0.50517107  0.75672677  0.86966491  1
  O  O251  1  0.24050788  0.13724404  0.50405086  1
  O  O252  1  0.24332781  0.13962656  1.00362311  1
  O  O253  1  0.24359012  0.63229849  0.49471326  1
  O  O254  1  0.24968467  0.63401068  0.99412328  1
  O  O255  1  0.74616980  0.12611208  0.49477471  1
  O  O256  1  0.74956426  0.13172108  0.98845003  1
  O  O257  1  0.73082053  0.63534580  0.51231546  1
  O  O258  1  0.75657579  0.63234586  0.98485101  1
  O  O259  1  0.25771925  0.36620480  0.00580554  1
  O  O260  1  0.24923553  0.36305506  0.50920052  1
  O  O261  1  0.25079814  0.86963748  0.01061129  1
  O  O262  1  0.24966473  0.86844981  0.50674798  1
  O  O263  1  0.75333642  0.36321848  -0.00870098  1
  O  O264  1  0.76171038  0.36110788  0.49245279  1
  O  O265  1  0.76112692  0.88021540  -0.00599820  1
  O  O266  1  0.75673155  0.87405258  0.50686268  1
  O  O267  1  0.13591862  0.50568943  0.25031017  1
  O  O268  1  0.13040120  0.49438635  0.74475273  1
  O  O269  1  0.13351915  1.00747710  0.24062214  1
  O  O270  1  0.13032006  1.00073544  0.74286067  1
  O  O271  1  0.62923484  0.48894042  0.25620590  1
  O  O272  1  0.62509915  0.49443130  0.73329016  1
  O  O273  1  0.63812768  0.99422497  0.24926332  1
  O  O274  1  0.62356526  0.99155677  0.74214012  1
  O  O275  1  0.36727232  0.00498950  0.25749053  1
  O  O276  1  0.36625827  0.01061233  0.75149965  1
  O  O277  1  0.36457245  0.49827798  0.26286193  1
  O  O278  1  0.36879767  0.50448565  0.75715731  1
  O  O279  1  0.86379309  0.00467249  0.24755803  1
  O  O280  1  0.87229127  0.00840545  0.75230831  1
  O  O281  1  0.87417228  0.50834512  0.27732571  1
  O  O282  1  0.88152687  0.50942230  0.75477884  1
  O  O283  1  0.11474285  0.35981378  0.37671876  1
  O  O284  1  0.12678133  0.38011895  0.86122939  1
  O  O285  1  0.11599149  0.86350004  0.38128129  1
  O  O286  1  0.11623578  0.86746588  0.87569108  1
  O  O287  1  0.62054912  0.36543038  0.36981723  1
  O  O288  1  0.61450030  0.38933994  0.86540934  1
  O  O289  1  0.61661833  0.87086681  0.36793564  1
  O  O290  1  0.61503384  0.86977486  0.86850597  1
  O  O291  1  0.37734039  0.13418613  0.13327271  1
  O  O292  1  0.38069643  0.13087435  0.63419391  1
  O  O293  1  0.36744908  0.64497728  0.12667833  1
  O  O294  1  0.38138848  0.62612889  0.62973845  1
  O  O295  1  0.88555326  0.12755140  0.13267222  1
  O  O296  1  0.86908733  0.13184928  0.63954189  1
  O  O297  1  0.88923749  0.64479085  0.11417265  1
  O  O298  1  0.87872525  0.63264230  0.62459486  1
  O  O299  1  0.25954739  0.25745541  0.11748060  1
  O  O300  1  0.25636882  0.25425815  0.61969704  1
  O  O301  1  0.25064615  0.75845014  0.11951842  1
  O  O302  1  0.24863057  0.75790029  0.61674150  1
  O  O303  1  0.75317769  0.24453256  0.10999382  1
  O  O304  1  0.75975738  0.24387453  0.61267902  1
  O  O305  1  0.76317329  0.74491141  0.12969459  1
  O  O306  1  0.75621236  0.76222573  0.62436346  1
  O  O307  1  0.23535747  0.25720408  0.38477880  1
  O  O308  1  0.25556466  0.25562545  0.88947355  1
  O  O309  1  0.24308007  0.74899425  0.37958466  1
  O  O310  1  0.24534364  0.74824065  0.88224732  1
  O  O311  1  0.74412026  0.23589282  0.38689472  1
  O  O312  1  0.75292131  0.23752324  0.88427588  1
  O  O313  1  0.73350703  0.75979003  0.37632916  1
  O  O314  1  0.74181334  0.73731595  0.86684777  1
  O  O315  1  0.00370476  0.11856791  0.00487845  1
  O  O316  1  0.01018940  0.12431397  0.49745569  1
  O  O317  1  0.00316140  0.62138582  0.00369266  1
  O  O318  1  0.00714074  0.61700365  0.50447304  1
  O  O319  1  0.50104306  0.11959462  -0.00122945  1
  O  O320  1  0.50520738  0.11895708  0.50645432  1
  O  O321  1  0.50168374  0.61670257  -0.00319094  1
  O  O322  1  0.50767488  0.62352765  0.50830910  1
  O  O323  1  0.49850970  0.37422840  0.48741393  1
  O  O324  1  0.48957983  0.36762554  0.99045123  1
  O  O325  1  0.49576581  0.88364211  0.49512835  1
  O  O326  1  0.49603390  0.88469996  0.99026694  1
  O  O327  1  0.99696563  0.38058280  0.49989455  1
  O  O328  1  0.99835195  0.38591043  0.99420082  1
  O  O329  1  0.99232661  0.87640339  0.48993187  1
  O  O330  1  0.99518928  0.88215506  0.99179692  1
  O  O331  1  0.48949131  0.48900169  0.38000297  1
  O  O332  1  0.48833141  0.49422521  0.86650105  1
  O  O333  1  0.49283697  0.99333247  0.38284353  1
  O  O334  1  0.49709520  0.99325680  0.88214182  1
  O  O335  1  1.01299424  0.48568366  0.38691316  1
  O  O336  1  0.99132999  0.50265423  0.88200718  1
  O  O337  1  1.00810591  0.98731050  0.37553187  1
  O  O338  1  0.99694626  0.99251970  0.88642906  1
  O  O339  1  0.00574808  0.00333101  0.11577664  1
  O  O340  1  0.01468215  -0.00939341  0.62242976  1
  O  O341  1  0.00010151  0.51401435  0.11057827  1
  O  O342  1  0.00716491  0.50356353  0.61588402  1
  O  O343  1  0.49558168  0.00063258  0.11093912  1
  O  O344  1  0.50251980  0.00469082  0.62006523  1
  O  O345  1  0.48536908  0.50464513  0.11823518  1
  O  O346  1  0.49874770  0.51096355  0.62291892  1
  O  O347  1  0.25325880  0.38280235  0.24010122  1
  O  O348  1  0.24547159  0.37760003  0.74347811  1
  O  O349  1  0.25031723  0.88716153  0.23773743  1
  O  O350  1  0.24768686  0.88275330  0.74169154  1
  O  O351  1  0.74390633  0.37495572  0.25834170  1
  O  O352  1  0.73543904  0.36556106  0.75370077  1
  O  O353  1  0.74388204  0.88958339  0.25678604  1
  O  O354  1  0.74320000  0.87628166  0.74295155  1
  O  O355  1  0.26174700  0.11181645  0.24416466  1
  O  O356  1  0.25870989  0.11746353  0.74514097  1
  O  O357  1  0.25474406  0.61646810  0.25661038  1
  O  O358  1  0.25601880  0.62062439  0.75534275  1
  O  O359  1  0.75710077  0.11301848  0.25787708  1
  O  O360  1  0.75488026  0.12740048  0.76043662  1
  O  O361  1  0.75243919  0.62172744  0.27071134  1
  O  O362  1  0.76167018  0.62755428  0.74839456  1
  O  O363  1  0.37666231  0.11328656  0.36971500  1
  O  O364  1  0.37881076  0.12792846  0.86149872  1
  O  O365  1  0.36496810  0.61437532  0.37790397  1
  O  O366  1  0.37089033  0.61913209  0.87150287  1
  O  O367  1  0.86864933  0.12457172  0.36929545  1
  O  O368  1  0.86573193  0.12350262  0.86441911  1
  O  O369  1  0.86356046  0.62571879  0.40163526  1
  O  O370  1  0.86555613  0.62217390  0.86433421  1
  O  O371  1  0.13784810  0.37706774  0.12129068  1
  O  O372  1  0.13222719  0.37984556  0.63448808  1
  O  O373  1  0.13095422  0.88981812  0.11869414  1
  O  O374  1  0.13506464  0.88102685  0.62618016  1
  O  O375  1  0.62366264  0.36950157  0.14734742  1
  O  O376  1  0.62267543  0.39090623  0.62903645  1
  O  O377  1  0.62068994  0.87979051  0.13780518  1
  O  O378  1  0.63100245  0.87690603  0.62772181  1
  O  O379  1  0.13448131  0.24109874  0.26024120  1
  O  O380  1  0.11597761  0.25715717  0.74452033  1
  O  O381  1  0.11946551  0.74938322  0.25936185  1
  O  O382  1  0.12453873  0.75327864  0.76268638  1
  O  O383  1  0.63543739  0.25500511  0.26261412  1
  O  O384  1  0.61301205  0.25955302  0.73959761  1
  O  O385  1  0.62033723  0.76344402  0.25787165  1
  O  O386  1  0.61717355  0.75541990  0.75460896  1
  O  O387  1  0.36817778  0.23962137  0.24311401  1
  O  O388  1  0.38340158  0.24610662  0.74386047  1
  O  O389  1  0.36712358  0.75353014  0.23604406  1
  O  O390  1  0.38167684  0.74242275  0.74793985  1
  O  O391  1  0.86739690  0.23291637  0.25091567  1
  O  O392  1  0.88098082  0.24471253  0.74352678  1
  O  O393  1  0.88285649  0.75716062  0.23334841  1
  O  O394  1  0.87711007  0.74476371  0.73735563  1
  O  O395  1  0.37209977  0.49360058  0.48740956  1
  O  O396  1  0.36598522  0.48875504  0.99074684  1
  O  O397  1  0.37683205  1.00174040  0.49351135  1
  O  O398  1  0.37923679  1.00080408  0.99561186  1
  O  O399  1  0.88940938  0.48678394  0.50556424  1
  O  O400  1  0.88425473  0.50045072  0.98701282  1
  O  O401  1  0.87757725  0.98745407  0.50732693  1
  O  O402  1  0.88188484  0.98983618  1.00145783  1
  O  O403  1  0.11800167  0.00781458  0.00562350  1
  O  O404  1  0.12582724  0.01106892  0.50679783  1
  O  O405  1  0.11695774  0.50255247  0.00026176  1
  O  O406  1  0.12166406  0.50298523  0.50628905  1
  O  O407  1  0.61385774  0.00398287  0.00177481  1
  O  O408  1  0.61874183  0.00464501  0.50554520  1
  O  O409  1  0.61327568  0.49427845  0.00989794  1
  O  O410  1  0.62163295  0.50599296  0.51150009  1
  O  O411  1  0.36812615  0.37047973  0.11885964  1
  O  O412  1  0.36906995  0.36778774  0.62409982  1
  O  O413  1  0.36479057  0.86632922  0.12374592  1
  O  O414  1  0.36172058  0.87330442  0.62260836  1
  O  O415  1  0.88798847  0.36897558  0.12891880  1
  O  O416  1  0.87788252  0.36368434  0.61278125  1
  O  O417  1  0.87552664  0.86642860  0.11168451  1
  O  O418  1  0.86835779  0.86974321  0.62178608  1
  O  O419  1  0.12262996  0.14027687  0.38356025  1
  O  O420  1  0.12152326  0.12123095  0.88829437  1
  O  O421  1  0.12797522  0.63473234  0.38004285  1
  O  O422  1  0.13244822  0.63338414  0.87435689  1
  O  O423  1  0.63066383  0.12954458  0.38021847  1
  O  O424  1  0.63741842  0.12536293  0.87304932  1
  O  O425  1  0.61530888  0.63586851  0.38537820  1
  O  O426  1  0.63947315  0.63098692  0.86881468  1
