# generated using pymatgen
data_V85Zn86O256
_symmetry_space_group_name_H-M   'P 1'
_cell_length_a   16.96087687
_cell_length_b   16.95661745
_cell_length_c   16.95303538
_cell_angle_alpha   90.05799389
_cell_angle_beta   89.92094500
_cell_angle_gamma   89.98087278
_symmetry_Int_Tables_number   1
_chemical_formula_structural   V85Zn86O256
_chemical_formula_sum   'V85 Zn86 O256'
_cell_volume   4875.67031752
_cell_formula_units_Z   1
loop_
 _symmetry_equiv_pos_site_id
 _symmetry_equiv_pos_as_xyz
  1  'x, y, z'
loop_
 _atom_site_type_symbol
 _atom_site_label
 _atom_site_symmetry_multiplicity
 _atom_site_fract_x
 _atom_site_fract_y
 _atom_site_fract_z
 _atom_site_occupancy
  V  V0  1  0.62094537  0.49990843  0.11393626  1
  V  V1  1  0.00182936  0.49661653  0.49857661  1
  V  V2  1  0.00352221  0.76988402  0.75170612  1
  V  V3  1  0.50093902  0.24878073  0.25068808  1
  V  V4  1  0.25751479  0.75327125  -0.00491173  1
  V  V5  1  -0.00050965  0.00140614  0.49910205  1
  V  V6  1  0.61539797  0.37884049  0.25160057  1
  V  V7  1  0.75111011  0.88476337  0.13440598  1
  V  V8  1  0.86997335  -0.00008880  0.37203516  1
  V  V9  1  0.63927844  0.37760285  0.74549118  1
  V  V10  1  0.50285754  0.24761979  0.74507791  1
  V  V11  1  0.87021346  0.86865364  -0.00678020  1
  V  V12  1  0.12509048  0.12598237  -0.00263040  1
  V  V13  1  0.37142843  0.74488154  0.12790801  1
  V  V14  1  0.49642213  0.75398701  0.25247436  1
  V  V15  1  0.87287838  0.87816497  0.49915582  1
  V  V16  1  0.24698191  0.87234642  0.63107889  1
  V  V17  1  0.87653236  0.25381334  0.12368001  1
  V  V18  1  0.25526734  0.00174471  0.75473863  1
  V  V19  1  0.74548063  0.12172707  0.37025529  1
  V  V20  1  -0.00098146  0.87346671  0.37534247  1
  V  V21  1  0.37500725  0.74512363  0.63116963  1
  V  V22  1  0.37891705  0.24295130  0.62650011  1
  V  V23  1  0.25511009  0.87342553  0.11991107  1
  V  V24  1  0.86799786  0.74964613  0.12422268  1
  V  V25  1  0.61489730  0.00211689  0.12898692  1
  V  V26  1  0.24921631  -0.00156581  0.25047936  1
  V  V27  1  0.63356432  0.63036935  -0.00002017  1
  V  V28  1  -0.00032210  0.12620095  0.12402458  1
  V  V29  1  0.12387722  -0.00324405  0.12401741  1
  V  V30  1  0.61969475  0.75570713  0.37623069  1
  V  V31  1  0.87783684  0.75564679  0.63127794  1
  V  V32  1  0.38392986  0.50442956  0.87535684  1
  V  V33  1  0.86919090  0.37407269  0.50253557  1
  V  V34  1  0.62197647  0.25379312  0.37329045  1
  V  V35  1  0.43632497  -0.05956410  0.94092527  1
  V  V36  1  0.63059737  0.49555339  0.62685051  1
  V  V37  1  0.26175120  0.49768745  0.74752968  1
  V  V38  1  0.38425813  0.37734617  -0.00368635  1
  V  V39  1  0.12265734  0.76333197  0.87080172  1
  V  V40  1  0.63259522  0.75152653  0.87905928  1
  V  V41  1  0.37804875  -0.01131928  0.37292921  1
  V  V42  1  0.61490510  0.12623434  0.50141042  1
  V  V43  1  0.49896369  0.62683269  0.12190098  1
  V  V44  1  0.74895530  0.37465185  0.12299062  1
  V  V45  1  0.74622063  0.25281577  0.50420939  1
  V  V46  1  0.74754311  0.50090145  0.24933120  1
  V  V47  1  0.61769791  0.87675505  0.75856887  1
  V  V48  1  0.12443348  0.86969706  0.25074738  1
  V  V49  1  0.24739376  0.12042145  0.37878220  1
  V  V50  1  0.74472481  0.87850900  0.62768297  1
  V  V51  1  0.87713199  0.62488479  0.25135579  1
  V  V52  1  0.49906622  -0.00788729  0.49591976  1
  V  V53  1  0.12345439  0.74292851  0.37662080  1
  V  V54  1  0.61502081  0.00413922  0.62778486  1
  V  V55  1  0.75118829  0.62340268  0.37923523  1
  V  V56  1  0.26691487  0.61702003  0.37132533  1
  V  V57  1  0.87133787  0.12009322  0.24751896  1
  V  V58  1  0.13421930  0.50177913  0.62556535  1
  V  V59  1  0.13277683  0.37533523  0.74431006  1
  V  V60  1  0.37707737  0.37771167  0.50054591  1
  V  V61  1  -0.00095171  0.25034388  0.74900141  1
  V  V62  1  0.24991597  0.74850704  0.50230267  1
  V  V63  1  0.37233646  0.25666245  0.12461727  1
  V  V64  1  0.12378665  0.62636826  0.00112171  1
  V  V65  1  -0.00951007  0.50088679  -0.00849973  1
  V  V66  1  0.75782768  0.61283878  0.85848984  1
  V  V67  1  0.87194023  0.12317946  0.75271187  1
  V  V68  1  0.62414824  0.62295785  0.50262277  1
  V  V69  1  -0.00222192  0.12477579  0.62379388  1
  V  V70  1  0.49563088  0.74924080  0.75958949  1
  V  V71  1  0.12378609  0.12908233  0.49711443  1
  V  V72  1  0.24681190  0.26267738  0.00398685  1
  V  V73  1  0.37407399  0.12729912  0.25122452  1
  V  V74  1  -0.00142652  -0.00775042  -0.00820444  1
  V  V75  1  0.17115517  0.29521368  0.32946144  1
  V  V76  1  0.74974349  0.74823699  0.50323531  1
  V  V77  1  0.25357018  0.62732566  0.86730838  1
  V  V78  1  0.49661667  0.61999066  0.63143898  1
  V  V79  1  -0.03031482  0.59653841  0.64671701  1
  V  V80  1  0.24767385  0.25389913  0.51249098  1
  V  V81  1  0.12793705  0.25181422  0.87389300  1
  V  V82  1  0.62697286  0.24931381  0.87923965  1
  V  V83  1  0.49770833  0.49755770  0.48588711  1
  V  V84  1  0.12442285  -0.00501918  0.63011864  1
  Zn  Zn85  1  -0.00378461  0.38256771  0.87040169  1
  Zn  Zn86  1  0.87368394  -0.00373962  0.87340119  1
  Zn  Zn87  1  0.75222048  0.12163363  0.88091057  1
  Zn  Zn88  1  0.11576930  0.48098967  0.12028244  1
  Zn  Zn89  1  0.23511467  0.44090192  0.19936823  1
  Zn  Zn90  1  0.62568933  0.87847037  0.25673114  1
  Zn  Zn91  1  0.74707329  0.00125009  0.75433742  1
  Zn  Zn92  1  0.62234626  0.11065989  -0.00540836  1
  Zn  Zn93  1  0.00189654  0.25952499  0.25214337  1
  Zn  Zn94  1  0.87722489  0.49573514  0.37375906  1
  Zn  Zn95  1  -0.00149805  0.74787253  0.24908392  1
  Zn  Zn96  1  0.25959607  0.12279112  0.87936770  1
  Zn  Zn97  1  0.50415086  0.38026351  0.87110784  1
  Zn  Zn98  1  0.00006083  0.36592293  0.37205926  1
  Zn  Zn99  1  0.11921750  0.62572538  0.50610944  1
  Zn  Zn100  1  0.37818393  0.87104789  0.49802154  1
  Zn  Zn101  1  0.87208454  0.37839106  -0.00869059  1
  Zn  Zn102  1  0.38720155  0.11668789  0.75228998  1
  Zn  Zn103  1  0.49100363  0.11928297  0.11473988  1
  Zn  Zn104  1  0.75131101  0.24629529  -0.00015285  1
  Zn  Zn105  1  0.86639643  0.24896315  0.62611164  1
  Zn  Zn106  1  -0.00257967  0.62648057  0.12188557  1
  Zn  Zn107  1  0.19089335  0.18634358  0.18087917  1
  Zn  Zn108  1  0.18725751  0.18354292  0.68539813  1
  Zn  Zn109  1  0.19339014  0.61088937  0.18815263  1
  Zn  Zn110  1  0.18235738  0.68421441  0.69031403  1
  Zn  Zn111  1  0.68835516  0.18642173  0.18618494  1
  Zn  Zn112  1  0.68426187  0.18564779  0.68784325  1
  Zn  Zn113  1  0.68847614  0.69116212  0.18871683  1
  Zn  Zn114  1  0.68436381  0.68823987  0.68908368  1
  Zn  Zn115  1  0.35304905  0.35823054  0.29710257  1
  Zn  Zn116  1  0.31549449  0.31190315  0.81344007  1
  Zn  Zn117  1  0.30833828  0.80380108  0.30937489  1
  Zn  Zn118  1  0.31541079  0.81944974  0.81346978  1
  Zn  Zn119  1  0.81309365  0.31178647  0.31225308  1
  Zn  Zn120  1  0.81409386  0.31318344  0.81424203  1
  Zn  Zn121  1  0.81037702  0.80910943  0.31285077  1
  Zn  Zn122  1  0.80941680  0.80853735  0.81140295  1
  Zn  Zn123  1  0.19539639  0.44078332  0.44343656  1
  Zn  Zn124  1  0.18544002  0.44091303  0.93491516  1
  Zn  Zn125  1  0.18784267  0.93465791  0.44166616  1
  Zn  Zn126  1  0.18969192  0.93712216  0.93785717  1
  Zn  Zn127  1  0.68488696  0.43726461  0.43796295  1
  Zn  Zn128  1  0.68957669  0.43741744  0.93493380  1
  Zn  Zn129  1  0.68700372  0.93926249  0.43955203  1
  Zn  Zn130  1  0.69049294  0.93809251  0.94131287  1
  Zn  Zn131  1  0.31186087  0.06738559  0.06014936  1
  Zn  Zn132  1  0.31466663  0.06276936  0.56556675  1
  Zn  Zn133  1  0.31514356  0.56412063  0.05382478  1
  Zn  Zn134  1  0.31387252  0.56398878  0.55967498  1
  Zn  Zn135  1  0.80898752  0.06045660  0.05824046  1
  Zn  Zn136  1  0.80662183  0.06571945  0.56226726  1
  Zn  Zn137  1  0.81016954  0.56388650  0.06060849  1
  Zn  Zn138  1  0.81947176  0.55450607  0.57769633  1
  Zn  Zn139  1  0.43413766  0.44771868  0.17960414  1
  Zn  Zn140  1  0.44131562  0.42947675  0.68349689  1
  Zn  Zn141  1  0.43719662  0.93230916  0.18712584  1
  Zn  Zn142  1  0.43624893  0.93213192  0.68647365  1
  Zn  Zn143  1  0.94135286  0.44071599  0.18566253  1
  Zn  Zn144  1  0.93826543  0.42722378  0.68273767  1
  Zn  Zn145  1  0.93815406  0.93811106  0.18517592  1
  Zn  Zn146  1  0.93599444  0.94006074  0.68765742  1
  Zn  Zn147  1  0.05925035  0.06512137  0.31128758  1
  Zn  Zn148  1  0.06467208  0.06274382  0.81205684  1
  Zn  Zn149  1  0.06612722  0.55408278  0.31171284  1
  Zn  Zn150  1  0.06692141  0.56648807  0.81376718  1
  Zn  Zn151  1  0.56058847  0.06049106  0.30766248  1
  Zn  Zn152  1  0.55850260  0.06412641  0.81673148  1
  Zn  Zn153  1  0.56178873  0.57039911  0.30746625  1
  Zn  Zn154  1  0.56872505  0.56444562  0.81121854  1
  Zn  Zn155  1  0.43456328  0.18820221  0.43431328  1
  Zn  Zn156  1  0.44053839  0.17931234  0.93439942  1
  Zn  Zn157  1  0.43915128  0.68737918  0.44214463  1
  Zn  Zn158  1  0.44040522  0.68678711  0.94095903  1
  Zn  Zn159  1  0.93614625  0.19306507  0.43214286  1
  Zn  Zn160  1  0.93844262  0.19045709  0.93652090  1
  Zn  Zn161  1  0.93796416  0.68353224  0.44570942  1
  Zn  Zn162  1  0.93572742  0.68823340  0.93142564  1
  Zn  Zn163  1  0.06889419  0.32177958  0.07243992  1
  Zn  Zn164  1  0.06141445  0.31557056  0.56342526  1
  Zn  Zn165  1  0.06027076  0.80681087  0.06255971  1
  Zn  Zn166  1  0.06171251  0.81262192  0.56361227  1
  Zn  Zn167  1  0.55793472  0.30722320  0.06184122  1
  Zn  Zn168  1  0.55990557  0.31475975  0.56415469  1
  Zn  Zn169  1  0.56238337  0.81745641  0.06071275  1
  Zn  Zn170  1  0.56044032  0.81206125  0.56591352  1
  O  O171  1  0.11672155  0.11906979  0.11882128  1
  O  O172  1  0.11831017  0.11634484  0.61546848  1
  O  O173  1  0.11759615  0.64513249  0.10426307  1
  O  O174  1  0.12134565  0.61030678  0.62593326  1
  O  O175  1  0.62585941  0.10832143  0.13080658  1
  O  O176  1  0.62792686  0.11501743  0.61406611  1
  O  O177  1  0.62397082  0.61988703  0.11902893  1
  O  O178  1  0.61621986  0.61964968  0.61995056  1
  O  O179  1  0.38606482  0.35503128  0.40307990  1
  O  O180  1  0.37861983  0.38430865  0.87952882  1
  O  O181  1  0.36635913  0.88590859  0.37554587  1
  O  O182  1  0.37363217  0.88480877  0.88192513  1
  O  O183  1  0.87316275  0.37663462  0.38702406  1
  O  O184  1  0.88423013  0.36668424  0.87907334  1
  O  O185  1  0.87705975  0.88048474  0.37868728  1
  O  O186  1  0.86856338  0.87215163  0.89011481  1
  O  O187  1  0.25557881  0.00247940  0.37181916  1
  O  O188  1  0.24046938  0.00062397  0.85714148  1
  O  O189  1  0.24487491  0.51888439  0.37872947  1
  O  O190  1  0.25755790  0.50894851  0.86685115  1
  O  O191  1  0.75771203  0.00883997  0.38086539  1
  O  O192  1  0.75330991  0.00315233  0.87158063  1
  O  O193  1  0.74778450  0.51210741  0.37098546  1
  O  O194  1  0.74644916  0.51337396  0.87390397  1
  O  O195  1  0.23537261  0.52603516  0.12028627  1
  O  O196  1  0.24649707  0.50560389  0.63403271  1
  O  O197  1  0.24347516  0.99243305  0.12894825  1
  O  O198  1  0.24337143  0.99102231  0.62814547  1
  O  O199  1  0.74147882  0.49452315  0.13017942  1
  O  O200  1  0.72901328  0.50180353  0.61748290  1
  O  O201  1  0.74947733  0.98731146  0.12985044  1
  O  O202  1  0.73643284  0.99307012  0.62515492  1
  O  O203  1  -0.00589662  0.37468405  0.25662246  1
  O  O204  1  0.00818749  0.36532118  0.74837378  1
  O  O205  1  0.00774381  0.87582759  0.25713783  1
  O  O206  1  0.00309719  0.86870219  0.74912763  1
  O  O207  1  0.51122566  0.36999696  0.24516993  1
  O  O208  1  0.51051541  0.36347414  0.75068031  1
  O  O209  1  0.50477966  0.85916703  0.24639534  1
  O  O210  1  0.50902562  0.86383554  0.74390883  1
  O  O211  1  0.49061617  0.13269929  0.24541646  1
  O  O212  1  0.50509210  0.14178825  0.74989748  1
  O  O213  1  0.50781729  0.63941224  0.23345525  1
  O  O214  1  0.50652872  0.63318676  0.73779191  1
  O  O215  1  0.99235577  0.12380884  0.23590692  1
  O  O216  1  0.99271286  0.12935717  0.74419033  1
  O  O217  1  0.98499187  0.62395678  0.25191630  1
  O  O218  1  1.00374033  0.62960664  0.73728559  1
  O  O219  1  0.36596674  0.25739692  0.00521890  1
  O  O220  1  0.36830448  0.24919086  0.50919455  1
  O  O221  1  0.36267223  0.74668961  0.00458682  1
  O  O222  1  0.36713573  0.75191537  0.50896219  1
  O  O223  1  0.87486064  0.25016987  0.01377126  1
  O  O224  1  0.86190419  0.25312422  0.49889057  1
  O  O225  1  0.88040373  0.76200544  0.00762990  1
  O  O226  1  0.86874319  0.76243837  0.50394993  1
  O  O227  1  0.13380913  0.24020901  0.51223672  1
  O  O228  1  0.12882932  0.24889397  0.99192704  1
  O  O229  1  0.13116385  0.74810191  0.49593802  1
  O  O230  1  0.13088106  0.74764650  0.98802356  1
  O  O231  1  0.62540529  0.24409825  0.49427001  1
  O  O232  1  0.62906677  0.26317171  0.98292756  1
  O  O233  1  0.62887868  0.74369808  0.49708363  1
  O  O234  1  0.62190869  0.74519868  0.98982223  1
  O  O235  1  0.49264216  0.25001452  0.13709525  1
  O  O236  1  0.49649777  0.24953443  0.63581715  1
  O  O237  1  0.49122925  0.74766599  0.12948615  1
  O  O238  1  0.49201689  0.74299182  0.63207114  1
  O  O239  1  0.99384065  0.24323483  0.12641115  1
  O  O240  1  1.00308250  0.24263896  0.63689109  1
  O  O241  1  0.98418902  0.74820620  0.12943480  1
  O  O242  1  0.99330869  0.75435502  0.63697658  1
  O  O243  1  0.00605017  0.24840855  0.36853480  1
  O  O244  1  0.01262076  0.24653111  0.86240068  1
  O  O245  1  0.00614785  0.75540905  0.37859914  1
  O  O246  1  0.00689005  0.74680241  0.85877632  1
  O  O247  1  0.50661582  0.24286853  0.36012647  1
  O  O248  1  0.51382524  0.25518203  0.86274488  1
  O  O249  1  0.50842836  0.74235534  0.36765292  1
  O  O250  1  0.50898148  0.74047584  0.86328763  1
  O  O251  1  0.24252487  0.13042350  0.49945392  1
  O  O252  1  0.24050170  0.13722191  0.99927662  1
  O  O253  1  0.24702205  0.63667020  0.49452183  1
  O  O254  1  0.24240747  0.63599705  0.98635657  1
  O  O255  1  0.73792823  0.12934009  0.48861242  1
  O  O256  1  0.74136926  0.12905206  0.99956525  1
  O  O257  1  0.74602824  0.62830732  0.49557236  1
  O  O258  1  0.73678124  0.62385250  0.99638567  1
  O  O259  1  0.25788642  0.36548684  -0.01114279  1
  O  O260  1  0.26270751  0.36555897  0.50075400  1
  O  O261  1  0.24355235  0.86619748  0.00947370  1
  O  O262  1  0.25138030  0.86355577  0.51110358  1
  O  O263  1  0.75077146  0.37569223  0.01309764  1
  O  O264  1  0.75426895  0.36455672  0.49481006  1
  O  O265  1  0.76526719  0.87709373  0.01413370  1
  O  O266  1  0.75157551  0.87106870  0.51185030  1
  O  O267  1  0.13500780  0.51835224  0.23394632  1
  O  O268  1  0.13481838  0.49343059  0.74518681  1
  O  O269  1  0.12866704  0.99079376  0.24532231  1
  O  O270  1  0.13177790  1.00367042  0.73580448  1
  O  O271  1  0.62884098  0.49482421  0.24312983  1
  O  O272  1  0.62041158  0.48495144  0.74307765  1
  O  O273  1  0.62401242  0.99360738  0.23830761  1
  O  O274  1  0.62207320  0.99399283  0.74312121  1
  O  O275  1  0.36956982  0.00348161  0.25591356  1
  O  O276  1  0.35946887  -0.00026829  0.73935898  1
  O  O277  1  0.34541374  0.45582533  0.24295892  1
  O  O278  1  0.36631555  0.49251636  0.75320701  1
  O  O279  1  0.87898904  0.01285346  0.25443054  1
  O  O280  1  0.87357533  0.00842916  0.75259596  1
  O  O281  1  0.86486763  0.50889959  0.25117971  1
  O  O282  1  0.89025057  0.52917979  0.67858187  1
  O  O283  1  0.12424410  0.36850445  0.38393362  1
  O  O284  1  0.12072667  0.36882077  0.86278154  1
  O  O285  1  0.12078760  0.86725814  0.37129700  1
  O  O286  1  0.12840341  0.86247486  0.87555402  1
  O  O287  1  0.63031011  0.36711842  0.36267564  1
  O  O288  1  0.62619882  0.36954274  0.86204968  1
  O  O289  1  0.63351759  0.85960429  0.37740961  1
  O  O290  1  0.63259420  0.86841609  0.86489436  1
  O  O291  1  0.37274188  0.13760279  0.13306050  1
  O  O292  1  0.37419554  0.13719845  0.63039637  1
  O  O293  1  0.38438333  0.63605025  0.11725203  1
  O  O294  1  0.38179843  0.63627317  0.62197576  1
  O  O295  1  0.87965344  0.12887011  0.13003491  1
  O  O296  1  0.88197785  0.12601830  0.62961242  1
  O  O297  1  0.87032746  0.63307445  0.13354383  1
  O  O298  1  0.87412789  0.65305744  0.61057697  1
  O  O299  1  0.25975895  0.24772050  0.11469368  1
  O  O300  1  0.25798245  0.24671014  0.61811015  1
  O  O301  1  0.25881328  0.75600727  0.11401884  1
  O  O302  1  0.25378193  0.75262377  0.62400296  1
  O  O303  1  0.75629685  0.25866518  0.12477939  1
  O  O304  1  0.74619492  0.24139761  0.60763750  1
  O  O305  1  0.76112910  0.76050197  0.12851684  1
  O  O306  1  0.75369215  0.75962129  0.62239335  1
  O  O307  1  0.23713341  0.23890358  0.39065582  1
  O  O308  1  0.23810467  0.25088168  0.87912390  1
  O  O309  1  0.24185898  0.74912496  0.38795615  1
  O  O310  1  0.24603698  0.74657550  0.87657461  1
  O  O311  1  0.74168027  0.24118287  0.38170384  1
  O  O312  1  0.73733443  0.24739523  0.87345849  1
  O  O313  1  0.74478242  0.73972075  0.38278073  1
  O  O314  1  0.73586889  0.74097871  0.86831140  1
  O  O315  1  0.00348759  0.11938111  0.00953989  1
  O  O316  1  0.00511039  0.12086790  0.50445420  1
  O  O317  1  0.00539896  0.61867524  -0.00530230  1
  O  O318  1  -0.00459568  0.61147039  0.52003977  1
  O  O319  1  0.51474731  0.14551799  0.00800256  1
  O  O320  1  0.51091947  0.11721338  0.49328070  1
  O  O321  1  0.51394352  0.63197606  0.01388118  1
  O  O322  1  0.50425717  0.61805244  0.51188261  1
  O  O323  1  0.49299360  0.38725959  0.50541414  1
  O  O324  1  0.48803501  0.37082867  0.99300994  1
  O  O325  1  0.49930240  0.88702932  0.50136505  1
  O  O326  1  0.49001959  0.87618371  0.99925855  1
  O  O327  1  0.99233773  0.38080812  0.49728903  1
  O  O328  1  1.00249693  0.39169151  0.99973416  1
  O  O329  1  0.99342565  0.88170923  0.49491721  1
  O  O330  1  0.98574799  0.88234043  1.00904126  1
  O  O331  1  0.50508382  0.50969323  0.38689525  1
  O  O332  1  0.48734390  0.50337241  0.86672578  1
  O  O333  1  0.48960221  1.00327289  0.38167699  1
  O  O334  1  0.50020560  0.99505449  0.88136186  1
  O  O335  1  1.00014623  0.50188259  0.39028588  1
  O  O336  1  1.00407976  0.50224497  0.88617304  1
  O  O337  1  0.99144295  0.99497887  0.38043835  1
  O  O338  1  1.00008768  1.00376485  0.88882522  1
  O  O339  1  0.00557548  0.00680853  0.11675165  1
  O  O340  1  0.00646139  0.00368338  0.61889130  1
  O  O341  1  0.00075041  0.50838780  0.10966925  1
  O  O342  1  0.01745715  0.49403986  0.61654326  1
  O  O343  1  0.51038091  -0.00010281  0.12940868  1
  O  O344  1  0.50890838  -0.00398803  0.61715117  1
  O  O345  1  0.50992573  0.51211547  0.12972427  1
  O  O346  1  0.50496226  0.50748824  0.62114660  1
  O  O347  1  0.23723866  0.34693502  0.27374635  1
  O  O348  1  0.24340315  0.38449290  0.75515729  1
  O  O349  1  0.24024423  0.87808482  0.24451275  1
  O  O350  1  0.25112946  0.88468958  0.73820380  1
  O  O351  1  0.74155273  0.37921835  0.23986998  1
  O  O352  1  0.73792780  0.36795246  0.74482344  1
  O  O353  1  0.74956468  0.87173005  0.23813394  1
  O  O354  1  0.74119076  0.87545213  0.73930176  1
  O  O355  1  0.25376068  0.11687726  0.25582235  1
  O  O356  1  0.24901779  0.10850155  0.74670166  1
  O  O357  1  0.25466383  0.64647250  0.27444384  1
  O  O358  1  0.24667431  0.61712182  0.76090671  1
  O  O359  1  0.75628252  0.12862650  0.26204409  1
  O  O360  1  0.76365477  0.12516977  0.74669314  1
  O  O361  1  0.75667116  0.62288570  0.25956605  1
  O  O362  1  0.74477034  0.62336051  0.75845855  1
  O  O363  1  0.36596769  0.11679892  0.36954844  1
  O  O364  1  0.37009927  0.13493854  0.86337722  1
  O  O365  1  0.36622640  0.62352578  0.38360426  1
  O  O366  1  0.36579062  0.61785127  0.88162420  1
  O  O367  1  0.86634385  0.12040119  0.36687605  1
  O  O368  1  0.87519760  0.12460149  0.86560765  1
  O  O369  1  0.86676333  0.62395621  0.37131239  1
  O  O370  1  0.85529809  0.63221400  0.87580004  1
  O  O371  1  0.14904172  0.37337251  0.12847206  1
  O  O372  1  0.12584672  0.38291660  0.63694853  1
  O  O373  1  0.13182414  0.87489017  0.13360587  1
  O  O374  1  0.13425359  0.88316126  0.61931046  1
  O  O375  1  0.62844093  0.38225211  0.12901214  1
  O  O376  1  0.62093631  0.38103639  0.63648438  1
  O  O377  1  0.63802865  0.87962055  0.12736375  1
  O  O378  1  0.62929984  0.88109900  0.63266418  1
  O  O379  1  0.12328923  0.23644962  0.25956531  1
  O  O380  1  0.12280623  0.25520215  0.75385481  1
  O  O381  1  0.11952869  0.76206871  0.26148182  1
  O  O382  1  0.11215251  0.75003217  0.75433599  1
  O  O383  1  0.61856539  0.25737614  0.25104916  1
  O  O384  1  0.62091552  0.25831518  0.75292749  1
  O  O385  1  0.61898919  0.75155889  0.26070871  1
  O  O386  1  0.61624825  0.75865201  0.75524504  1
  O  O387  1  0.38256727  0.25281904  0.24314355  1
  O  O388  1  0.38829569  0.25508976  0.74249571  1
  O  O389  1  0.38247003  0.75226769  0.23939670  1
  O  O390  1  0.38356474  0.75421745  0.74391236  1
  O  O391  1  0.87307364  0.23835787  0.23850634  1
  O  O392  1  0.88446841  0.24255865  0.74643495  1
  O  O393  1  0.87537905  0.74137937  0.24507753  1
  O  O394  1  0.88866255  0.75907812  0.74305935  1
  O  O395  1  0.38048453  0.48566127  0.50563341  1
  O  O396  1  0.37130160  0.48963109  0.98782340  1
  O  O397  1  0.38246188  0.99907043  0.49283177  1
  O  O398  1  0.37984032  1.00233425  1.00092038  1
  O  O399  1  0.88271053  0.49074264  0.50084252  1
  O  O400  1  0.88742136  0.50184737  1.00119110  1
  O  O401  1  0.87855825  0.99675522  0.49491329  1
  O  O402  1  0.88243767  0.98788490  1.00044076  1
  O  O403  1  0.11870732  0.00312537  0.00565360  1
  O  O404  1  0.12023022  0.00505115  0.50987079  1
  O  O405  1  0.11645793  0.51205966  -0.00325154  1
  O  O406  1  0.12085865  0.50047344  0.50926894  1
  O  O407  1  0.63124616  -0.00521766  0.02256619  1
  O  O408  1  0.61673686  0.00625042  0.50475835  1
  O  O409  1  0.62580254  0.50552257  0.01014714  1
  O  O410  1  0.61494656  0.50325473  0.50568397  1
  O  O411  1  0.37932474  0.36361999  0.11161875  1
  O  O412  1  0.38106718  0.35818560  0.61202584  1
  O  O413  1  0.36008286  0.86698344  0.13127647  1
  O  O414  1  0.36668598  0.86191620  0.62175023  1
  O  O415  1  0.86584133  0.36821284  0.12350165  1
  O  O416  1  0.87716952  0.36434489  0.60843986  1
  O  O417  1  0.86636062  0.87028414  0.12306199  1
  O  O418  1  0.86560427  0.87265085  0.62056046  1
  O  O419  1  0.12906385  0.11225755  0.39099366  1
  O  O420  1  0.12810008  0.13391218  0.88078247  1
  O  O421  1  0.12274671  0.63768913  0.38134070  1
  O  O422  1  0.13409596  0.63530204  0.88092984  1
  O  O423  1  0.63015334  0.12925142  0.37807453  1
  O  O424  1  0.62855990  0.13884657  0.87266731  1
  O  O425  1  0.63265819  0.63408780  0.38177287  1
  O  O426  1  0.63114585  0.63156319  0.88209867  1
