# generated using pymatgen
data_V85Zn86O256
_symmetry_space_group_name_H-M   'P 1'
_cell_length_a   16.94896598
_cell_length_b   16.95165494
_cell_length_c   16.94602210
_cell_angle_alpha   89.94668181
_cell_angle_beta   90.00994902
_cell_angle_gamma   90.01347506
_symmetry_Int_Tables_number   1
_chemical_formula_structural   V85Zn86O256
_chemical_formula_sum   'V85 Zn86 O256'
_cell_volume   4868.81052008
_cell_formula_units_Z   1
loop_
 _symmetry_equiv_pos_site_id
 _symmetry_equiv_pos_as_xyz
  1  'x, y, z'
loop_
 _atom_site_type_symbol
 _atom_site_label
 _atom_site_symmetry_multiplicity
 _atom_site_fract_x
 _atom_site_fract_y
 _atom_site_fract_z
 _atom_site_occupancy
  V  V0  1  0.74752469  0.24432965  0.49362026  1
  V  V1  1  0.87524914  0.00015545  0.37728503  1
  V  V2  1  -0.00057311  0.36936094  0.36498628  1
  V  V3  1  0.50343178  0.87076694  0.37210086  1
  V  V4  1  0.12008962  0.24284071  0.37580475  1
  V  V5  1  0.33758500  0.85250865  0.46853263  1
  V  V6  1  0.62383104  0.00061108  0.12407637  1
  V  V7  1  0.88028852  0.50210847  0.37414816  1
  V  V8  1  0.51392722  0.51495985  0.00965432  1
  V  V9  1  0.62352189  0.62216119  0.50008135  1
  V  V10  1  0.62000089  0.12610313  0.00485250  1
  V  V11  1  0.25218963  0.12875307  0.37897936  1
  V  V12  1  0.25001421  0.87175398  0.12504042  1
  V  V13  1  0.87398550  0.25209453  0.62587285  1
  V  V14  1  0.48240757  0.24372888  0.74943658  1
  V  V15  1  0.12377354  0.25330937  0.87530474  1
  V  V16  1  0.11967061  0.00247122  0.12089437  1
  V  V17  1  0.50427239  0.24484774  0.24262816  1
  V  V18  1  0.11002726  0.87156968  0.25145280  1
  V  V19  1  0.87856083  0.38015628  0.49907569  1
  V  V20  1  0.00074974  0.50445097  0.00659810  1
  V  V21  1  0.24837498  0.00093196  0.24907735  1
  V  V22  1  0.25095624  0.74443334  0.00911983  1
  V  V23  1  -0.00051170  0.00382407  0.49838940  1
  V  V24  1  0.87839568  0.25341595  0.12873214  1
  V  V25  1  0.37473128  0.00090540  0.87681141  1
  V  V26  1  0.63016299  0.74854553  0.37232777  1
  V  V27  1  0.37033744  0.50688795  0.37151674  1
  V  V28  1  0.49827674  0.00076537  0.00701904  1
  V  V29  1  -0.00287079  0.12595146  0.12764575  1
  V  V30  1  0.89642578  0.62553809  0.24974184  1
  V  V31  1  0.12220777  -0.00589706  0.63099612  1
  V  V32  1  0.75379215  0.87180053  0.62822867  1
  V  V33  1  0.74943940  0.37467515  0.62432174  1
  V  V34  1  0.88998959  0.74185862  0.12598289  1
  V  V35  1  0.62342297  0.24962740  0.87422703  1
  V  V36  1  0.87206869  0.12666287  0.75276699  1
  V  V37  1  0.25751467  0.87354721  0.63852029  1
  V  V38  1  0.11731182  0.12695644  -0.00005138  1
  V  V39  1  0.25419450  0.25837391  0.00554356  1
  V  V40  1  0.75167540  0.62213111  0.37360598  1
  V  V41  1  0.12510096  0.38310459  0.74042190  1
  V  V42  1  0.49460161  0.37636495  0.88473873  1
  V  V43  1  0.37201270  0.49767256  0.88457420  1
  V  V44  1  0.74807075  0.00100746  0.75124206  1
  V  V45  1  0.87408058  0.12915253  0.25554487  1
  V  V46  1  -0.00069780  0.75425933  0.74423418  1
  V  V47  1  0.25593663  0.35336616  0.62157668  1
  V  V48  1  0.37735376  -0.00148021  0.37094704  1
  V  V49  1  0.50134555  -0.00723016  0.50050116  1
  V  V50  1  0.24755911  0.62491129  0.87358699  1
  V  V51  1  0.75193387  0.74898007  0.50558777  1
  V  V52  1  0.38041300  0.12382856  0.23556712  1
  V  V53  1  0.00065370  0.37907338  0.87386129  1
  V  V54  1  0.74989906  0.25048145  -0.00029560  1
  V  V55  1  0.25149079  0.50111763  0.73568711  1
  V  V56  1  0.62115218  0.37253491  0.75126423  1
  V  V57  1  0.74951151  0.50212821  0.75226773  1
  V  V58  1  0.25231104  0.12757717  0.87565275  1
  V  V59  1  0.74794514  0.00461354  0.25709178  1
  V  V60  1  0.00084523  0.12619539  0.62722672  1
  V  V61  1  0.75414676  0.87574723  0.12863294  1
  V  V62  1  -0.00082533  0.25409179  0.74916331  1
  V  V63  1  0.13561166  0.36860431  0.24930061  1
  V  V64  1  0.87709402  0.87193827  0.00193841  1
  V  V65  1  0.62322873  0.37801887  0.24490376  1
  V  V66  1  0.87635898  0.37692942  -0.00025190  1
  V  V67  1  0.87531556  0.62922585  0.74455736  1
  V  V68  1  0.00301124  0.87376168  0.87640567  1
  V  V69  1  0.62596447  0.74295007  0.86902576  1
  V  V70  1  0.37718847  0.86680465  0.00363849  1
  V  V71  1  0.74473606  0.50275413  0.24161416  1
  V  V72  1  0.12068346  0.62526277  0.00764247  1
  V  V73  1  0.00820550  0.61650784  0.61532208  1
  V  V74  1  0.48862393  0.75425721  0.74343418  1
  V  V75  1  0.62540312  0.87382170  0.24685312  1
  V  V76  1  0.61989051  0.87842744  0.74893404  1
  V  V77  1  0.48821257  0.73225485  0.24165294  1
  V  V78  1  0.13024585  0.50242444  0.13858985  1
  V  V79  1  0.72019658  0.73293219  0.02413346  1
  V  V80  1  0.24033984  0.00095567  0.75770519  1
  V  V81  1  0.37841260  0.35521271  0.49796450  1
  V  V82  1  0.87492933  0.87037986  0.50404397  1
  V  V83  1  0.62007704  0.50001142  0.62529941  1
  V  V84  1  0.87609364  -0.00129632  0.88130229  1
  Zn  Zn85  1  0.74851210  0.12346905  0.87592856  1
  Zn  Zn86  1  0.19250610  0.70830330  0.44630945  1
  Zn  Zn87  1  0.12400224  0.75341332  0.87543984  1
  Zn  Zn88  1  0.49378769  0.49628148  0.50169426  1
  Zn  Zn89  1  0.03447470  0.50064607  0.49666241  1
  Zn  Zn90  1  0.13546799  0.12778138  0.50674179  1
  Zn  Zn91  1  0.50187071  0.37295860  0.37368520  1
  Zn  Zn92  1  0.62828878  0.24463616  0.36928102  1
  Zn  Zn93  1  0.49344674  0.62781009  0.62360061  1
  Zn  Zn94  1  0.26120889  0.38498957  0.12592780  1
  Zn  Zn95  1  0.87609460  0.50334393  0.87523070  1
  Zn  Zn96  1  0.32646729  0.70963271  0.58185030  1
  Zn  Zn97  1  0.62444193  0.12077885  0.49518325  1
  Zn  Zn98  1  0.37367083  0.62355912  0.74484037  1
  Zn  Zn99  1  0.38440650  0.25708114  0.11890270  1
  Zn  Zn100  1  0.03464189  0.83344148  0.40694824  1
  Zn  Zn101  1  0.50009792  0.87368976  0.87712105  1
  Zn  Zn102  1  0.74790929  0.38262293  0.12107395  1
  Zn  Zn103  1  0.34540689  0.61324611  0.23669229  1
  Zn  Zn104  1  0.75139525  0.62562974  0.87810739  1
  Zn  Zn105  1  0.48916401  0.13695596  0.61545200  1
  Zn  Zn106  1  0.62340569  0.00615803  0.62349065  1
  Zn  Zn107  1  0.18669623  0.18965767  0.19178896  1
  Zn  Zn108  1  0.18494831  0.18446083  0.69297273  1
  Zn  Zn109  1  0.17393827  0.68120704  0.20258651  1
  Zn  Zn110  1  0.17850080  0.68789575  0.69082105  1
  Zn  Zn111  1  0.68971714  0.18833195  0.18479700  1
  Zn  Zn112  1  0.67943990  0.18446430  0.68219636  1
  Zn  Zn113  1  0.68995061  0.68953448  0.19184933  1
  Zn  Zn114  1  0.68544333  0.68789518  0.68690596  1
  Zn  Zn115  1  0.31696539  0.30721632  0.31244147  1
  Zn  Zn116  1  0.30988518  0.31645605  0.81617877  1
  Zn  Zn117  1  0.30782621  0.80624309  0.30101966  1
  Zn  Zn118  1  0.30888216  0.81546088  0.81733342  1
  Zn  Zn119  1  0.81037568  0.31577903  0.31052102  1
  Zn  Zn120  1  0.81102007  0.31626617  0.81454815  1
  Zn  Zn121  1  0.85754567  0.78480491  0.34198009  1
  Zn  Zn122  1  0.81197944  0.80958431  0.81388840  1
  Zn  Zn123  1  0.19534418  0.41972586  0.44023668  1
  Zn  Zn124  1  0.18463746  0.44161829  0.93613395  1
  Zn  Zn125  1  0.18462738  0.93739963  0.43898803  1
  Zn  Zn126  1  0.18540596  0.93756254  0.94215605  1
  Zn  Zn127  1  0.68813101  0.43402937  0.43275654  1
  Zn  Zn128  1  0.68461278  0.43812236  0.93731847  1
  Zn  Zn129  1  0.68771478  0.93766522  0.43620000  1
  Zn  Zn130  1  0.68938155  0.93027931  0.93904484  1
  Zn  Zn131  1  0.30777389  0.06290362  0.05879310  1
  Zn  Zn132  1  0.31805342  0.05372915  0.55793803  1
  Zn  Zn133  1  0.31838565  0.56468752  0.06852597  1
  Zn  Zn134  1  0.30325088  0.55247287  0.54866264  1
  Zn  Zn135  1  0.81092602  0.06352735  0.06235331  1
  Zn  Zn136  1  0.81224508  0.06211436  0.56758337  1
  Zn  Zn137  1  0.81610718  0.56571030  0.06396878  1
  Zn  Zn138  1  0.81448250  0.56380805  0.56507401  1
  Zn  Zn139  1  0.43773613  0.43876641  0.18418124  1
  Zn  Zn140  1  0.43331643  0.43346691  0.68945265  1
  Zn  Zn141  1  0.43698528  0.93194211  0.18629419  1
  Zn  Zn142  1  0.41937446  0.97494526  0.67607837  1
  Zn  Zn143  1  0.94097480  0.44082706  0.18766368  1
  Zn  Zn144  1  0.93810387  0.44504843  0.68351915  1
  Zn  Zn145  1  0.93430391  0.94493525  0.18323750  1
  Zn  Zn146  1  0.93553617  0.93808705  0.69087350  1
  Zn  Zn147  1  0.05969313  0.06113763  0.31095630  1
  Zn  Zn148  1  0.05770524  0.06293603  0.81630844  1
  Zn  Zn149  1  0.17827090  0.56127675  0.35023867  1
  Zn  Zn150  1  0.06247636  0.56477561  0.81366774  1
  Zn  Zn151  1  0.56489768  0.06714983  0.31728753  1
  Zn  Zn152  1  0.56067099  0.06321570  0.81790076  1
  Zn  Zn153  1  0.55815693  0.55548078  0.31587076  1
  Zn  Zn154  1  0.55681569  0.56428291  0.81259895  1
  Zn  Zn155  1  0.44336239  0.18298858  0.42635518  1
  Zn  Zn156  1  0.43751545  0.18609088  0.93750470  1
  Zn  Zn157  1  0.44020652  0.68621147  0.43343497  1
  Zn  Zn158  1  0.43566919  0.68610379  0.93456325  1
  Zn  Zn159  1  0.93513504  0.18750704  0.43771229  1
  Zn  Zn160  1  0.93690451  0.18880261  0.93769439  1
  Zn  Zn161  1  1.02638617  0.67603470  0.41827389  1
  Zn  Zn162  1  0.93351325  0.68722103  0.93543702  1
  Zn  Zn163  1  0.06316941  0.31491643  0.06555178  1
  Zn  Zn164  1  0.06457232  0.31226513  0.55741746  1
  Zn  Zn165  1  0.06393982  0.81438347  0.06043109  1
  Zn  Zn166  1  0.06388633  0.81289741  0.57634375  1
  Zn  Zn167  1  0.56104566  0.31841901  0.06622594  1
  Zn  Zn168  1  0.56107814  0.31026705  0.56644658  1
  Zn  Zn169  1  0.56326085  0.79797973  0.06754142  1
  Zn  Zn170  1  0.56442683  0.81514158  0.56358114  1
  O  O171  1  0.11679083  0.12302048  0.12136653  1
  O  O172  1  0.11951787  0.11607065  0.62583940  1
  O  O173  1  0.12422115  0.61779949  0.11502386  1
  O  O174  1  0.10687295  0.62876069  0.62513191  1
  O  O175  1  0.63163482  0.11681177  0.11185327  1
  O  O176  1  0.61063298  0.12258965  0.61559220  1
  O  O177  1  0.64078514  0.69891362  0.09082453  1
  O  O178  1  0.62383037  0.61588127  0.61783687  1
  O  O179  1  0.37648059  0.37076263  0.38837141  1
  O  O180  1  0.38245889  0.38422947  0.87306061  1
  O  O181  1  0.38604941  0.87853543  0.36649912  1
  O  O182  1  0.37395537  0.88213124  0.88889522  1
  O  O183  1  0.88138615  0.37760109  0.38004439  1
  O  O184  1  0.88291978  0.37889605  0.88157563  1
  O  O185  1  0.86671598  0.89288492  0.38846501  1
  O  O186  1  0.87845492  0.87873188  0.88369110  1
  O  O187  1  0.25444678  0.00106236  0.36139381  1
  O  O188  1  0.25119721  0.00712009  0.87634746  1
  O  O189  1  0.26900856  0.48514172  0.37232236  1
  O  O190  1  0.25467973  0.50550744  0.86824399  1
  O  O191  1  0.75395467  -0.00077043  0.36191280  1
  O  O192  1  0.75898381  -0.00251233  0.86885560  1
  O  O193  1  0.75992720  0.50245276  0.36566996  1
  O  O194  1  0.74866174  0.50177467  0.86217271  1
  O  O195  1  0.23330107  0.49723219  0.11162109  1
  O  O196  1  0.25066894  0.48798858  0.63435908  1
  O  O197  1  0.24204145  0.99517831  0.13160976  1
  O  O198  1  0.24080788  0.99741963  0.64111476  1
  O  O199  1  0.75486846  0.50257345  0.13716606  1
  O  O200  1  0.74025237  0.49562336  0.63458904  1
  O  O201  1  0.74605642  0.99335554  0.13057115  1
  O  O202  1  0.74561391  0.99448633  0.63560145  1
  O  O203  1  0.00527846  0.37766969  0.26178251  1
  O  O204  1  0.00733061  0.37488794  0.75057124  1
  O  O205  1  0.01124654  0.88719883  0.24282403  1
  O  O206  1  -0.01003180  0.86160276  0.75811989  1
  O  O207  1  0.50993955  0.36705899  0.24914236  1
  O  O208  1  0.50340224  0.36511027  0.75910908  1
  O  O209  1  0.50658947  0.87179827  0.25779081  1
  O  O210  1  0.50632851  0.86666175  0.75183964  1
  O  O211  1  0.49057023  0.12854683  0.25036970  1
  O  O212  1  0.50292869  0.14317405  0.75933322  1
  O  O213  1  0.51408049  0.63535926  0.24623558  1
  O  O214  1  0.49789553  0.64106847  0.74766208  1
  O  O215  1  0.98498337  0.12077984  0.24117382  1
  O  O216  1  0.99300640  0.13348365  0.74700840  1
  O  O217  1  0.99102703  0.61927029  0.25236582  1
  O  O218  1  0.99316545  0.62959550  0.74381621  1
  O  O219  1  0.35764019  0.24258592  0.00035336  1
  O  O220  1  0.38183355  0.25559713  0.49681914  1
  O  O221  1  0.36599106  0.75910933  -0.00570430  1
  O  O222  1  0.39144692  0.77042918  0.50381494  1
  O  O223  1  0.86762630  0.25568658  0.00446293  1
  O  O224  1  0.86849929  0.26069795  0.50561952  1
  O  O225  1  0.87233507  0.75299761  0.01376506  1
  O  O226  1  0.86648325  0.76898903  0.50302607  1
  O  O227  1  0.12166979  0.24330949  0.48415792  1
  O  O228  1  0.13024202  0.24490445  0.99461933  1
  O  O229  1  0.09699663  0.76656191  0.48235240  1
  O  O230  1  0.13081169  0.74185889  0.99829562  1
  O  O231  1  0.64070145  0.25421955  0.50219623  1
  O  O232  1  0.63046385  0.24427427  0.99772889  1
  O  O233  1  0.63207480  0.74192627  0.49399691  1
  O  O234  1  0.62427951  0.77325559  0.97172733  1
  O  O235  1  0.50194532  0.24848522  0.13561332  1
  O  O236  1  0.49858009  0.25133540  0.64424503  1
  O  O237  1  0.49157835  0.76147487  0.14622748  1
  O  O238  1  0.50560225  0.75140107  0.63992033  1
  O  O239  1  0.98699240  0.24115323  0.11900307  1
  O  O240  1  0.99405569  0.24742854  0.62930165  1
  O  O241  1  0.98791089  0.75659405  0.12428118  1
  O  O242  1  0.99623449  0.74278897  0.64019051  1
  O  O243  1  0.00462714  0.25751143  0.37793396  1
  O  O244  1  0.00326417  0.25871752  0.86897982  1
  O  O245  1  -0.03667929  0.75658104  0.36986027  1
  O  O246  1  -0.00203072  0.75817396  0.86845196  1
  O  O247  1  0.50334464  0.25284827  0.35812729  1
  O  O248  1  0.50286943  0.25794165  0.87157948  1
  O  O249  1  0.50893724  0.75395026  0.36455927  1
  O  O250  1  0.50873836  0.75283090  0.86379239  1
  O  O251  1  0.25178765  0.10930121  0.48397364  1
  O  O252  1  0.23675622  0.13264354  0.99318358  1
  O  O253  1  0.26135761  0.64856479  0.51123355  1
  O  O254  1  0.24293266  0.63072568  0.99368573  1
  O  O255  1  0.75424134  0.14260995  0.50860010  1
  O  O256  1  0.74374038  0.13426747  0.99760064  1
  O  O257  1  0.74304931  0.62786549  0.49733933  1
  O  O258  1  0.75630321  0.63814202  0.99730776  1
  O  O259  1  0.24161309  0.35960851  -0.00269109  1
  O  O260  1  0.26074719  0.36288523  0.51347799  1
  O  O261  1  0.25393696  0.86713015  0.00651559  1
  O  O262  1  0.24945377  0.89096897  0.52503709  1
  O  O263  1  0.75683317  0.36949397  0.00015931  1
  O  O264  1  0.75771337  0.36800543  0.50616694  1
  O  O265  1  0.75442125  0.86159185  0.01257697  1
  O  O266  1  0.75300322  0.87290755  0.51001001  1
  O  O267  1  0.12326290  0.48688246  0.24113925  1
  O  O268  1  0.13293782  0.48779220  0.75518676  1
  O  O269  1  0.13110001  0.99946753  0.23718952  1
  O  O270  1  0.13226573  1.00600901  0.74881190  1
  O  O271  1  0.63431891  0.49212096  0.25473654  1
  O  O272  1  0.62884384  0.49546866  0.74435683  1
  O  O273  1  0.63133462  0.99616852  0.24392029  1
  O  O274  1  0.62838267  0.99490679  0.75024243  1
  O  O275  1  0.36779595  0.00390216  0.25053074  1
  O  O276  1  0.35917055  -0.00642621  0.77241237  1
  O  O277  1  0.38596062  0.50033801  0.26721219  1
  O  O278  1  0.36480886  0.49953656  0.75906286  1
  O  O279  1  0.86783466  0.00601640  0.25785221  1
  O  O280  1  0.86693565  0.00647419  0.75797323  1
  O  O281  1  0.87089867  0.50954630  0.25297280  1
  O  O282  1  0.86464165  0.50484256  0.75074922  1
  O  O283  1  0.11852577  0.36223286  0.36761814  1
  O  O284  1  0.11939220  0.37095165  0.86575177  1
  O  O285  1  0.11957474  0.89160902  0.35630918  1
  O  O286  1  0.10672839  0.87750875  0.88466257  1
  O  O287  1  0.62650319  0.36769576  0.36150756  1
  O  O288  1  0.61682133  0.36876913  0.86952784  1
  O  O289  1  0.62383250  0.86865482  0.36488068  1
  O  O290  1  0.62534886  0.87265737  0.85910322  1
  O  O291  1  0.36845070  0.12637780  0.13344749  1
  O  O292  1  0.39330557  0.08029183  0.63375163  1
  O  O293  1  0.37703619  0.62851458  0.13202072  1
  O  O294  1  0.37722368  0.61827161  0.62777532  1
  O  O295  1  0.88118843  0.13101666  0.12874158  1
  O  O296  1  0.88035191  0.13168164  0.63448770  1
  O  O297  1  0.87971075  0.63363838  0.13401150  1
  O  O298  1  0.88470083  0.61881686  0.63763676  1
  O  O299  1  0.24549611  0.24865394  0.10991304  1
  O  O300  1  0.25381994  0.25518271  0.63375445  1
  O  O301  1  0.23996112  0.75789287  0.11474921  1
  O  O302  1  0.24440614  0.76862770  0.64048821  1
  O  O303  1  0.76141825  0.25120849  0.11289455  1
  O  O304  1  0.75644730  0.25718328  0.62046875  1
  O  O305  1  0.76825718  0.76076446  0.12716640  1
  O  O306  1  0.74627314  0.75941944  0.61912066  1
  O  O307  1  0.24145440  0.23486968  0.36805205  1
  O  O308  1  0.24410623  0.24458131  0.88313764  1
  O  O309  1  0.26281658  0.80195696  0.40573655  1
  O  O310  1  0.24547721  0.74250485  0.88421710  1
  O  O311  1  0.75514256  0.25377328  0.39168460  1
  O  O312  1  0.74507729  0.25073735  0.88669655  1
  O  O313  1  0.75151529  0.74152574  0.38371654  1
  O  O314  1  0.73632396  0.74872478  0.87784472  1
  O  O315  1  0.01077049  0.13053929  0.00597291  1
  O  O316  1  -0.00365031  0.11640986  0.51042236  1
  O  O317  1  0.00785916  0.61637828  -0.00684692  1
  O  O318  1  -0.00934166  0.61813159  0.51263268  1
  O  O319  1  0.50821156  0.11480278  -0.00231007  1
  O  O320  1  0.49394606  0.10600307  0.49590731  1
  O  O321  1  0.49983326  0.61399642  -0.00737111  1
  O  O322  1  0.51381098  0.62361857  0.50234612  1
  O  O323  1  0.48789203  0.37208342  0.50287945  1
  O  O324  1  0.50499380  0.38201560  0.98760824  1
  O  O325  1  0.51309513  0.87420591  0.47870570  1
  O  O326  1  0.49046071  0.87808836  1.00172660  1
  O  O327  1  0.99365717  0.38089314  0.49245311  1
  O  O328  1  0.99583400  0.38155430  0.99451590  1
  O  O329  1  0.98931017  0.89088315  0.50819964  1
  O  O330  1  0.98515738  0.87077560  0.99320756  1
  O  O331  1  0.49147473  0.49133588  0.38270662  1
  O  O332  1  0.49090771  0.49342508  0.87622427  1
  O  O333  1  0.49643192  0.98947908  0.37781430  1
  O  O334  1  0.49108227  0.99658256  0.88650079  1
  O  O335  1  0.98300645  0.48951355  0.37861040  1
  O  O336  1  1.00088071  0.49368663  0.88454470  1
  O  O337  1  0.99033120  1.00573360  0.38689809  1
  O  O338  1  0.98392461  0.99096573  0.86934456  1
  O  O339  1  0.00539259  0.01540283  0.12293746  1
  O  O340  1  0.00463713  0.00591435  0.62446539  1
  O  O341  1  0.01100946  0.49485831  0.11271751  1
  O  O342  1  0.00539330  0.51031705  0.61789302  1
  O  O343  1  0.50550519  -0.00673362  0.11375584  1
  O  O344  1  0.50823140  -0.03072151  0.60301481  1
  O  O345  1  0.50088143  0.49883096  0.10766036  1
  O  O346  1  0.51157829  0.49784540  0.62580286  1
  O  O347  1  0.23873753  0.36528960  0.24822947  1
  O  O348  1  0.24443370  0.37817272  0.74026209  1
  O  O349  1  0.24146470  0.88247636  0.24027747  1
  O  O350  1  0.24494647  0.88541845  0.74827783  1
  O  O351  1  0.74554597  0.38570520  0.24693859  1
  O  O352  1  0.74359933  0.38270270  0.74465963  1
  O  O353  1  0.74594776  0.88577648  0.23742786  1
  O  O354  1  0.74574369  0.88039740  0.74516231  1
  O  O355  1  0.25583656  0.11584365  0.25407971  1
  O  O356  1  0.24370883  0.11950634  0.76868381  1
  O  O357  1  0.23719556  0.61704588  0.26421042  1
  O  O358  1  0.24565666  0.61715684  0.75591065  1
  O  O359  1  0.76266381  0.11534322  0.24005084  1
  O  O360  1  0.75324484  0.11934294  0.75229428  1
  O  O361  1  0.74885031  0.61773715  0.25627181  1
  O  O362  1  0.75656234  0.61812060  0.74764095  1
  O  O363  1  0.36768263  0.11634424  0.36338063  1
  O  O364  1  0.36284599  0.11427211  0.88663606  1
  O  O365  1  0.37687334  0.60900721  0.37911254  1
  O  O366  1  0.36102873  0.61920878  0.87003032  1
  O  O367  1  0.87567417  0.11577515  0.36706704  1
  O  O368  1  0.87314634  0.11654570  0.87223283  1
  O  O369  1  0.86865614  0.61522008  0.36060805  1
  O  O370  1  0.87184502  0.62142628  0.86179570  1
  O  O371  1  0.12684634  0.38008860  0.13476516  1
  O  O372  1  0.13931802  0.36717363  0.62986002  1
  O  O373  1  0.13069052  0.88637651  0.12637571  1
  O  O374  1  0.12970228  0.88988865  0.63162238  1
  O  O375  1  0.63212393  0.37162137  0.13858829  1
  O  O376  1  0.62986505  0.38176861  0.63105561  1
  O  O377  1  0.63395987  0.87989024  0.12805881  1
  O  O378  1  0.63671888  0.87522681  0.63654119  1
  O  O379  1  0.12145701  0.25506776  0.26009420  1
  O  O380  1  0.11812334  0.25981043  0.75596936  1
  O  O381  1  0.12019190  0.77377908  0.23991125  1
  O  O382  1  0.10404900  0.74626975  0.75854673  1
  O  O383  1  0.62198404  0.25439231  0.24776110  1
  O  O384  1  0.62514717  0.25673674  0.75884903  1
  O  O385  1  0.62129139  0.75757639  0.25770369  1
  O  O386  1  0.61928042  0.75802917  0.75626062  1
  O  O387  1  0.38372416  0.23807433  0.24664776  1
  O  O388  1  0.38392384  0.24947144  0.75812393  1
  O  O389  1  0.38531971  0.73485987  0.26289388  1
  O  O390  1  0.38652393  0.75289441  0.75575073  1
  O  O391  1  0.86700364  0.24235174  0.24003803  1
  O  O392  1  0.87926794  0.24811875  0.74633265  1
  O  O393  1  0.87258061  0.73302820  0.23733038  1
  O  O394  1  0.88500349  0.74056352  0.75533032  1
  O  O395  1  0.37520069  0.48378474  0.48947445  1
  O  O396  1  0.37816566  0.50319087  0.98624768  1
  O  O397  1  0.37979123  0.97238328  0.48436811  1
  O  O398  1  0.37943358  0.99214232  0.99718678  1
  O  O399  1  0.86480436  0.48803389  0.49118294  1
  O  O400  1  0.88289891  0.49577530  0.99994042  1
  O  O401  1  0.87795976  0.99901678  0.49504600  1
  O  O402  1  0.86530259  0.98738593  0.99250124  1
  O  O403  1  0.12965435  0.01103390  0.01314944  1
  O  O404  1  0.11435173  0.00362637  0.51037608  1
  O  O405  1  0.11702157  0.50673394  0.00505999  1
  O  O406  1  0.13724743  0.51259741  0.45444106  1
  O  O407  1  0.61811734  0.00434278  0.00197273  1
  O  O408  1  0.61628384  -0.00075345  0.49919053  1
  O  O409  1  0.61389481  0.50365145  -0.00483524  1
  O  O410  1  0.62703598  0.50492852  0.50820535  1
  O  O411  1  0.37165024  0.36934436  0.12707929  1
  O  O412  1  0.36374391  0.37365710  0.61543485  1
  O  O413  1  0.35852536  0.87865019  0.11863827  1
  O  O414  1  0.35684828  0.88162951  0.63506826  1
  O  O415  1  0.87560361  0.36807508  0.11953503  1
  O  O416  1  0.87157797  0.37330433  0.61695608  1
  O  O417  1  0.87163549  0.87053650  0.11972197  1
  O  O418  1  0.86124098  0.88492450  0.61964667  1
  O  O419  1  0.13222373  0.12725044  0.37331140  1
  O  O420  1  0.12623849  0.13139299  0.88389471  1
  O  O421  1  0.12497325  0.65856880  0.36828801  1
  O  O422  1  0.13509563  0.62295769  0.88545241  1
  O  O423  1  0.62771036  0.13118333  0.38157721  1
  O  O424  1  0.62731166  0.13101953  0.88763089  1
  O  O425  1  0.63194192  0.62663767  0.38352530  1
  O  O426  1  0.62792545  0.63993194  0.86726949  1
