# generated using pymatgen
data_V85Zn86O256
_symmetry_space_group_name_H-M   'P 1'
_cell_length_a   16.94646523
_cell_length_b   16.94698651
_cell_length_c   16.94558739
_cell_angle_alpha   90.05775342
_cell_angle_beta   90.00159628
_cell_angle_gamma   89.99982769
_symmetry_Int_Tables_number   1
_chemical_formula_structural   V85Zn86O256
_chemical_formula_sum   'V85 Zn86 O256'
_cell_volume   4866.62648390
_cell_formula_units_Z   1
loop_
 _symmetry_equiv_pos_site_id
 _symmetry_equiv_pos_as_xyz
  1  'x, y, z'
loop_
 _atom_site_type_symbol
 _atom_site_label
 _atom_site_symmetry_multiplicity
 _atom_site_fract_x
 _atom_site_fract_y
 _atom_site_fract_z
 _atom_site_occupancy
  V  V0  1  0.74811612  0.12144120  0.87580271  1
  V  V1  1  0.12853119  -0.00071804  0.62834408  1
  V  V2  1  0.63537853  0.73948035  0.86955399  1
  V  V3  1  0.74804183  0.38027854  0.12857761  1
  V  V4  1  0.24869050  0.12009512  0.38356746  1
  V  V5  1  0.24909483  0.75559023  0.50357931  1
  V  V6  1  0.12825540  0.49987482  0.62589492  1
  V  V7  1  0.24846020  0.86078432  0.12480441  1
  V  V8  1  0.87392036  0.12378117  0.75012313  1
  V  V9  1  0.37660027  0.87787665  -0.00108227  1
  V  V10  1  0.75099694  0.50547343  0.76144140  1
  V  V11  1  0.49541055  0.11885699  0.62961204  1
  V  V12  1  0.12032866  0.61680451  -0.01105597  1
  V  V13  1  0.62200102  0.11860979  0.01964620  1
  V  V14  1  0.00688822  0.12358844  0.12105158  1
  V  V15  1  0.63409626  0.89243720  0.74743086  1
  V  V16  1  0.75074276  0.37447874  0.63102544  1
  V  V17  1  0.49856526  0.37287195  0.37504584  1
  V  V18  1  0.23759085  0.23557663  -0.01081486  1
  V  V19  1  0.87317138  0.37657466  0.50105863  1
  V  V20  1  0.36929521  0.00469645  0.86321151  1
  V  V21  1  0.02270789  0.22874187  0.78069738  1
  V  V22  1  0.37336089  0.37489694  0.50054151  1
  V  V23  1  0.00247078  0.25026867  0.24875462  1
  V  V24  1  0.87921224  0.25268158  0.63018888  1
  V  V25  1  0.12469054  0.37602668  0.75829715  1
  V  V26  1  0.74454488  0.24999549  0.50404446  1
  V  V27  1  0.12868478  0.00055021  0.11935269  1
  V  V28  1  0.24810676  0.87877106  0.64539180  1
  V  V29  1  0.62249064  0.24701674  0.37951669  1
  V  V30  1  0.87608768  0.25074500  0.11736651  1
  V  V31  1  0.74730864  0.12429828  0.37209433  1
  V  V32  1  -0.00168016  0.74565256  0.24981510  1
  V  V33  1  0.37392603  0.24438377  0.12175374  1
  V  V34  1  -0.00466990  0.62114371  0.62820781  1
  V  V35  1  0.87678428  0.00053266  0.36730476  1
  V  V36  1  0.89569090  0.77690848  0.63797790  1
  V  V37  1  0.37531770  0.24998682  0.62704505  1
  V  V38  1  0.49880868  0.87889470  0.38000156  1
  V  V39  1  0.25160436  -0.00195384  0.25580052  1
  V  V40  1  0.61294304  0.50918072  0.10900286  1
  V  V41  1  0.48848899  0.00675905  0.49866363  1
  V  V42  1  0.50437829  0.74385878  0.25594927  1
  V  V43  1  0.85836324  0.50282233  0.37379763  1
  V  V44  1  0.62464520  0.37297096  0.75551243  1
  V  V45  1  0.86219359  0.62234818  0.25557852  1
  V  V46  1  0.41018939  0.72612373  0.09529913  1
  V  V47  1  0.10484821  0.76682473  0.86455317  1
  V  V48  1  -0.00043159  0.87405202  0.37587478  1
  V  V49  1  0.49872368  0.50133334  0.50120451  1
  V  V50  1  0.49960966  0.62920185  0.62414995  1
  V  V51  1  0.86924465  0.87597056  0.49460307  1
  V  V52  1  0.00403362  -0.00804761  -0.00832847  1
  V  V53  1  0.87900992  -0.00580834  0.87044241  1
  V  V54  1  0.87811983  0.38809420  0.00288997  1
  V  V55  1  0.25195421  0.50870229  0.76090436  1
  V  V56  1  0.62537912  0.50138005  0.62797368  1
  V  V57  1  0.38377034  0.50710117  0.88463099  1
  V  V58  1  0.12305143  0.62465378  0.50135179  1
  V  V59  1  0.12504758  0.24569595  0.38173802  1
  V  V60  1  0.00029587  0.37909298  0.37329768  1
  V  V61  1  0.75139135  0.73300948  -0.00636047  1
  V  V62  1  0.50472417  0.75563049  0.74792540  1
  V  V63  1  0.00072577  0.38566938  0.88099162  1
  V  V64  1  0.67025973  0.06743639  0.55684469  1
  V  V65  1  0.37688746  0.12060138  0.25200269  1
  V  V66  1  0.75023436  -0.00298954  0.23858749  1
  V  V67  1  0.75163178  0.87320459  0.11888226  1
  V  V68  1  0.49647922  0.24759365  0.75788745  1
  V  V69  1  0.87373547  0.62923379  0.75438821  1
  V  V70  1  0.87547759  0.74770358  0.12335034  1
  V  V71  1  0.62639464  0.38410171  0.24961966  1
  V  V72  1  0.01088486  0.13213036  0.61274321  1
  V  V73  1  0.87479034  0.12641078  0.24579518  1
  V  V74  1  0.24199398  0.74739216  -0.01525988  1
  V  V75  1  0.12281761  0.74856870  0.37809605  1
  V  V76  1  0.57765690  0.92672468  0.19123979  1
  V  V77  1  0.25048726  0.62254842  0.37587449  1
  V  V78  1  0.63416276  0.62609031  0.49737513  1
  V  V79  1  0.12546687  0.87204035  0.25045292  1
  V  V80  1  0.24927617  0.37300240  0.12421422  1
  V  V81  1  0.50111947  0.24527815  0.24287782  1
  V  V82  1  0.37590101  0.62679976  0.24944224  1
  V  V83  1  -0.00042029  0.61410776  0.12286636  1
  V  V84  1  0.63571952  0.74883822  0.37320981  1
  Zn  Zn85  1  0.37533142  0.75379396  0.62605007  1
  Zn  Zn86  1  0.75590025  0.74695620  0.50439149  1
  Zn  Zn87  1  0.50460893  -0.00247748  0.00637795  1
  Zn  Zn88  1  0.87840659  0.86973444  -0.00952144  1
  Zn  Zn89  1  0.37222496  0.87700534  0.49783325  1
  Zn  Zn90  1  0.25270128  0.37756778  0.62851996  1
  Zn  Zn91  1  0.37229901  0.63041876  0.75137142  1
  Zn  Zn92  1  0.50540607  0.87732935  0.87718277  1
  Zn  Zn93  1  0.00712102  0.00673309  0.49166225  1
  Zn  Zn94  1  0.24958318  0.49939816  0.24662612  1
  Zn  Zn95  1  0.12736991  0.37823979  0.24973572  1
  Zn  Zn96  1  0.37570401  0.49887049  0.37226253  1
  Zn  Zn97  1  0.37883609  0.37505860  0.00123397  1
  Zn  Zn98  1  0.62469887  0.24546439  0.88097549  1
  Zn  Zn99  1  0.74923316  0.24876378  -0.00040000  1
  Zn  Zn100  1  0.50344666  0.38104192  0.88485288  1
  Zn  Zn101  1  0.74376557  0.88216476  0.62221247  1
  Zn  Zn102  1  0.34459936  0.13052368  0.76224557  1
  Zn  Zn103  1  -0.00128400  0.49740726  0.49932597  1
  Zn  Zn104  1  0.12357757  0.49639653  0.12250639  1
  Zn  Zn105  1  0.87305806  0.50998259  0.88343521  1
  Zn  Zn106  1  0.24867199  0.24753401  0.50027528  1
  Zn  Zn107  1  0.18926216  0.18797668  0.19004959  1
  Zn  Zn108  1  0.19061247  0.19244915  0.68108203  1
  Zn  Zn109  1  0.18345794  0.68106096  0.18694717  1
  Zn  Zn110  1  0.18341610  0.69056536  0.69095172  1
  Zn  Zn111  1  0.68931432  0.19334032  0.18890501  1
  Zn  Zn112  1  0.68965723  0.18929250  0.69750925  1
  Zn  Zn113  1  0.68448412  0.68734888  0.18404330  1
  Zn  Zn114  1  0.69647104  0.69522269  0.68294565  1
  Zn  Zn115  1  0.31161525  0.30910800  0.31092593  1
  Zn  Zn116  1  0.31197736  0.31858034  0.81761224  1
  Zn  Zn117  1  0.31516193  0.80784081  0.31540168  1
  Zn  Zn118  1  0.31729076  0.81167298  0.81629785  1
  Zn  Zn119  1  0.81203002  0.31302314  0.31146216  1
  Zn  Zn120  1  0.81927990  0.31000408  0.81879435  1
  Zn  Zn121  1  0.80977529  0.81317148  0.30634286  1
  Zn  Zn122  1  0.81019487  0.81619226  0.80723866  1
  Zn  Zn123  1  0.18798650  0.43649200  0.43699423  1
  Zn  Zn124  1  0.19355893  0.43128674  0.93996998  1
  Zn  Zn125  1  0.18257736  0.93994594  0.44311760  1
  Zn  Zn126  1  0.18907898  0.93565412  0.93570791  1
  Zn  Zn127  1  0.68374402  0.43429163  0.44090790  1
  Zn  Zn128  1  0.68827782  0.43531430  0.94129293  1
  Zn  Zn129  1  0.68579808  0.93320607  0.42406498  1
  Zn  Zn130  1  0.68868524  0.93885183  0.93455363  1
  Zn  Zn131  1  0.31031727  0.06203740  0.06456346  1
  Zn  Zn132  1  0.31213289  0.06052446  0.56829572  1
  Zn  Zn133  1  0.30383374  0.56450550  0.05960414  1
  Zn  Zn134  1  0.31244006  0.56340183  0.56528924  1
  Zn  Zn135  1  0.81505270  0.06177300  0.05585407  1
  Zn  Zn136  1  0.83454866  0.06225986  0.55894471  1
  Zn  Zn137  1  0.80574274  0.56120160  0.07371573  1
  Zn  Zn138  1  0.81320749  0.56023381  0.56827361  1
  Zn  Zn139  1  0.43690892  0.43590525  0.18513172  1
  Zn  Zn140  1  0.43775669  0.43797132  0.69249227  1
  Zn  Zn141  1  0.41576318  0.92397144  0.18823542  1
  Zn  Zn142  1  0.43681477  0.93648769  0.68654706  1
  Zn  Zn143  1  0.93442474  0.43895496  0.19274703  1
  Zn  Zn144  1  0.94005191  0.43791564  0.69513974  1
  Zn  Zn145  1  0.93870890  0.93412437  0.18308115  1
  Zn  Zn146  1  0.94321974  0.94647464  0.68459262  1
  Zn  Zn147  1  0.06682641  0.06307945  0.30861937  1
  Zn  Zn148  1  0.13816363  0.08322924  0.80162429  1
  Zn  Zn149  1  0.06189099  0.55966597  0.30877527  1
  Zn  Zn150  1  0.05971359  0.56511776  0.81178453  1
  Zn  Zn151  1  0.55929585  0.06563927  0.31796803  1
  Zn  Zn152  1  0.55478771  0.06216745  0.82046168  1
  Zn  Zn153  1  0.56264921  0.56348804  0.31436683  1
  Zn  Zn154  1  0.56198112  0.56561136  0.81036260  1
  Zn  Zn155  1  0.43502020  0.18437312  0.43726974  1
  Zn  Zn156  1  0.44034622  0.18150550  0.94310396  1
  Zn  Zn157  1  0.43699103  0.68968773  0.43864711  1
  Zn  Zn158  1  0.44035580  0.68910664  0.92604283  1
  Zn  Zn159  1  0.93264605  0.19366158  0.43545346  1
  Zn  Zn160  1  0.96623189  0.17112996  0.92631469  1
  Zn  Zn161  1  0.93659137  0.68581925  0.44230909  1
  Zn  Zn162  1  0.94053012  0.68820065  0.93674269  1
  Zn  Zn163  1  0.06459461  0.31259291  0.05771544  1
  Zn  Zn164  1  0.06409462  0.31712567  0.56211505  1
  Zn  Zn165  1  0.06275463  0.80808858  0.06039750  1
  Zn  Zn166  1  0.05548882  0.82064854  0.57738703  1
  Zn  Zn167  1  0.56230854  0.31032165  0.06055567  1
  Zn  Zn168  1  0.55942858  0.31087150  0.56703499  1
  Zn  Zn169  1  0.55931217  0.79043148  0.05018551  1
  Zn  Zn170  1  0.56637933  0.81626794  0.56204516  1
  O  O171  1  0.11830060  0.11259116  0.13497820  1
  O  O172  1  0.11434141  0.12546692  0.61933757  1
  O  O173  1  0.11437369  0.62277480  0.11511600  1
  O  O174  1  0.11929645  0.61539102  0.62280265  1
  O  O175  1  0.63168330  0.12301673  0.11831737  1
  O  O176  1  0.61862824  0.12835950  0.62330301  1
  O  O177  1  0.62840584  0.60743630  0.12698494  1
  O  O178  1  0.61703664  0.62333520  0.61882045  1
  O  O179  1  0.38019887  0.37405576  0.38270999  1
  O  O180  1  0.37811148  0.39366728  0.87529138  1
  O  O181  1  0.39272607  0.86830192  0.37478687  1
  O  O182  1  0.37840798  0.88346145  0.88381652  1
  O  O183  1  0.88065384  0.38005706  0.37906170  1
  O  O184  1  0.87789264  0.38381648  0.88781427  1
  O  O185  1  0.88000467  0.87985036  0.37432290  1
  O  O186  1  0.87291400  0.88960464  0.87093808  1
  O  O187  1  0.24084583  0.00550999  0.36614697  1
  O  O188  1  0.27016463  -0.00256357  0.88602599  1
  O  O189  1  0.25211056  0.51312503  0.37606346  1
  O  O190  1  0.25773636  0.49897486  0.86462261  1
  O  O191  1  0.75313552  0.00443826  0.35858913  1
  O  O192  1  0.76491960  0.01288374  0.88148235  1
  O  O193  1  0.75926409  0.49287791  0.37824965  1
  O  O194  1  0.75008383  0.49749063  0.86429075  1
  O  O195  1  0.25119081  0.48561482  0.12377845  1
  O  O196  1  0.24384344  0.49854860  0.63514066  1
  O  O197  1  0.24358410  0.98613146  0.13086959  1
  O  O198  1  0.24366741  0.98783768  0.62465825  1
  O  O199  1  0.73785918  0.48552584  0.12632367  1
  O  O200  1  0.74286910  0.49176023  0.63441251  1
  O  O201  1  0.75627446  0.99278626  0.13147532  1
  O  O202  1  0.73773452  1.01255936  0.60871774  1
  O  O203  1  0.00010212  0.36770282  0.25736166  1
  O  O204  1  0.00960278  0.36950702  0.76016609  1
  O  O205  1  0.00400005  0.86657676  0.25609718  1
  O  O206  1  -0.02148001  0.84115945  0.67502494  1
  O  O207  1  0.50462368  0.36506714  0.25721074  1
  O  O208  1  0.50836401  0.36634012  0.75321301  1
  O  O209  1  0.50803052  0.87636225  0.25608855  1
  O  O210  1  0.50912487  0.86627028  0.74713033  1
  O  O211  1  0.48992163  0.13229437  0.25653402  1
  O  O212  1  0.50210149  0.13346825  0.74168167  1
  O  O213  1  0.49078316  0.63318535  0.25553888  1
  O  O214  1  0.50325535  0.63836560  0.73991335  1
  O  O215  1  0.99411258  0.12852598  0.24004955  1
  O  O216  1  0.98967006  0.13588412  0.72680609  1
  O  O217  1  0.99431715  0.63103209  0.24290111  1
  O  O218  1  0.98990545  0.61950769  0.73847578  1
  O  O219  1  0.37160438  0.24096624  0.01543864  1
  O  O220  1  0.37700206  0.25776676  0.50899571  1
  O  O221  1  0.36011553  0.75762257  -0.00466434  1
  O  O222  1  0.36398619  0.75127786  0.50434519  1
  O  O223  1  0.87865383  0.25640098  0.01365347  1
  O  O224  1  0.86406546  0.25700729  0.50720009  1
  O  O225  1  0.86805996  0.75143472  0.00380883  1
  O  O226  1  0.87653552  0.76254038  0.50733947  1
  O  O227  1  0.12774418  0.25654269  0.48646945  1
  O  O228  1  0.13793714  0.24872655  0.99913539  1
  O  O229  1  0.13045112  0.74512563  0.49700926  1
  O  O230  1  0.12613340  0.74381608  0.98836273  1
  O  O231  1  0.63017875  0.25737574  0.49182279  1
  O  O232  1  0.62854569  0.23370659  1.00055255  1
  O  O233  1  0.62845749  0.74223648  0.49369311  1
  O  O234  1  0.63945262  0.75640260  0.97859363  1
  O  O235  1  0.49270336  0.25062228  0.13818663  1
  O  O236  1  0.49075503  0.24262326  0.63379632  1
  O  O237  1  0.49983298  0.76802267  0.14984412  1
  O  O238  1  0.50058156  0.74490292  0.62895584  1
  O  O239  1  0.99740166  0.24197038  0.12836241  1
  O  O240  1  0.99519119  0.24364847  0.61923854  1
  O  O241  1  0.99404239  0.74123914  0.13027625  1
  O  O242  1  0.99373725  0.72408326  0.60285006  1
  O  O243  1  0.00391505  0.25862002  0.37029204  1
  O  O244  1  -0.01885667  0.27144563  0.87244387  1
  O  O245  1  0.00406076  0.75379168  0.37055558  1
  O  O246  1  0.00503035  0.75982122  0.87637728  1
  O  O247  1  0.50645061  0.25292111  0.37001390  1
  O  O248  1  0.49902639  0.24636085  0.86450088  1
  O  O249  1  0.50685915  0.75555713  0.36927411  1
  O  O250  1  0.51502184  0.75477164  0.86372043  1
  O  O251  1  0.25819748  0.12481221  0.48708985  1
  O  O252  1  0.24798417  0.13589566  1.00618101  1
  O  O253  1  0.24447498  0.63369460  0.49649015  1
  O  O254  1  0.23124699  0.63670500  1.00496537  1
  O  O255  1  0.74150897  0.12480360  0.49831790  1
  O  O256  1  0.74168996  0.12606243  0.99445842  1
  O  O257  1  0.73766031  0.62454863  0.50741848  1
  O  O258  1  0.75447612  0.63410188  1.00192874  1
  O  O259  1  0.25779922  0.36308413  0.00887387  1
  O  O260  1  0.26387589  0.37468483  0.50126185  1
  O  O261  1  0.25390191  0.86687896  0.00830356  1
  O  O262  1  0.25118377  0.86219724  0.49504673  1
  O  O263  1  0.75921689  0.36959922  0.00893771  1
  O  O264  1  0.75357190  0.37010108  0.51062359  1
  O  O265  1  0.75354212  0.87391685  0.01014347  1
  O  O266  1  0.75999975  0.87703934  0.49191803  1
  O  O267  1  0.13040929  0.49770209  0.24344748  1
  O  O268  1  0.13452576  0.49673665  0.74736002  1
  O  O269  1  0.13419992  0.99157661  0.24086396  1
  O  O270  1  0.10616471  1.00021683  0.72875141  1
  O  O271  1  0.62076958  0.48577262  0.25207915  1
  O  O272  1  0.63070797  0.49361990  0.74707351  1
  O  O273  1  0.62988708  0.99730395  0.24794695  1
  O  O274  1  0.61756429  0.98986160  0.75258890  1
  O  O275  1  0.36030298  0.00347165  0.24717771  1
  O  O276  1  0.37523188  0.00253872  0.76059223  1
  O  O277  1  0.37402430  0.51355360  0.25008681  1
  O  O278  1  0.36361634  0.50247543  0.75542046  1
  O  O279  1  0.86814704  0.00463247  0.24932737  1
  O  O280  1  0.88673141  0.01154821  0.75714073  1
  O  O281  1  0.87525603  0.50951096  0.26129749  1
  O  O282  1  0.86527988  0.50760735  0.75119482  1
  O  O283  1  0.11619065  0.36953137  0.37337720  1
  O  O284  1  0.11750129  0.38059277  0.86779217  1
  O  O285  1  0.11891743  0.86872134  0.36969656  1
  O  O286  1  0.12309576  0.86585732  0.87625156  1
  O  O287  1  0.62068538  0.36475188  0.36932103  1
  O  O288  1  0.62528264  0.37009063  0.86590041  1
  O  O289  1  0.61170373  0.86141215  0.37689206  1
  O  O290  1  0.62655317  0.87069946  0.86102266  1
  O  O291  1  0.36789501  0.13009321  0.14146072  1
  O  O292  1  0.37947280  0.13280647  0.63272460  1
  O  O293  1  0.36448746  0.63699097  0.13113502  1
  O  O294  1  0.38894231  0.62697724  0.62659451  1
  O  O295  1  0.88179770  0.13249212  0.12740400  1
  O  O296  1  0.87937134  0.13590543  0.63019982  1
  O  O297  1  0.88100178  0.62890986  0.13303700  1
  O  O298  1  0.88241296  0.62539516  0.63361665  1
  O  O299  1  0.25640701  0.25516903  0.12248334  1
  O  O300  1  0.26255585  0.25621240  0.61975248  1
  O  O301  1  0.23550478  0.75809214  0.11608015  1
  O  O302  1  0.24821292  0.76108670  0.62087819  1
  O  O303  1  0.76059080  0.25946892  0.12489697  1
  O  O304  1  0.75628266  0.25513122  0.62401350  1
  O  O305  1  0.75397617  0.75525894  0.11550956  1
  O  O306  1  0.76891962  0.76047320  0.62212543  1
  O  O307  1  0.24128829  0.24068470  0.37538371  1
  O  O308  1  0.25822948  0.24967628  0.89088099  1
  O  O309  1  0.24467983  0.73970322  0.38235093  1
  O  O310  1  0.24274809  0.75287656  0.88267801  1
  O  O311  1  0.74413261  0.24406917  0.38239816  1
  O  O312  1  0.75332081  0.23592284  0.87846760  1
  O  O313  1  0.73894295  0.75512526  0.37736826  1
  O  O314  1  0.74367755  0.75215416  0.87783323  1
  O  O315  1  0.00046881  0.11011545  0.01535835  1
  O  O316  1  -0.00967427  0.12785521  0.50894699  1
  O  O317  1  0.01081769  0.62806845  0.00860907  1
  O  O318  1  0.00874463  0.61469808  0.50183974  1
  O  O319  1  0.51681586  0.11914876  0.00417934  1
  O  O320  1  0.49772906  0.11866741  0.51028115  1
  O  O321  1  0.48703424  0.68813595  0.02935104  1
  O  O322  1  0.50726223  0.62115909  0.50667422  1
  O  O323  1  0.49099838  0.37900005  0.49731159  1
  O  O324  1  0.49178680  0.36512463  0.99621194  1
  O  O325  1  0.49803505  0.88478116  0.49614757  1
  O  O326  1  0.49025138  0.87172192  0.99968376  1
  O  O327  1  0.99158553  0.37605656  0.49100927  1
  O  O328  1  0.99085958  0.37533074  0.99515153  1
  O  O329  1  0.98958755  0.87624305  0.48932184  1
  O  O330  1  0.99640177  0.88868626  1.01053102  1
  O  O331  1  0.49882356  0.49099523  0.38366583  1
  O  O332  1  0.48766353  0.50150969  0.86913273  1
  O  O333  1  0.50535641  0.99215173  0.38586335  1
  O  O334  1  0.48577526  0.99448670  0.88317015  1
  O  O335  1  0.99489484  0.48706730  0.37421743  1
  O  O336  1  0.99389875  0.48979303  0.87078106  1
  O  O337  1  0.99620017  0.99342843  0.36992361  1
  O  O338  1  0.99808215  1.00241754  0.89178545  1
  O  O339  1  0.00907785  0.00525322  0.12238773  1
  O  O340  1  0.00112298  0.01960115  0.61480100  1
  O  O341  1  -0.00138596  0.51112513  0.12865587  1
  O  O342  1  0.00849746  0.50465540  0.62443607  1
  O  O343  1  0.50998862  -0.02205120  0.13629275  1
  O  O344  1  0.49601783  0.01170244  0.61845150  1
  O  O345  1  0.51458405  0.49502560  0.12799929  1
  O  O346  1  0.50654467  0.50798457  0.62349202  1
  O  O347  1  0.24975407  0.37494731  0.24034125  1
  O  O348  1  0.24124683  0.38599345  0.75033109  1
  O  O349  1  0.24836852  0.87669250  0.24480745  1
  O  O350  1  0.25086084  0.87273213  0.74316184  1
  O  O351  1  0.73827166  0.36651512  0.24211879  1
  O  O352  1  0.74433645  0.37878312  0.74871302  1
  O  O353  1  0.74948322  0.88299878  0.23442411  1
  O  O354  1  0.73853199  0.88428661  0.74602886  1
  O  O355  1  0.25385249  0.11444083  0.25846846  1
  O  O356  1  0.23241145  0.12284601  0.75582729  1
  O  O357  1  0.25639336  0.62681673  0.25972069  1
  O  O358  1  0.25099899  0.61151170  0.74457179  1
  O  O359  1  0.75583693  0.11851600  0.25117053  1
  O  O360  1  0.76599243  0.12806698  0.75697274  1
  O  O361  1  0.76360162  0.63106585  0.24715591  1
  O  O362  1  0.75877588  0.61509510  0.74149956  1
  O  O363  1  0.36382632  0.13022376  0.36197397  1
  O  O364  1  0.38056537  0.10932782  0.87470682  1
  O  O365  1  0.36672306  0.62453875  0.36922545  1
  O  O366  1  0.37763521  0.61385292  0.86902258  1
  O  O367  1  0.86768188  0.12148318  0.36686814  1
  O  O368  1  0.87672607  0.11684565  0.86659306  1
  O  O369  1  0.87926575  0.61430649  0.36916046  1
  O  O370  1  0.88068287  0.62609078  0.86001281  1
  O  O371  1  0.13486415  0.37472735  0.12534589  1
  O  O372  1  0.12491227  0.38798187  0.63322279  1
  O  O373  1  0.12973601  0.87956430  0.13151348  1
  O  O374  1  0.14178075  0.88188900  0.62268118  1
  O  O375  1  0.63172652  0.37581595  0.13289943  1
  O  O376  1  0.62787242  0.37892278  0.63786241  1
  O  O377  1  0.63067969  0.86776781  0.12517562  1
  O  O378  1  0.62814742  0.87357459  0.64001172  1
  O  O379  1  0.11730251  0.25148189  0.26086803  1
  O  O380  1  0.11831564  0.26490786  0.73955179  1
  O  O381  1  0.11890170  0.75306176  0.25702420  1
  O  O382  1  0.12207423  0.74569975  0.76674901  1
  O  O383  1  0.61673586  0.25591193  0.25688956  1
  O  O384  1  0.61596132  0.25814353  0.75243549  1
  O  O385  1  0.61819679  0.74143126  0.26124261  1
  O  O386  1  0.62517351  0.75632755  0.75609830  1
  O  O387  1  0.38151230  0.24151141  0.24320807  1
  O  O388  1  0.37898023  0.24936797  0.74516913  1
  O  O389  1  0.38353444  0.73782515  0.25124810  1
  O  O390  1  0.38814850  0.74962424  0.74887857  1
  O  O391  1  0.88246271  0.24647965  0.24059180  1
  O  O392  1  0.88638903  0.24414589  0.74545714  1
  O  O393  1  0.88059054  0.74304185  0.24539041  1
  O  O394  1  0.87134955  0.74368916  0.74046175  1
  O  O395  1  0.38122423  0.49269345  0.50029272  1
  O  O396  1  0.37069342  0.50501797  0.98674756  1
  O  O397  1  0.38490857  0.99840428  0.50023212  1
  O  O398  1  0.37933550  0.98469167  1.01343721  1
  O  O399  1  0.87463590  0.49313492  0.49376772  1
  O  O400  1  0.86962157  0.49145510  1.00503269  1
  O  O401  1  0.88009433  0.99331372  0.48320802  1
  O  O402  1  0.88824984  0.99713173  0.99281335  1
  O  O403  1  0.11808761  -0.00567434  0.01086474  1
  O  O404  1  0.11948613  -0.00245126  0.51645193  1
  O  O405  1  0.13157583  0.51388488  -0.00143735  1
  O  O406  1  0.12689548  0.50424796  0.51054878  1
  O  O407  1  0.62542116  0.01302831  -0.00146838  1
  O  O408  1  0.61858093  0.00309050  0.49621399  1
  O  O409  1  0.62267180  0.49802809  0.00905689  1
  O  O410  1  0.61889610  0.50585567  0.50723753  1
  O  O411  1  0.36690394  0.36254932  0.12731327  1
  O  O412  1  0.37789416  0.36767321  0.61921206  1
  O  O413  1  0.36585761  0.84978672  0.11662088  1
  O  O414  1  0.35935102  0.87542974  0.62242792  1
  O  O415  1  0.86948997  0.37097155  0.12258896  1
  O  O416  1  0.87270775  0.36953979  0.62360836  1
  O  O417  1  0.86751521  0.86417127  0.12395372  1
  O  O418  1  0.86080811  0.88737582  0.60803480  1
  O  O419  1  0.13364449  0.13331312  0.37103948  1
  O  O420  1  0.06651706  0.15679657  0.85042150  1
  O  O421  1  0.13083014  0.62874602  0.38036240  1
  O  O422  1  0.11517892  0.63276372  0.88683284  1
  O  O423  1  0.63176365  0.13878848  0.37042387  1
  O  O424  1  0.63697143  0.12501385  0.87273201  1
  O  O425  1  0.61976448  0.63418787  0.38670358  1
  O  O426  1  0.62655145  0.64054937  0.86831652  1
