# generated using pymatgen
data_V85Zn86O256
_symmetry_space_group_name_H-M   'P 1'
_cell_length_a   16.93225229
_cell_length_b   16.93683442
_cell_length_c   16.93089217
_cell_angle_alpha   89.91857035
_cell_angle_beta   90.04168609
_cell_angle_gamma   90.01645032
_symmetry_Int_Tables_number   1
_chemical_formula_structural   V85Zn86O256
_chemical_formula_sum   'V85 Zn86 O256'
_cell_volume   4855.41376281
_cell_formula_units_Z   1
loop_
 _symmetry_equiv_pos_site_id
 _symmetry_equiv_pos_as_xyz
  1  'x, y, z'
loop_
 _atom_site_type_symbol
 _atom_site_label
 _atom_site_symmetry_multiplicity
 _atom_site_fract_x
 _atom_site_fract_y
 _atom_site_fract_z
 _atom_site_occupancy
  V  V0  1  0.51345616  0.74872568  0.25619601  1
  V  V1  1  0.49895341  0.49857894  0.49973351  1
  V  V2  1  0.50039663  0.62327884  0.62576657  1
  V  V3  1  0.88072982  0.25422991  0.64642071  1
  V  V4  1  0.74812509  0.11607105  0.87181001  1
  V  V5  1  0.37870616  0.12616564  0.24892638  1
  V  V6  1  0.00956408  -0.00082546  -0.01027932  1
  V  V7  1  0.49424014  0.24530421  0.74858813  1
  V  V8  1  0.50414750  0.75357597  0.75164417  1
  V  V9  1  0.12696174  0.13553055  0.00111779  1
  V  V10  1  0.24820572  0.74814906  0.49992310  1
  V  V11  1  0.75126074  0.37517114  0.12535612  1
  V  V12  1  -0.00829076  0.74655289  0.75289776  1
  V  V13  1  0.12539682  0.37129325  0.25404333  1
  V  V14  1  0.12319861  0.49720775  0.62308040  1
  V  V15  1  0.50012677  0.00563521  0.01754815  1
  V  V16  1  0.86248498  0.75602882  0.11816237  1
  V  V17  1  0.37618189  0.62196448  0.75309371  1
  V  V18  1  0.62982868  0.75425933  0.87603605  1
  V  V19  1  0.50226754  0.62497333  0.12448869  1
  V  V20  1  0.51339198  0.00243502  0.50373482  1
  V  V21  1  0.25398343  -0.00015734  0.74838981  1
  V  V22  1  0.87496500  0.37407440  0.00411278  1
  V  V23  1  0.12424550  0.00441137  0.12472164  1
  V  V24  1  0.63299842  0.62845287  0.00006453  1
  V  V25  1  0.23386062  0.12056916  0.37868727  1
  V  V26  1  0.23546521  0.24429639  0.50252902  1
  V  V27  1  0.25296134  0.49745427  0.75108057  1
  V  V28  1  0.75060474  0.24754102  0.00244788  1
  V  V29  1  0.76843033  0.25885098  0.50509701  1
  V  V30  1  0.12472560  0.62984279  -0.00731569  1
  V  V31  1  0.25215638  0.37502572  0.12526917  1
  V  V32  1  0.24883461  0.62385963  0.37556552  1
  V  V33  1  0.12609940  0.87308377  0.25070283  1
  V  V34  1  0.87407974  0.50573974  0.87031943  1
  V  V35  1  0.01895787  0.00467877  0.51049338  1
  V  V36  1  0.83937746  0.88498060  0.00186856  1
  V  V37  1  0.37034532  0.23858777  0.62345568  1
  V  V38  1  -0.01402545  0.37732089  0.37856947  1
  V  V39  1  0.75236766  0.62806821  0.87065028  1
  V  V40  1  0.51307994  0.12096249  0.62397213  1
  V  V41  1  0.25130399  0.25425436  -0.00408190  1
  V  V42  1  0.50095636  0.50267794  -0.00508405  1
  V  V43  1  0.00901131  0.86827526  0.87922484  1
  V  V44  1  0.25047849  0.49932162  0.25157473  1
  V  V45  1  0.51199868  0.87325034  0.37619547  1
  V  V46  1  0.87492485  0.88564559  0.50146103  1
  V  V47  1  0.25871367  0.13359429  0.86749894  1
  V  V48  1  0.87230853  0.62174473  0.25835077  1
  V  V49  1  0.00345677  0.37990816  0.86859403  1
  V  V50  1  0.75086421  0.50271534  0.74473945  1
  V  V51  1  0.37605942  0.38154447  -0.00158755  1
  V  V52  1  0.37709006  0.87835605  0.49882111  1
  V  V53  1  0.24932684  0.75219230  -0.00630624  1
  V  V54  1  0.37515526  0.75006953  0.62653404  1
  V  V55  1  0.62763855  0.49714200  0.62019645  1
  V  V56  1  0.76257959  0.11648344  0.37772152  1
  V  V57  1  -0.00573135  0.88362270  0.37273745  1
  V  V58  1  0.13214476  0.85972529  0.75648928  1
  V  V59  1  -0.00135869  0.62848369  0.12338547  1
  V  V60  1  -0.00106745  0.74998931  0.25133438  1
  V  V61  1  0.25069288  0.87426187  0.12467235  1
  V  V62  1  0.25585420  0.62223236  0.87466070  1
  V  V63  1  0.24794973  0.00093272  0.25159064  1
  V  V64  1  0.61937720  0.12581076  0.01611703  1
  V  V65  1  0.49642178  0.37857458  0.87243843  1
  V  V66  1  0.74779451  0.74887403  0.49405132  1
  V  V67  1  0.37420786  0.49599361  0.37587582  1
  V  V68  1  0.62701464  0.37531532  0.74759508  1
  V  V69  1  -0.00959306  0.62353849  0.62823473  1
  V  V70  1  -0.01531080  0.25188699  0.24074389  1
  V  V71  1  0.24399470  0.87810633  0.62390696  1
  V  V72  1  -0.00113303  0.50409585  -0.00187325  1
  V  V73  1  0.06589363  0.20278006  0.82917711  1
  V  V74  1  0.63200941  0.89098437  0.74843514  1
  V  V75  1  0.37781849  0.87767398  0.00069533  1
  V  V76  1  0.63893818  0.88778144  0.23662228  1
  V  V77  1  0.37723909  0.62513079  0.25029569  1
  V  V78  1  -0.01467435  0.49859243  0.49716949  1
  V  V79  1  0.37940092  0.00613352  0.87464273  1
  V  V80  1  0.49931284  0.36826667  0.37521432  1
  V  V81  1  0.12546913  0.50194106  0.12480198  1
  V  V82  1  0.62527378  0.23872696  0.38825225  1
  V  V83  1  0.62536154  0.37364078  0.25127854  1
  V  V84  1  0.37726700  0.75007093  0.12618669  1
  Zn  Zn85  1  0.85792074  0.09460886  0.24138544  1
  Zn  Zn86  1  0.75844891  0.49244739  0.26027895  1
  Zn  Zn87  1  0.24850311  0.37078719  0.62560418  1
  Zn  Zn88  1  0.37541086  0.00161735  0.37691176  1
  Zn  Zn89  1  0.12541300  0.37211190  0.75426932  1
  Zn  Zn90  1  0.11613546  0.24449531  0.37924613  1
  Zn  Zn91  1  0.36997682  0.36884468  0.50119002  1
  Zn  Zn92  1  0.74646102  0.88161250  0.62212468  1
  Zn  Zn93  1  0.62363869  0.24956497  0.87554169  1
  Zn  Zn94  1  0.86941433  0.74815324  0.62822494  1
  Zn  Zn95  1  0.62788476  0.50108209  0.12704100  1
  Zn  Zn96  1  0.50714469  0.23942141  0.24525869  1
  Zn  Zn97  1  0.12058743  0.62198280  0.49857330  1
  Zn  Zn98  1  0.77233216  0.02072259  0.72598220  1
  Zn  Zn99  1  0.73675473  0.62195669  0.37417385  1
  Zn  Zn100  1  0.61881263  0.63600281  0.49126185  1
  Zn  Zn101  1  0.88973458  0.00802526  0.86718881  1
  Zn  Zn102  1  -0.01538228  0.13461294  0.11897261  1
  Zn  Zn103  1  0.38031323  0.24575531  0.12351306  1
  Zn  Zn104  1  0.50293787  0.88164622  0.87678615  1
  Zn  Zn105  1  0.12338803  0.74786354  0.37567018  1
  Zn  Zn106  1  -0.00194163  0.13099317  0.62047751  1
  Zn  Zn107  1  0.19002461  0.18891301  0.18731195  1
  Zn  Zn108  1  0.17928399  0.17682673  0.68168457  1
  Zn  Zn109  1  0.18792696  0.68746621  0.18508513  1
  Zn  Zn110  1  0.18343795  0.68303211  0.68457899  1
  Zn  Zn111  1  0.69337168  0.19100396  0.19243316  1
  Zn  Zn112  1  0.69023993  0.19324858  0.68451035  1
  Zn  Zn113  1  0.68904498  0.69063456  0.18844997  1
  Zn  Zn114  1  0.68874834  0.68941386  0.68275240  1
  Zn  Zn115  1  0.30846190  0.30617571  0.31761243  1
  Zn  Zn116  1  0.31628675  0.31533114  0.81040797  1
  Zn  Zn117  1  0.31743241  0.81255003  0.31472822  1
  Zn  Zn118  1  0.31871284  0.81285341  0.81569802  1
  Zn  Zn119  1  0.80820392  0.30717341  0.31539114  1
  Zn  Zn120  1  0.80901260  0.31615435  0.81879162  1
  Zn  Zn121  1  0.81226817  0.81284629  0.31422600  1
  Zn  Zn122  1  0.81369126  0.82422239  0.82386829  1
  Zn  Zn123  1  0.18207620  0.43269701  0.44087218  1
  Zn  Zn124  1  0.18801789  0.44219768  0.93525729  1
  Zn  Zn125  1  0.18347335  0.93546613  0.43574307  1
  Zn  Zn126  1  0.18794939  0.94008829  0.93185552  1
  Zn  Zn127  1  0.69135085  0.43751660  0.43587315  1
  Zn  Zn128  1  0.68561560  0.43870551  0.93611954  1
  Zn  Zn129  1  0.69003103  0.93639937  0.43595800  1
  Zn  Zn130  1  0.68620887  0.94053757  0.95054676  1
  Zn  Zn131  1  0.31139687  0.06477919  0.06219807  1
  Zn  Zn132  1  0.31317854  0.06343084  0.56223187  1
  Zn  Zn133  1  0.31478593  0.56137693  0.06218910  1
  Zn  Zn134  1  0.31277825  0.56046469  0.56383446  1
  Zn  Zn135  1  0.81310299  0.05857141  0.05673083  1
  Zn  Zn136  1  0.81282128  0.07128860  0.56077651  1
  Zn  Zn137  1  0.81170560  0.56273391  0.06462322  1
  Zn  Zn138  1  0.80957538  0.56389604  0.56113049  1
  Zn  Zn139  1  0.44175973  0.43446375  0.18625074  1
  Zn  Zn140  1  0.43318198  0.43210936  0.68365002  1
  Zn  Zn141  1  0.43758719  0.93671761  0.19460486  1
  Zn  Zn142  1  0.43835694  0.93878601  0.68824607  1
  Zn  Zn143  1  0.93918743  0.43794571  0.18656573  1
  Zn  Zn144  1  0.93184679  0.43315761  0.68341719  1
  Zn  Zn145  1  0.93616808  0.93803093  0.17954735  1
  Zn  Zn146  1  0.93628746  0.93202451  0.68669175  1
  Zn  Zn147  1  0.03250168  0.05328287  0.30007201  1
  Zn  Zn148  1  0.05857803  0.04397045  0.76706089  1
  Zn  Zn149  1  0.06047234  0.56051924  0.31441526  1
  Zn  Zn150  1  0.06645538  0.56548317  0.81052853  1
  Zn  Zn151  1  0.56439537  0.05741411  0.31458221  1
  Zn  Zn152  1  0.56303978  0.07013685  0.81816548  1
  Zn  Zn153  1  0.56782156  0.55807531  0.31656436  1
  Zn  Zn154  1  0.56476170  0.56314197  0.81246941  1
  Zn  Zn155  1  0.43100768  0.18252458  0.43799308  1
  Zn  Zn156  1  0.44003593  0.19183965  0.94010831  1
  Zn  Zn157  1  0.43804732  0.68768999  0.43662809  1
  Zn  Zn158  1  0.43933480  0.68886704  0.93637584  1
  Zn  Zn159  1  0.93972308  0.18401757  0.43733362  1
  Zn  Zn160  1  0.92950420  0.18727321  0.94332534  1
  Zn  Zn161  1  0.93480373  0.69232795  0.44128676  1
  Zn  Zn162  1  0.93282099  0.69406755  0.93746676  1
  Zn  Zn163  1  0.06203994  0.31707006  0.06102487  1
  Zn  Zn164  1  0.05419675  0.31489256  0.56598615  1
  Zn  Zn165  1  0.06387759  0.81106347  0.06520286  1
  Zn  Zn166  1  0.06069418  0.81152333  0.56427691  1
  Zn  Zn167  1  0.56221447  0.30907176  0.06650965  1
  Zn  Zn168  1  0.56107775  0.31235350  0.56334589  1
  Zn  Zn169  1  0.56462391  0.81416492  0.06300354  1
  Zn  Zn170  1  0.56586027  0.81565882  0.56634398  1
  O  O171  1  0.12733330  0.11886547  0.11626445  1
  O  O172  1  0.09535371  0.10575981  0.67261360  1
  O  O173  1  0.11946416  0.62048942  0.11678007  1
  O  O174  1  0.11480467  0.61254673  0.62253285  1
  O  O175  1  0.63114490  0.12932278  0.11495444  1
  O  O176  1  0.61142406  0.13118659  0.62381095  1
  O  O177  1  0.62149872  0.62644079  0.11667736  1
  O  O178  1  0.61624812  0.61397851  0.62243693  1
  O  O179  1  0.38163337  0.37696003  0.37550603  1
  O  O180  1  0.38852780  0.37620198  0.88102980  1
  O  O181  1  0.38342290  0.87748415  0.38453019  1
  O  O182  1  0.37830200  0.88460384  0.88478460  1
  O  O183  1  0.88796080  0.37699183  0.36483295  1
  O  O184  1  0.87969402  0.38530847  0.88622634  1
  O  O185  1  0.88588924  0.86784098  0.38611247  1
  O  O186  1  0.89153044  0.87907209  0.89267376  1
  O  O187  1  0.24946986  0.00372952  0.36986869  1
  O  O188  1  0.26221978  0.00884931  0.87220710  1
  O  O189  1  0.25415630  0.50340887  0.37161501  1
  O  O190  1  0.25016371  0.51074374  0.86547855  1
  O  O191  1  0.74729666  0.01801382  0.38258596  1
  O  O192  1  0.74643742  0.01390535  0.87764480  1
  O  O193  1  0.74756841  0.50743929  0.37204374  1
  O  O194  1  0.75464699  0.50881900  0.86906863  1
  O  O195  1  0.24556298  0.49633557  0.13194854  1
  O  O196  1  0.24090993  0.49882048  0.63054204  1
  O  O197  1  0.24039881  0.99495463  0.12779632  1
  O  O198  1  0.26024149  0.98943683  0.63501891  1
  O  O199  1  0.74809406  0.48795197  0.12764108  1
  O  O200  1  0.74003410  0.50274834  0.63186723  1
  O  O201  1  0.76959939  0.95482510  0.04332337  1
  O  O202  1  0.75250575  0.99688690  0.61901262  1
  O  O203  1  0.00584679  0.36975498  0.25516942  1
  O  O204  1  -0.00086932  0.38201493  0.76586755  1
  O  O205  1  0.00488562  0.86555560  0.25532515  1
  O  O206  1  0.01431443  0.86655486  0.75667870  1
  O  O207  1  0.50558345  0.37439257  0.26333908  1
  O  O208  1  0.50557728  0.37243567  0.75633754  1
  O  O209  1  0.50315830  0.86649638  0.25886246  1
  O  O210  1  0.50761604  0.86816576  0.75349364  1
  O  O211  1  0.48208598  0.12112391  0.25946405  1
  O  O212  1  0.50430851  0.13379011  0.73897578  1
  O  O213  1  0.49658514  0.63103331  0.24509303  1
  O  O214  1  0.49619479  0.63124640  0.74620785  1
  O  O215  1  1.01240607  0.15095882  0.24195667  1
  O  O216  1  0.99728813  0.13923704  0.79481732  1
  O  O217  1  0.99285274  0.63139331  0.24505879  1
  O  O218  1  1.00496828  0.63488198  0.74365357  1
  O  O219  1  0.37145615  0.26544978  0.00073188  1
  O  O220  1  0.36125018  0.24694710  0.50728951  1
  O  O221  1  0.37113269  0.75606107  0.00603768  1
  O  O222  1  0.36647179  0.75871504  0.50406469  1
  O  O223  1  0.86431639  0.26252071  -0.00028754  1
  O  O224  1  0.86932234  0.25701474  0.49390262  1
  O  O225  1  0.88040867  0.76456360  0.01313001  1
  O  O226  1  0.86528165  0.75729233  0.50462803  1
  O  O227  1  0.13144722  0.25020917  0.50343431  1
  O  O228  1  0.13214489  0.24235691  1.00614953  1
  O  O229  1  0.13807916  0.74825088  0.49990091  1
  O  O230  1  0.13703474  0.73952297  1.00822383  1
  O  O231  1  0.62353474  0.25013299  0.48918265  1
  O  O232  1  0.62920608  0.24141039  0.99954115  1
  O  O233  1  0.64188020  0.75582042  0.50552868  1
  O  O234  1  0.61708123  0.74275033  0.98527673  1
  O  O235  1  0.49181063  0.25914296  0.13497848  1
  O  O236  1  0.49307725  0.24022364  0.62827619  1
  O  O237  1  0.49552014  0.74418303  0.13238360  1
  O  O238  1  0.49706064  0.74553132  0.63515782  1
  O  O239  1  0.99914590  0.25735292  0.13579553  1
  O  O240  1  0.98834272  0.24953369  0.63004143  1
  O  O241  1  0.99610632  0.74656038  0.13520217  1
  O  O242  1  0.99932127  0.74034332  0.63345861  1
  O  O243  1  0.00005066  0.26101865  0.36476048  1
  O  O244  1  0.00489662  0.26308102  0.88963605  1
  O  O245  1  0.00129583  0.75455412  0.36370532  1
  O  O246  1  0.00032201  0.75882106  0.86942850  1
  O  O247  1  0.50743252  0.25247922  0.37493326  1
  O  O248  1  0.50140236  0.25837680  0.86544729  1
  O  O249  1  0.49226292  0.75949246  0.36550298  1
  O  O250  1  0.50744236  0.75103167  0.86429839  1
  O  O251  1  0.24919086  0.12911687  0.49128133  1
  O  O252  1  0.24461650  0.13168585  0.98951871  1
  O  O253  1  0.25079642  0.63249211  0.49413491  1
  O  O254  1  0.24689932  0.63007500  0.99381988  1
  O  O255  1  0.75387457  0.14200662  0.48588194  1
  O  O256  1  0.73800115  0.13201072  0.99715389  1
  O  O257  1  0.74690029  0.63877903  0.50181765  1
  O  O258  1  0.73869065  0.62190077  0.99172881  1
  O  O259  1  0.25823960  0.37601807  0.00199732  1
  O  O260  1  0.24912265  0.36143408  0.50329932  1
  O  O261  1  0.25426753  0.86830082  0.00366108  1
  O  O262  1  0.25664621  0.86913443  0.50538678  1
  O  O263  1  0.75443711  0.37104812  0.00408549  1
  O  O264  1  0.74164151  0.35565333  0.49883781  1
  O  O265  1  0.75850119  0.84548398  -0.04597685  1
  O  O266  1  0.76215737  0.86850866  0.49555015  1
  O  O267  1  0.12866395  0.49138829  0.24495802  1
  O  O268  1  0.13730402  0.50156035  0.74302277  1
  O  O269  1  0.12635908  0.99486032  0.23984293  1
  O  O270  1  0.14858227  0.97577507  0.75865419  1
  O  O271  1  0.62429804  0.48390273  0.24799962  1
  O  O272  1  0.62907205  0.49480303  0.74233606  1
  O  O273  1  0.62191838  0.98668756  0.24791165  1
  O  O274  1  0.62144276  0.98981655  0.75763345  1
  O  O275  1  0.36506463  0.00766561  0.25277852  1
  O  O276  1  0.36546349  -0.00819381  0.76173668  1
  O  O277  1  0.37162015  0.50542887  0.25573945  1
  O  O278  1  0.36222959  0.50665207  0.74136158  1
  O  O279  1  0.92830407  0.00861580  0.26268457  1
  O  O280  1  0.87766442  -0.00647791  0.75713028  1
  O  O281  1  0.87725631  0.51880558  0.24055023  1
  O  O282  1  0.86494784  0.49406615  0.76129694  1
  O  O283  1  0.11606776  0.37270339  0.36561978  1
  O  O284  1  0.11215584  0.38300725  0.87542910  1
  O  O285  1  0.11853911  0.86839724  0.36589478  1
  O  O286  1  0.12532442  0.86723675  0.86816228  1
  O  O287  1  0.61656085  0.36498426  0.37068274  1
  O  O288  1  0.61263738  0.37520762  0.86846090  1
  O  O289  1  0.61449271  0.87606174  0.36782703  1
  O  O290  1  0.62223768  0.86859259  0.86803216  1
  O  O291  1  0.36397423  0.12608259  0.14350838  1
  O  O292  1  0.38187573  0.13474723  0.62574172  1
  O  O293  1  0.38211330  0.62935713  0.12951488  1
  O  O294  1  0.38044369  0.63146887  0.63166811  1
  O  O295  1  0.87314479  0.11403588  0.12907421  1
  O  O296  1  0.88202730  0.14389510  0.61956791  1
  O  O297  1  0.88066332  0.63847943  0.12555886  1
  O  O298  1  0.88666803  0.62487447  0.62678862  1
  O  O299  1  0.25442315  0.25972240  0.11613742  1
  O  O300  1  0.25148564  0.24253755  0.62108845  1
  O  O301  1  0.25747892  0.75286400  0.11502391  1
  O  O302  1  0.25603093  0.75291370  0.61763330  1
  O  O303  1  0.74577628  0.26363630  0.11396703  1
  O  O304  1  0.76263484  0.24435787  0.61260710  1
  O  O305  1  0.76396742  0.75070628  0.12298717  1
  O  O306  1  0.75252798  0.75741133  0.61683466  1
  O  O307  1  0.24108999  0.23975021  0.38505068  1
  O  O308  1  0.25810315  0.24381222  0.88018604  1
  O  O309  1  0.25135189  0.74285645  0.38308083  1
  O  O310  1  0.25627679  0.74360979  0.88814838  1
  O  O311  1  0.73875552  0.24693540  0.38396132  1
  O  O312  1  0.74505230  0.24705873  0.88895408  1
  O  O313  1  0.75616978  0.74491485  0.39002449  1
  O  O314  1  0.74230338  0.73342777  0.85685884  1
  O  O315  1  0.01059993  0.12091616  -0.00091422  1
  O  O316  1  0.00412063  0.10859290  0.49817759  1
  O  O317  1  0.00821095  0.62499664  0.00095849  1
  O  O318  1  0.00002249  0.61816093  0.50640151  1
  O  O319  1  0.51103681  0.12306190  0.00143232  1
  O  O320  1  0.49401019  0.11580389  0.51252212  1
  O  O321  1  0.50775865  0.61934629  0.00226955  1
  O  O322  1  0.49744986  0.61868938  0.50803015  1
  O  O323  1  0.49652654  0.37857177  0.48934581  1
  O  O324  1  0.49637174  0.38319370  0.99323430  1
  O  O325  1  0.49408147  0.87691263  0.49610428  1
  O  O326  1  0.49560788  0.88614766  0.99943367  1
  O  O327  1  1.00229063  0.38111457  0.48486039  1
  O  O328  1  0.99248073  0.38548735  0.99492224  1
  O  O329  1  0.99333215  0.87667635  0.49393831  1
  O  O330  1  1.02278111  0.88472710  0.98892034  1
  O  O331  1  0.49359248  0.49003862  0.38133898  1
  O  O332  1  0.50379767  0.49566223  0.88629700  1
  O  O333  1  0.49695322  0.99162445  0.38596732  1
  O  O334  1  0.48833688  1.00513718  0.88179562  1
  O  O335  1  1.00233779  0.48772538  0.38196772  1
  O  O336  1  0.99219060  0.49982801  0.87871531  1
  O  O337  1  1.01475828  0.98486023  0.39266415  1
  O  O338  1  1.01403188  0.98790617  0.87408075  1
  O  O339  1  0.01670808  -0.00157132  0.10935335  1
  O  O340  1  -0.00126779  -0.00589306  0.61120567  1
  O  O341  1  0.00496020  0.50830414  0.11724221  1
  O  O342  1  0.00373228  0.50407723  0.62082521  1
  O  O343  1  0.48961233  0.00152700  0.11623306  1
  O  O344  1  0.49555054  0.01378819  0.62162141  1
  O  O345  1  0.50285702  0.50633193  0.11328404  1
  O  O346  1  0.50269298  0.50329685  0.61867431  1
  O  O347  1  0.24453041  0.38040061  0.24776044  1
  O  O348  1  0.24784036  0.38412733  0.74881586  1
  O  O349  1  0.24697495  0.88026886  0.24557423  1
  O  O350  1  0.25090586  0.87222853  0.74221931  1
  O  O351  1  0.74448160  0.37281813  0.24238246  1
  O  O352  1  0.73440099  0.38707112  0.76054368  1
  O  O353  1  0.73799516  0.87384881  0.25397853  1
  O  O354  1  0.73708199  0.87835639  0.75385077  1
  O  O355  1  0.25290425  0.11769567  0.25726294  1
  O  O356  1  0.24838524  0.11490990  0.76146801  1
  O  O357  1  0.25542255  0.61932574  0.25503668  1
  O  O358  1  0.25410098  0.62147149  0.75762934  1
  O  O359  1  0.75126570  0.13122007  0.26866493  1
  O  O360  1  0.73902113  0.12678634  0.76671635  1
  O  O361  1  0.76421112  0.62741970  0.24854567  1
  O  O362  1  0.74266168  0.61056335  0.75549836  1
  O  O363  1  0.36101066  0.12136685  0.36545055  1
  O  O364  1  0.36848624  0.12009668  0.88083304  1
  O  O365  1  0.36758455  0.61825528  0.37026244  1
  O  O366  1  0.36461063  0.62838331  0.87045997  1
  O  O367  1  0.86549656  0.12708044  0.36976881  1
  O  O368  1  0.85290839  0.12322600  0.88817620  1
  O  O369  1  0.87878838  0.63063547  0.35825231  1
  O  O370  1  0.86554966  0.61816547  0.88081448  1
  O  O371  1  0.13210179  0.38385861  0.12983207  1
  O  O372  1  0.12273244  0.38651229  0.63129810  1
  O  O373  1  0.13302089  0.88159849  0.13047409  1
  O  O374  1  0.14045798  0.86664825  0.63212495  1
  O  O375  1  0.63272294  0.37633911  0.13377952  1
  O  O376  1  0.61621741  0.38755730  0.63400649  1
  O  O377  1  0.62563176  0.87341713  0.13717546  1
  O  O378  1  0.62419884  0.87400647  0.64564209  1
  O  O379  1  0.12608729  0.26529684  0.24809570  1
  O  O380  1  0.12033494  0.25255006  0.75751993  1
  O  O381  1  0.11690295  0.75439596  0.24805093  1
  O  O382  1  0.11926725  0.75475029  0.74764542  1
  O  O383  1  0.62509168  0.25993512  0.26158901  1
  O  O384  1  0.61516384  0.26096145  0.74762262  1
  O  O385  1  0.61546724  0.75751877  0.24713082  1
  O  O386  1  0.61851153  0.75249122  0.75861798  1
  O  O387  1  0.37116089  0.23442531  0.25225537  1
  O  O388  1  0.38804975  0.25414143  0.74248622  1
  O  O389  1  0.38170073  0.74325801  0.24419548  1
  O  O390  1  0.38487498  0.74449895  0.74711839  1
  O  O391  1  0.88509191  0.25196088  0.24744461  1
  O  O392  1  0.86818589  0.25265043  0.74614043  1
  O  O393  1  0.88132223  0.74528601  0.23926082  1
  O  O394  1  0.88881623  0.76215763  0.75102370  1
  O  O395  1  0.38174480  0.49571670  0.49472305  1
  O  O396  1  0.38327746  0.49038218  1.00085034  1
  O  O397  1  0.38036925  0.98686063  0.50213157  1
  O  O398  1  0.37953569  0.99813250  0.99474327  1
  O  O399  1  0.88608235  0.49977144  0.50557475  1
  O  O400  1  0.87827158  0.49755864  0.99016790  1
  O  O401  1  0.88343979  0.98654986  0.49815301  1
  O  O402  1  0.90133173  0.99320874  0.99102756  1
  O  O403  1  0.12641529  0.01462550  0.00167709  1
  O  O404  1  0.11791232  -0.00896601  0.51058882  1
  O  O405  1  0.12096373  0.51104835  0.00524021  1
  O  O406  1  0.11618872  0.50053236  0.50892836  1
  O  O407  1  0.61252822  0.01533864  -0.00065333  1
  O  O408  1  0.61178390  -0.00981467  0.50142837  1
  O  O409  1  0.61827511  0.51006504  0.00108591  1
  O  O410  1  0.61462232  0.49817758  0.50727592  1
  O  O411  1  0.36669359  0.37964376  0.11670605  1
  O  O412  1  0.37127615  0.35728080  0.62223143  1
  O  O413  1  0.36894349  0.87047127  0.12119656  1
  O  O414  1  0.36923486  0.86760275  0.61865181  1
  O  O415  1  0.86895308  0.38344101  0.11185946  1
  O  O416  1  0.87421497  0.35591818  0.62628824  1
  O  O417  1  0.87888494  0.86583580  0.11296256  1
  O  O418  1  0.87652458  0.86904898  0.60939515  1
  O  O419  1  0.13253186  0.12298026  0.36507187  1
  O  O420  1  0.13306576  0.13781454  0.88085028  1
  O  O421  1  0.13524752  0.62617288  0.37580822  1
  O  O422  1  0.13711415  0.62268820  0.88595505  1
  O  O423  1  0.62641060  0.13739911  0.37188701  1
  O  O424  1  0.63356537  0.13029399  0.88745173  1
  O  O425  1  0.62078941  0.63216601  0.37724936  1
  O  O426  1  0.63149201  0.63146050  0.88098870  1
