# generated using pymatgen
data_V85Zn86O256
_symmetry_space_group_name_H-M   'P 1'
_cell_length_a   16.93452366
_cell_length_b   16.92710743
_cell_length_c   16.93406838
_cell_angle_alpha   90.01735847
_cell_angle_beta   89.98357926
_cell_angle_gamma   90.01292099
_symmetry_Int_Tables_number   1
_chemical_formula_structural   V85Zn86O256
_chemical_formula_sum   'V85 Zn86 O256'
_cell_volume   4854.19250916
_cell_formula_units_Z   1
loop_
 _symmetry_equiv_pos_site_id
 _symmetry_equiv_pos_as_xyz
  1  'x, y, z'
loop_
 _atom_site_type_symbol
 _atom_site_label
 _atom_site_symmetry_multiplicity
 _atom_site_fract_x
 _atom_site_fract_y
 _atom_site_fract_z
 _atom_site_occupancy
  V  V0  1  0.00114839  0.87356887  0.38096306  1
  V  V1  1  0.86782729  0.62373056  0.74531023  1
  V  V2  1  0.37493090  0.37622239  0.50354712  1
  V  V3  1  0.49971411  0.50160507  0.00107436  1
  V  V4  1  -0.00253353  0.00277680  0.00068411  1
  V  V5  1  0.24383374  0.11798774  0.87230078  1
  V  V6  1  0.37578486  0.50272478  0.86968933  1
  V  V7  1  0.87286540  0.37894456  0.49873800  1
  V  V8  1  0.50074044  0.37506942  0.87050390  1
  V  V9  1  0.24970336  0.75277141  0.00014598  1
  V  V10  1  0.48827817  -0.00706840  0.50667319  1
  V  V11  1  0.00020181  0.50330853  0.00345754  1
  V  V12  1  0.88612957  0.73733324  0.12618758  1
  V  V13  1  0.37546495  0.75315085  0.12345533  1
  V  V14  1  0.25114279  0.49917821  0.24948299  1
  V  V15  1  0.74775286  0.37678812  0.12724407  1
  V  V16  1  0.75083891  0.25286836  -0.00391516  1
  V  V17  1  0.12259176  0.62586770  0.00606201  1
  V  V18  1  0.25118997  0.37106676  0.12498972  1
  V  V19  1  0.62657893  0.87160359  0.74120247  1
  V  V20  1  0.11971364  0.24822810  0.37319013  1
  V  V21  1  0.12734965  0.62686091  0.50027047  1
  V  V22  1  0.25321574  0.62821235  0.87027996  1
  V  V23  1  0.50701758  0.77106864  0.25245544  1
  V  V24  1  0.74063408  0.24913226  0.50009927  1
  V  V25  1  0.87840465  0.61691095  0.26438090  1
  V  V26  1  0.12195614  0.37175752  0.25012690  1
  V  V27  1  0.37781912  0.62575371  0.24928339  1
  V  V28  1  0.62641537  0.25078086  0.86990571  1
  V  V29  1  0.49743548  0.88625975  0.87292013  1
  V  V30  1  0.75178777  -0.02023082  0.24817684  1
  V  V31  1  0.87383173  0.87828271  0.01311156  1
  V  V32  1  0.37817615  -0.01915929  0.37153223  1
  V  V33  1  0.12932762  0.00450807  0.62972450  1
  V  V34  1  0.37369929  0.24347199  0.62704452  1
  V  V35  1  0.87483066  -0.00549574  0.38344814  1
  V  V36  1  0.51415856  0.50902007  0.50547439  1
  V  V37  1  0.12540393  0.87743449  0.25067188  1
  V  V38  1  0.37358937  0.10966817  0.75416449  1
  V  V39  1  -0.00649387  0.37372414  0.37088667  1
  V  V40  1  0.62299129  0.36623625  0.25355423  1
  V  V41  1  0.87316109  0.49957123  0.86842247  1
  V  V42  1  0.75004676  0.12086523  0.87463181  1
  V  V43  1  0.37221976  0.88172468  -0.00646600  1
  V  V44  1  0.87425960  0.12617586  0.25689870  1
  V  V45  1  0.87379311  0.25278280  0.13462715  1
  V  V46  1  0.75036149  0.62396348  0.87323273  1
  V  V47  1  0.12346015  0.75135975  0.87497530  1
  V  V48  1  -0.00127675  0.62546167  0.62542842  1
  V  V49  1  -0.00317231  0.13027813  0.13060081  1
  V  V50  1  0.25828769  0.87727337  0.62191646  1
  V  V51  1  0.37903828  0.49917431  0.37674457  1
  V  V52  1  0.50353425  0.36794258  0.37524697  1
  V  V53  1  0.13049897  0.87793506  0.74943747  1
  V  V54  1  0.87585342  0.37551636  -0.00060809  1
  V  V55  1  0.73957962  0.75542207  0.50375643  1
  V  V56  1  0.87147835  -0.00412140  0.87752636  1
  V  V57  1  0.50140767  0.24457929  0.74169795  1
  V  V58  1  0.12530953  0.00528077  0.12583234  1
  V  V59  1  0.50256839  0.62544732  0.12940028  1
  V  V60  1  0.26039739  0.12820469  0.37041245  1
  V  V61  1  0.74815802  0.75235231  0.01309614  1
  V  V62  1  0.75008537  -0.00569023  0.74536967  1
  V  V63  1  0.49560668  0.01230357  0.00579876  1
  V  V64  1  0.62266736  0.01022445  0.62402755  1
  V  V65  1  0.26203731  0.75351748  0.49832864  1
  V  V66  1  0.25053826  0.62465153  0.37436464  1
  V  V67  1  0.74865104  0.38741430  0.62747027  1
  V  V68  1  0.38804530  0.23827009  0.13628773  1
  V  V69  1  0.50638522  0.62750483  0.63487510  1
  V  V70  1  0.12152049  0.12721190  0.50313776  1
  V  V71  1  0.88103888  0.24315551  0.62532218  1
  V  V72  1  0.12523005  0.36832416  0.75093981  1
  V  V73  1  0.62405529  0.75717348  0.37317339  1
  V  V74  1  -0.00004997  -0.00001833  0.50657053  1
  V  V75  1  -0.00156885  0.75042424  0.74946919  1
  V  V76  1  0.37563200  0.37122435  0.00082176  1
  V  V77  1  0.62539802  0.62509356  0.00145725  1
  V  V78  1  0.74516084  0.12390661  0.37585628  1
  V  V79  1  0.24938735  0.50078936  0.74894856  1
  V  V80  1  0.00358914  0.36496296  0.87382447  1
  V  V81  1  0.86894664  0.76583975  0.61907676  1
  V  V82  1  -0.00151387  0.50072465  0.49500146  1
  V  V83  1  0.62872102  0.38763979  0.74548581  1
  V  V84  1  0.62507864  0.75293920  0.87354523  1
  Zn  Zn85  1  0.61706020  0.12828839  -0.00133929  1
  Zn  Zn86  1  0.88110119  0.11975616  0.74533161  1
  Zn  Zn87  1  0.75126751  0.49871393  0.26266329  1
  Zn  Zn88  1  0.00462076  0.74367543  0.24926529  1
  Zn  Zn89  1  0.24991165  0.88100454  0.12384739  1
  Zn  Zn90  1  0.61870130  0.12517772  0.50146501  1
  Zn  Zn91  1  0.56837617  0.20111143  0.32543659  1
  Zn  Zn92  1  0.25465993  0.00732204  0.24690813  1
  Zn  Zn93  1  0.00792439  0.23887090  0.74663572  1
  Zn  Zn94  1  0.12051798  0.13391766  -0.00840055  1
  Zn  Zn95  1  0.12460671  0.50076121  0.62710104  1
  Zn  Zn96  1  0.24861366  0.25204593  0.50170014  1
  Zn  Zn97  1  0.12596021  0.75049511  0.37322528  1
  Zn  Zn98  1  0.12249078  0.50241599  0.12754120  1
  Zn  Zn99  1  0.00177472  0.87656015  0.87528013  1
  Zn  Zn100  1  0.48730357  0.74573920  0.75670965  1
  Zn  Zn101  1  0.74082396  0.61893979  0.38785489  1
  Zn  Zn102  1  0.24277560  0.25131505  -0.00989438  1
  Zn  Zn103  1  0.62721322  0.50017279  0.12942035  1
  Zn  Zn104  1  0.37352964  0.74235256  0.63404671  1
  Zn  Zn105  1  0.24982090  0.37559145  0.62599560  1
  Zn  Zn106  1  0.62371919  -0.01031036  0.13336758  1
  Zn  Zn107  1  0.18845499  0.19129037  0.18544144  1
  Zn  Zn108  1  0.19315935  0.18632575  0.68926048  1
  Zn  Zn109  1  0.18845921  0.69041324  0.18663936  1
  Zn  Zn110  1  0.18951614  0.68971040  0.68657533  1
  Zn  Zn111  1  0.56766381  0.16615390  0.16918376  1
  Zn  Zn112  1  0.69461496  0.19050632  0.68826792  1
  Zn  Zn113  1  0.68994357  0.68761737  0.19428583  1
  Zn  Zn114  1  0.68542538  0.68401970  0.68233765  1
  Zn  Zn115  1  0.31474453  0.30984419  0.31270478  1
  Zn  Zn116  1  0.31106819  0.30950529  0.81214755  1
  Zn  Zn117  1  0.30862845  0.81046192  0.30696102  1
  Zn  Zn118  1  0.31212186  0.81599737  0.80936955  1
  Zn  Zn119  1  0.80757284  0.31056115  0.31468011  1
  Zn  Zn120  1  0.81398194  0.31388360  0.80743007  1
  Zn  Zn121  1  0.81901142  0.80396956  0.32174611  1
  Zn  Zn122  1  0.81128086  0.81279468  0.81571880  1
  Zn  Zn123  1  0.18726587  0.43878694  0.43700561  1
  Zn  Zn124  1  0.18652958  0.43633703  0.93657348  1
  Zn  Zn125  1  0.19010387  0.94071522  0.43827318  1
  Zn  Zn126  1  0.18771622  0.94552828  0.93518993  1
  Zn  Zn127  1  0.68829320  0.43697193  0.43422360  1
  Zn  Zn128  1  0.68783698  0.43933982  0.93550123  1
  Zn  Zn129  1  0.68791534  0.93099720  0.44341254  1
  Zn  Zn130  1  0.67142126  0.92184538  0.96985009  1
  Zn  Zn131  1  0.31077117  0.06608361  0.05701794  1
  Zn  Zn132  1  0.30997318  0.06483385  0.56028299  1
  Zn  Zn133  1  0.31194180  0.56145897  0.06061375  1
  Zn  Zn134  1  0.31870066  0.56499364  0.56422756  1
  Zn  Zn135  1  0.76542077  0.09626069  0.09701342  1
  Zn  Zn136  1  0.80892526  0.05969786  0.56185856  1
  Zn  Zn137  1  0.81250839  0.56188680  0.06204191  1
  Zn  Zn138  1  0.81214292  0.56562490  0.55708356  1
  Zn  Zn139  1  0.43969649  0.43501117  0.18924703  1
  Zn  Zn140  1  0.43940284  0.43901221  0.68515912  1
  Zn  Zn141  1  0.43221042  0.94625830  0.18224092  1
  Zn  Zn142  1  0.44255200  0.93231271  0.68392681  1
  Zn  Zn143  1  0.93853541  0.44082862  0.18762653  1
  Zn  Zn144  1  0.93826234  0.43633311  0.68503860  1
  Zn  Zn145  1  0.93620919  0.93762471  0.19186637  1
  Zn  Zn146  1  0.94334135  0.94058791  0.69081897  1
  Zn  Zn147  1  0.06105024  0.06273135  0.31382164  1
  Zn  Zn148  1  0.05969432  0.06443581  0.81053828  1
  Zn  Zn149  1  0.06049058  0.56127130  0.31239368  1
  Zn  Zn150  1  0.06172435  0.56113986  0.81557013  1
  Zn  Zn151  1  0.56404212  0.03442365  0.31474950  1
  Zn  Zn152  1  0.56177872  0.06312254  0.81107397  1
  Zn  Zn153  1  0.57087157  0.55943513  0.31556789  1
  Zn  Zn154  1  0.56376766  0.56394991  0.81285450  1
  Zn  Zn155  1  0.43787800  0.18137381  0.44940246  1
  Zn  Zn156  1  0.42826798  0.19179050  0.92910523  1
  Zn  Zn157  1  0.44327160  0.68806576  0.43543504  1
  Zn  Zn158  1  0.43713556  0.69018577  0.93651627  1
  Zn  Zn159  1  0.93744764  0.18855909  0.44151246  1
  Zn  Zn160  1  0.93335959  0.18504743  0.93880660  1
  Zn  Zn161  1  0.93815775  0.69276230  0.44044104  1
  Zn  Zn162  1  0.93773887  0.68754650  0.93710178  1
  Zn  Zn163  1  0.06156428  0.31220860  0.06294861  1
  Zn  Zn164  1  0.06418807  0.31578535  0.56329401  1
  Zn  Zn165  1  0.06202228  0.81677322  0.06326207  1
  Zn  Zn166  1  0.06554354  0.81262686  0.56379912  1
  Zn  Zn167  1  0.56441013  0.31454720  0.05906189  1
  Zn  Zn168  1  0.56197720  0.31719522  0.56389895  1
  Zn  Zn169  1  0.56025595  0.81744918  0.06532081  1
  Zn  Zn170  1  0.55947969  0.81218867  0.56215364  1
  O  O171  1  0.11298647  0.11863163  0.13085525  1
  O  O172  1  0.13357941  0.11674545  0.61657288  1
  O  O173  1  0.13252932  0.62255973  0.11049624  1
  O  O174  1  0.11801560  0.62378050  0.61809047  1
  O  O175  1  0.64598974  0.10746058  0.11097042  1
  O  O176  1  0.63024748  0.11328864  0.62817608  1
  O  O177  1  0.61846201  0.62444229  0.12117786  1
  O  O178  1  0.60848997  0.62454397  0.62338353  1
  O  O179  1  0.38212458  0.37922207  0.38194410  1
  O  O180  1  0.37953556  0.38137592  0.88219268  1
  O  O181  1  0.36459041  0.88353734  0.37724859  1
  O  O182  1  0.38214175  0.86962966  0.88592830  1
  O  O183  1  0.88611046  0.36634945  0.38242381  1
  O  O184  1  0.87987471  0.38308178  0.87681300  1
  O  O185  1  0.88969236  0.88192275  0.37434909  1
  O  O186  1  0.87922793  0.88434931  0.88089961  1
  O  O187  1  0.26184977  0.01152522  0.37691229  1
  O  O188  1  0.25449588  0.01629019  0.87609926  1
  O  O189  1  0.25766670  0.50477656  0.36914453  1
  O  O190  1  0.25603937  0.50657742  0.86811168  1
  O  O191  1  0.75922476  0.00274466  0.37511141  1
  O  O192  1  0.75560223  0.00633939  0.86869660  1
  O  O193  1  0.75132803  0.50645548  0.37731595  1
  O  O194  1  0.76491202  0.50698690  0.88051808  1
  O  O195  1  0.25129834  0.48805799  0.13040530  1
  O  O196  1  0.25322286  0.50303031  0.64028241  1
  O  O197  1  0.23895150  1.00372442  0.12592235  1
  O  O198  1  0.23933452  0.99101472  0.61582246  1
  O  O199  1  0.75162502  0.48587039  0.12340625  1
  O  O200  1  0.75708303  0.48647346  0.61976826  1
  O  O201  1  0.76799334  0.99344577  0.14779780  1
  O  O202  1  0.74412190  1.00145218  0.63853907  1
  O  O203  1  0.00800707  0.38171347  0.25981024  1
  O  O204  1  0.00815689  0.37467232  0.75708910  1
  O  O205  1  0.01095883  0.87589293  0.25899494  1
  O  O206  1  0.01205168  0.86798744  0.75135675  1
  O  O207  1  0.50641995  0.37979920  0.26475936  1
  O  O208  1  0.50764971  0.36945677  0.75308357  1
  O  O209  1  0.49870326  0.86881217  0.24173290  1
  O  O210  1  0.50807042  0.87024013  0.75796310  1
  O  O211  1  0.51920521  0.12226233  0.25953924  1
  O  O212  1  0.48815022  0.13444933  0.75393287  1
  O  O213  1  0.49630124  0.62419810  0.23847127  1
  O  O214  1  0.50229588  0.62501344  0.73995479  1
  O  O215  1  0.98580164  0.11927332  0.24370841  1
  O  O216  1  0.99368287  0.12710532  0.74844740  1
  O  O217  1  0.98693329  0.62550866  0.25195330  1
  O  O218  1  0.99171586  0.63137218  0.74728324  1
  O  O219  1  0.37573243  0.26301932  0.00671579  1
  O  O220  1  0.37466973  0.25690140  0.51101712  1
  O  O221  1  0.36991595  0.75829181  0.00472447  1
  O  O222  1  0.36401318  0.74586833  0.49913424  1
  O  O223  1  0.87088749  0.25764395  0.00768130  1
  O  O224  1  0.86989099  0.25965587  0.50851699  1
  O  O225  1  0.87222852  0.75281429  0.01066706  1
  O  O226  1  0.87559584  0.75229630  0.51656890  1
  O  O227  1  0.12597937  0.24471758  0.49362857  1
  O  O228  1  0.13005093  0.24539788  1.00863731  1
  O  O229  1  0.13079665  0.73681390  0.49945132  1
  O  O230  1  0.12839003  0.74573788  0.99591475  1
  O  O231  1  0.63672529  0.24774685  0.50758067  1
  O  O232  1  0.63181345  0.24971013  0.98833823  1
  O  O233  1  0.63312764  0.75212729  0.49516781  1
  O  O234  1  0.63259076  0.74429138  0.99455182  1
  O  O235  1  0.49377404  0.24509617  0.11794602  1
  O  O236  1  0.49363860  0.25404109  0.63504441  1
  O  O237  1  0.49746011  0.74586597  0.13331359  1
  O  O238  1  0.49915016  0.73896983  0.62747746  1
  O  O239  1  0.98856965  0.23808808  0.12245614  1
  O  O240  1  0.98421764  0.25758564  0.62295292  1
  O  O241  1  0.98916599  0.74992742  0.12473342  1
  O  O242  1  0.99150342  0.74556943  0.62996038  1
  O  O243  1  0.01152056  0.25808699  0.37978585  1
  O  O244  1  -0.01003196  0.26234759  0.87258182  1
  O  O245  1  0.00484318  0.76031738  0.37423935  1
  O  O246  1  0.00566448  0.75270490  0.86848738  1
  O  O247  1  0.49813177  0.26304345  0.39060127  1
  O  O248  1  0.50421057  0.25709180  0.86382639  1
  O  O249  1  0.50336741  0.75084047  0.35836504  1
  O  O250  1  0.51241026  0.75569774  0.87737099  1
  O  O251  1  0.23812743  0.12753304  0.48745736  1
  O  O252  1  0.24845199  0.12773882  0.98519497  1
  O  O253  1  0.24390618  0.62907649  0.49598650  1
  O  O254  1  0.24409946  0.62946910  0.99009875  1
  O  O255  1  0.74782915  0.13165913  0.49365474  1
  O  O256  1  0.75240984  0.13471034  0.98644852  1
  O  O257  1  0.75978589  0.64681639  0.50161742  1
  O  O258  1  0.74598402  0.63299373  0.99473024  1
  O  O259  1  0.25827169  0.37577039  0.00696012  1
  O  O260  1  0.26320146  0.37641756  0.49986497  1
  O  O261  1  0.25556316  0.87220685  -0.00101885  1
  O  O262  1  0.24003430  0.86342979  0.50860439  1
  O  O263  1  0.75617056  0.37166118  0.00412735  1
  O  O264  1  0.75670387  0.36780511  0.50488808  1
  O  O265  1  0.76714617  0.86015271  -0.01389336  1
  O  O266  1  0.75684577  0.85600611  0.49942500  1
  O  O267  1  0.13185603  0.49038427  0.24957506  1
  O  O268  1  0.13314950  0.49316442  0.75086212  1
  O  O269  1  0.12559959  0.99551926  0.24275172  1
  O  O270  1  0.11894305  0.99238659  0.73749811  1
  O  O271  1  0.62933220  0.48595410  0.24691314  1
  O  O272  1  0.62510526  0.48680112  0.75630599  1
  O  O273  1  0.64615943  0.98783698  0.25029457  1
  O  O274  1  0.63035690  0.99343591  0.74530217  1
  O  O275  1  0.37231158  -0.00354690  0.26585773  1
  O  O276  1  0.38053936  0.01224517  0.74146472  1
  O  O277  1  0.37126005  0.50484673  0.25660881  1
  O  O278  1  0.36851260  0.49326361  0.76315259  1
  O  O279  1  0.87448327  0.00442311  0.26681714  1
  O  O280  1  0.86726499  -0.00377985  0.75786047  1
  O  O281  1  0.87454193  0.51373420  0.24770980  1
  O  O282  1  0.88196747  0.50965837  0.75768858  1
  O  O283  1  0.11819822  0.36830993  0.37055255  1
  O  O284  1  0.11388849  0.38037021  0.86649219  1
  O  O285  1  0.12043536  0.87763528  0.36680329  1
  O  O286  1  0.12529643  0.87152045  0.86743108  1
  O  O287  1  0.61610318  0.37244875  0.36850583  1
  O  O288  1  0.62168548  0.36918044  0.86757657  1
  O  O289  1  0.62891399  0.85918655  0.37510614  1
  O  O290  1  0.61631572  0.86797294  0.87223234  1
  O  O291  1  0.36822613  0.14108218  0.12442627  1
  O  O292  1  0.36773635  0.13584910  0.63460056  1
  O  O293  1  0.38220334  0.63137670  0.12785002  1
  O  O294  1  0.39653969  0.62657300  0.61613991  1
  O  O295  1  0.87356740  0.13448897  0.13551506  1
  O  O296  1  0.86921928  0.14025863  0.62170501  1
  O  O297  1  0.87701906  0.63533413  0.12540325  1
  O  O298  1  0.88063574  0.63099277  0.63258304  1
  O  O299  1  0.26043906  0.26254612  0.12587119  1
  O  O300  1  0.25946442  0.25517834  0.62257813  1
  O  O301  1  0.25724275  0.75427108  0.11719598  1
  O  O302  1  0.25070921  0.75652161  0.61525457  1
  O  O303  1  0.76094052  0.26318717  0.11504280  1
  O  O304  1  0.76043627  0.25764856  0.61690747  1
  O  O305  1  0.76080348  0.74602671  0.11607990  1
  O  O306  1  0.76012008  0.75026681  0.61936812  1
  O  O307  1  0.24140302  0.24305551  0.37719682  1
  O  O308  1  0.26238242  0.23179917  0.87623961  1
  O  O309  1  0.24785287  0.74276290  0.38068944  1
  O  O310  1  0.24392284  0.74361776  0.88062321  1
  O  O311  1  0.75579011  0.23751083  0.38715737  1
  O  O312  1  0.74824371  0.24394482  0.87566376  1
  O  O313  1  0.74423096  0.74581870  0.38653025  1
  O  O314  1  0.74071182  0.74356248  0.88222004  1
  O  O315  1  -0.00380984  0.11575454  0.00909977  1
  O  O316  1  0.01298837  0.11715129  0.49572052  1
  O  O317  1  0.01014291  0.61613107  -0.00773825  1
  O  O318  1  0.00644652  0.61867111  0.50194295  1
  O  O319  1  0.49164427  0.11495867  -0.00901128  1
  O  O320  1  0.50567230  0.10390346  0.49475534  1
  O  O321  1  0.50358431  0.62362313  0.01115370  1
  O  O322  1  0.50236946  0.61214735  0.49983400  1
  O  O323  1  0.49078522  0.38416842  0.49781208  1
  O  O324  1  0.49430886  0.38171274  0.99201670  1
  O  O325  1  0.50227526  0.89212395  0.50391473  1
  O  O326  1  0.48988300  0.88439701  0.99130964  1
  O  O327  1  0.99404993  0.38181866  0.49365921  1
  O  O328  1  0.99456852  0.38087039  0.99181601  1
  O  O329  1  1.01107379  0.88427183  0.49005285  1
  O  O330  1  0.99358086  0.88685820  0.99963914  1
  O  O331  1  0.49693387  0.49296967  0.38619207  1
  O  O332  1  0.49206485  0.49736018  0.87978891  1
  O  O333  1  0.48367333  0.99163267  0.38534852  1
  O  O334  1  0.49496450  0.98882713  0.87363094  1
  O  O335  1  1.00502952  0.48966259  0.38756123  1
  O  O336  1  0.99000505  0.49330344  0.88292216  1
  O  O337  1  0.99547958  0.99494793  0.38603117  1
  O  O338  1  0.99197144  1.00008886  0.88527422  1
  O  O339  1  0.00108594  0.01036050  0.12064555  1
  O  O340  1  0.00897576  -0.00553502  0.61253350  1
  O  O341  1  0.00324121  0.49380852  0.10806228  1
  O  O342  1  0.00029737  0.50647684  0.61275603  1
  O  O343  1  0.50311819  0.00203263  0.10977068  1
  O  O344  1  0.50687902  -0.00026907  0.61601369  1
  O  O345  1  0.49982042  0.50857631  0.11842856  1
  O  O346  1  0.49693525  0.50820734  0.61309553  1
  O  O347  1  0.24462411  0.37937755  0.24490905  1
  O  O348  1  0.24266686  0.38420791  0.75297822  1
  O  O349  1  0.23722062  0.87929259  0.24611334  1
  O  O350  1  0.23682626  0.87245619  0.74078917  1
  O  O351  1  0.74436866  0.37517449  0.24282170  1
  O  O352  1  0.74224441  0.37172042  0.73834295  1
  O  O353  1  0.76532595  0.88217220  0.25729903  1
  O  O354  1  0.73910013  0.88376312  0.75967519  1
  O  O355  1  0.24173420  0.12543940  0.26683122  1
  O  O356  1  0.26382066  0.12593571  0.75736326  1
  O  O357  1  0.25710592  0.62059290  0.25323814  1
  O  O358  1  0.24264032  0.61851814  0.76363591  1
  O  O359  1  0.76558220  0.11187046  0.26302178  1
  O  O360  1  0.75649325  0.11798656  0.76041447  1
  O  O361  1  0.76768107  0.62346874  0.24793297  1
  O  O362  1  0.76112979  0.62950673  0.75446285  1
  O  O363  1  0.36100353  0.12873061  0.37863106  1
  O  O364  1  0.37040821  0.12175061  0.85908688  1
  O  O365  1  0.37171751  0.61947820  0.36822042  1
  O  O366  1  0.36573218  0.61438673  0.88379155  1
  O  O367  1  0.87180678  0.11869638  0.37341216  1
  O  O368  1  0.86843055  0.11086308  0.87580255  1
  O  O369  1  0.87523483  0.63116214  0.36518378  1
  O  O370  1  0.87144343  0.61957542  0.86689711  1
  O  O371  1  0.13304666  0.37663517  0.13401394  1
  O  O372  1  0.12886210  0.38172148  0.63317958  1
  O  O373  1  0.12248170  0.88959820  0.13089745  1
  O  O374  1  0.13190450  0.88171543  0.63173569  1
  O  O375  1  0.63333223  0.37642184  0.12905924  1
  O  O376  1  0.63672412  0.37226220  0.63285081  1
  O  O377  1  0.64100359  0.89078683  0.08057820  1
  O  O378  1  0.62069270  0.88153747  0.63867667  1
  O  O379  1  0.12791136  0.26335021  0.25732210  1
  O  O380  1  0.12552903  0.26372702  0.74400281  1
  O  O381  1  0.12293417  0.76009492  0.24970871  1
  O  O382  1  0.11938767  0.75604231  0.75495904  1
  O  O383  1  0.62303141  0.26273439  0.24211051  1
  O  O384  1  0.61863648  0.25497273  0.75252909  1
  O  O385  1  0.61219050  0.75398835  0.24937892  1
  O  O386  1  0.62627687  0.75630103  0.75869992  1
  O  O387  1  0.37952646  0.25642312  0.23445100  1
  O  O388  1  0.38432289  0.24877181  0.74174075  1
  O  O389  1  0.38617297  0.74690451  0.24360471  1
  O  O390  1  0.37371957  0.74707619  0.74942347  1
  O  O391  1  0.87018336  0.24297815  0.24212740  1
  O  O392  1  0.87519171  0.25084598  0.73299642  1
  O  O393  1  0.87879265  0.74095872  0.23868833  1
  O  O394  1  0.87807637  0.74455182  0.74300274  1
  O  O395  1  0.38056195  0.49258976  0.49339520  1
  O  O396  1  0.37882531  0.49036282  0.99223696  1
  O  O397  1  0.38128166  1.00271256  0.49190236  1
  O  O398  1  0.38388534  0.99369582  1.00174864  1
  O  O399  1  0.88326820  0.48699773  0.50308658  1
  O  O400  1  0.88224085  0.49547267  0.99303627  1
  O  O401  1  0.88390794  1.00476575  0.49248262  1
  O  O402  1  0.88037702  0.99045319  0.99485278  1
  O  O403  1  0.11441281  0.00609119  0.00830025  1
  O  O404  1  0.11919735  0.00849997  0.50614273  1
  O  O405  1  0.11846557  0.50835397  -0.00135637  1
  O  O406  1  0.12013164  0.51054469  0.50212701  1
  O  O407  1  0.59972223  0.01081110  -0.02069358  1
  O  O408  1  0.62221789  -0.00108938  0.51129867  1
  O  O409  1  0.61774718  0.50769348  0.00061498  1
  O  O410  1  0.61126394  0.49247647  0.50188333  1
  O  O411  1  0.37133856  0.37105260  0.11744624  1
  O  O412  1  0.37387550  0.36795215  0.61842552  1
  O  O413  1  0.37284772  0.87199835  0.11250975  1
  O  O414  1  0.36096643  0.87326521  0.62824888  1
  O  O415  1  0.87161139  0.36928045  0.12243067  1
  O  O416  1  0.86823210  0.36832181  0.61766996  1
  O  O417  1  0.88120615  0.86378407  0.11681597  1
  O  O418  1  0.87825442  0.86325534  0.63256803  1
  O  O419  1  0.12861467  0.13313405  0.38010894  1
  O  O420  1  0.13815444  0.12130933  0.87184955  1
  O  O421  1  0.13249407  0.62454833  0.38221328  1
  O  O422  1  0.13230603  0.63067676  0.88375192  1
  O  O423  1  0.63800024  0.11849855  0.37784580  1
  O  O424  1  0.63392449  0.13390188  0.87101662  1
  O  O425  1  0.62669741  0.64439174  0.36451795  1
  O  O426  1  0.62934110  0.63221702  0.88055599  1
