# generated using pymatgen
data_V85Zn86O256
_symmetry_space_group_name_H-M   'P 1'
_cell_length_a   16.93550057
_cell_length_b   16.93344981
_cell_length_c   16.91832724
_cell_angle_alpha   89.98633670
_cell_angle_beta   89.96761676
_cell_angle_gamma   89.97701164
_symmetry_Int_Tables_number   1
_chemical_formula_structural   V85Zn86O256
_chemical_formula_sum   'V85 Zn86 O256'
_cell_volume   4851.77650417
_cell_formula_units_Z   1
loop_
 _symmetry_equiv_pos_site_id
 _symmetry_equiv_pos_as_xyz
  1  'x, y, z'
loop_
 _atom_site_type_symbol
 _atom_site_label
 _atom_site_symmetry_multiplicity
 _atom_site_fract_x
 _atom_site_fract_y
 _atom_site_fract_z
 _atom_site_occupancy
  V  V0  1  0.62815939  0.50291879  0.61923118  1
  V  V1  1  0.00212342  0.12677327  0.62576101  1
  V  V2  1  0.74521433  0.61739137  0.37993166  1
  V  V3  1  -0.00082198  0.87403899  0.86992596  1
  V  V4  1  0.24574855  0.50168996  0.25742011  1
  V  V5  1  0.74324854  0.75372063  0.00448532  1
  V  V6  1  0.36961733  0.62671301  0.25779974  1
  V  V7  1  0.50286654  0.61869270  0.11407462  1
  V  V8  1  0.37541074  0.25741353  0.12176120  1
  V  V9  1  0.74861678  0.62160224  0.88272441  1
  V  V10  1  0.12307240  -0.00589132  0.62810221  1
  V  V11  1  0.24889904  0.37321139  0.62278356  1
  V  V12  1  0.88157153  0.24957491  0.62518778  1
  V  V13  1  0.74921165  0.36708216  0.62362058  1
  V  V14  1  0.37355441  0.12954445  0.75048875  1
  V  V15  1  0.24734041  0.87006651  0.62645594  1
  V  V16  1  0.12721694  0.12507277  -0.00352010  1
  V  V17  1  0.37999845  0.25128515  0.62330672  1
  V  V18  1  0.86758335  0.75711144  0.62616609  1
  V  V19  1  0.50281256  0.12688286  0.62381360  1
  V  V20  1  -0.00657273  0.75607061  0.26134013  1
  V  V21  1  0.87497808  0.12572225  0.24627457  1
  V  V22  1  0.62459144  0.74498696  0.87529009  1
  V  V23  1  0.12061848  0.50937734  0.62641096  1
  V  V24  1  0.50390388  0.11996292  0.12328251  1
  V  V25  1  0.25100664  0.25602880  -0.00273640  1
  V  V26  1  0.24987733  0.62734318  0.88129762  1
  V  V27  1  0.86971089  0.87635229  -0.00386581  1
  V  V28  1  0.12418745  0.63242987  0.00335596  1
  V  V29  1  0.87693387  -0.00889430  0.36930658  1
  V  V30  1  0.36666484  0.74832559  0.12241509  1
  V  V31  1  0.63902816  -0.00230643  0.62291293  1
  V  V32  1  0.50218010  0.00086082  0.49909754  1
  V  V33  1  0.86939470  0.75625583  0.12713714  1
  V  V34  1  0.36577088  0.12870629  0.25267467  1
  V  V35  1  0.87485516  0.37791173  0.49378762  1
  V  V36  1  0.24586990  0.87342866  0.12163620  1
  V  V37  1  0.49665402  0.87493134  0.86945653  1
  V  V38  1  0.12322691  0.49910850  0.12896225  1
  V  V39  1  0.12402420  -0.00035535  0.12336973  1
  V  V40  1  0.36832091  0.00637943  0.37585875  1
  V  V41  1  0.00534275  0.74574082  0.74418454  1
  V  V42  1  0.55916956  0.19466877  0.80334766  1
  V  V43  1  0.62720157  0.12588260  0.50113754  1
  V  V44  1  0.87812015  0.62297146  0.74462004  1
  V  V45  1  0.50432341  0.62414217  0.62310923  1
  V  V46  1  0.24911806  0.49869123  0.75209953  1
  V  V47  1  0.50084482  0.75100042  0.24675010  1
  V  V48  1  0.50097687  0.50531853  0.49825506  1
  V  V49  1  0.87335695  0.25516620  0.11715581  1
  V  V50  1  0.37616020  0.49477680  0.89058391  1
  V  V51  1  0.74050210  -0.00180366  0.23150768  1
  V  V52  1  0.11907680  0.87745441  0.25818099  1
  V  V53  1  0.13126076  0.24995678  0.37154282  1
  V  V54  1  0.50034538  0.37775916  0.88955662  1
  V  V55  1  0.74871017  0.49875303  0.74951500  1
  V  V56  1  0.75552873  0.38587008  0.11983571  1
  V  V57  1  0.61454473  0.37458411  0.75238097  1
  V  V58  1  -0.00585269  0.50684218  0.50050904  1
  V  V59  1  0.63245262  0.38832706  0.24912454  1
  V  V60  1  0.86551709  0.61543673  0.25425354  1
  V  V61  1  -0.00375961  0.62775998  0.12650346  1
  V  V62  1  0.13047243  0.62391393  0.48885272  1
  V  V63  1  0.24696302  0.37775487  0.12582902  1
  V  V64  1  0.50072159  0.74580786  0.74687617  1
  V  V65  1  0.63340991  0.87134143  0.74248554  1
  V  V66  1  0.36908758  0.87406688  -0.00347013  1
  V  V67  1  0.11684057  0.36617769  0.74675018  1
  V  V68  1  0.62755543  0.75497902  0.37818918  1
  V  V69  1  0.24952761  -0.00260936  0.75052814  1
  V  V70  1  0.00025087  -0.00918000  0.49297306  1
  V  V71  1  0.00282331  0.25399494  0.24995920  1
  V  V72  1  0.12657937  0.75316588  0.87429355  1
  V  V73  1  0.50261135  0.25195125  0.24908776  1
  V  V74  1  0.37577209  0.74824283  0.62320281  1
  V  V75  1  0.87805697  0.12303996  0.75581597  1
  V  V76  1  -0.00444324  -0.00020980  -0.00662002  1
  V  V77  1  0.37623034  0.87447241  0.49660438  1
  V  V78  1  -0.00229753  0.37179521  0.88122155  1
  V  V79  1  0.00205459  0.37969303  0.37240373  1
  V  V80  1  0.75885229  -0.00263883  0.76126218  1
  V  V81  1  0.74919715  0.12267386  0.37186687  1
  V  V82  1  0.37562894  0.62216289  0.75068352  1
  V  V83  1  0.49868165  0.37908069  0.37354958  1
  V  V84  1  0.13126160  0.12319023  0.49377703  1
  Zn  Zn85  1  0.62683402  0.25122547  0.37442386  1
  Zn  Zn86  1  0.37941840  0.00297392  0.87587843  1
  Zn  Zn87  1  0.62627638  0.50374655  0.11064482  1
  Zn  Zn88  1  0.87087984  0.87441497  0.49969302  1
  Zn  Zn89  1  0.74535426  0.25596720  -0.01075125  1
  Zn  Zn90  1  0.50172007  0.87887792  0.36862116  1
  Zn  Zn91  1  -0.00020148  0.12853550  0.12159732  1
  Zn  Zn92  1  0.25624048  0.74096431  0.48957676  1
  Zn  Zn93  1  0.12560867  0.24842373  0.86758381  1
  Zn  Zn94  1  0.25365477  0.24582761  0.49312576  1
  Zn  Zn95  1  0.62541260  0.87552336  0.23023533  1
  Zn  Zn96  1  -0.00560983  0.49892895  0.00240439  1
  Zn  Zn97  1  0.87645939  0.49750927  0.88162734  1
  Zn  Zn98  1  0.75283178  0.24855489  0.49521851  1
  Zn  Zn99  1  0.36947371  0.50462510  0.37856579  1
  Zn  Zn100  1  0.24535000  0.00488961  0.25404744  1
  Zn  Zn101  1  0.63315657  0.12621256  0.00594456  1
  Zn  Zn102  1  0.25134811  0.12598415  0.87447926  1
  Zn  Zn103  1  0.37489977  0.37534814  0.49811980  1
  Zn  Zn104  1  0.12615061  0.75181311  0.37478026  1
  Zn  Zn105  1  0.74369740  0.75406098  0.50510290  1
  Zn  Zn106  1  0.50799639  -0.01293437  0.01539540  1
  Zn  Zn107  1  0.18518380  0.18917033  0.18429312  1
  Zn  Zn108  1  0.19021096  0.18580609  0.68194487  1
  Zn  Zn109  1  0.18505707  0.68915201  0.19355007  1
  Zn  Zn110  1  0.18807671  0.68642606  0.68767445  1
  Zn  Zn111  1  0.68706362  0.19351967  0.18443950  1
  Zn  Zn112  1  0.74515074  0.14826636  0.86658975  1
  Zn  Zn113  1  0.68524863  0.68652942  0.18841842  1
  Zn  Zn114  1  0.68915964  0.68181737  0.68869157  1
  Zn  Zn115  1  0.31271784  0.31849265  0.30795704  1
  Zn  Zn116  1  0.31381790  0.31420672  0.81225531  1
  Zn  Zn117  1  0.30769209  0.81468626  0.31188223  1
  Zn  Zn118  1  0.30941821  0.81015582  0.80964676  1
  Zn  Zn119  1  0.81405815  0.31199684  0.31038355  1
  Zn  Zn120  1  0.81831419  0.31256710  0.80570865  1
  Zn  Zn121  1  0.80476038  0.81688519  0.30984518  1
  Zn  Zn122  1  0.81271161  0.81194672  0.81328266  1
  Zn  Zn123  1  0.18266256  0.43521541  0.43869906  1
  Zn  Zn124  1  0.18160735  0.43952881  0.93959276  1
  Zn  Zn125  1  0.19058690  0.93531064  0.43948697  1
  Zn  Zn126  1  0.18551779  0.93599499  0.93585073  1
  Zn  Zn127  1  0.68606067  0.43706180  0.43720009  1
  Zn  Zn128  1  0.69065559  0.42951531  0.93497491  1
  Zn  Zn129  1  0.69236365  0.93350106  0.43319492  1
  Zn  Zn130  1  0.68453294  0.94130049  1.05466865  1
  Zn  Zn131  1  0.31495688  0.06278742  0.06263111  1
  Zn  Zn132  1  0.31174638  0.06152106  0.56403490  1
  Zn  Zn133  1  0.30935109  0.56548610  0.06564873  1
  Zn  Zn134  1  0.31220849  0.55939020  0.56210160  1
  Zn  Zn135  1  0.81723496  0.07331318  0.04981108  1
  Zn  Zn136  1  0.81517330  0.06171839  0.56065900  1
  Zn  Zn137  1  0.81157824  0.56243636  0.06339286  1
  Zn  Zn138  1  0.81250896  0.56660276  0.56068569  1
  Zn  Zn139  1  0.43475376  0.44010900  0.18715181  1
  Zn  Zn140  1  0.43591366  0.44039260  0.68911933  1
  Zn  Zn141  1  0.43227437  0.93688345  0.19005698  1
  Zn  Zn142  1  0.43956071  0.93968743  0.68567520  1
  Zn  Zn143  1  0.93826295  0.43914243  0.18903852  1
  Zn  Zn144  1  0.93806981  0.43779439  0.68569491  1
  Zn  Zn145  1  0.93634996  0.93816560  0.18266164  1
  Zn  Zn146  1  0.94014459  0.93567544  0.68891148  1
  Zn  Zn147  1  0.06046221  0.06590394  0.31109925  1
  Zn  Zn148  1  0.06288905  0.06128868  0.81079308  1
  Zn  Zn149  1  0.05504003  0.56261980  0.31078144  1
  Zn  Zn150  1  0.06190554  0.56066372  0.81383484  1
  Zn  Zn151  1  0.55957509  0.06339064  0.31120911  1
  Zn  Zn152  1  0.62093090  0.00575194  0.87207282  1
  Zn  Zn153  1  0.56200966  0.56861771  0.31073172  1
  Zn  Zn154  1  0.56212066  0.56155734  0.93580425  1
  Zn  Zn155  1  0.43840067  0.19010907  0.43612920  1
  Zn  Zn156  1  0.43472618  0.18765462  0.94124951  1
  Zn  Zn157  1  0.44293913  0.68869456  0.43573908  1
  Zn  Zn158  1  0.42999926  0.69294845  0.93719719  1
  Zn  Zn159  1  0.94067798  0.18470616  0.43716969  1
  Zn  Zn160  1  0.94243584  0.19374117  0.93593684  1
  Zn  Zn161  1  0.93464436  0.68450427  0.43836276  1
  Zn  Zn162  1  0.93457051  0.68429428  0.93668558  1
  Zn  Zn163  1  0.06566429  0.31368649  0.06328202  1
  Zn  Zn164  1  0.06327461  0.31298096  0.55806930  1
  Zn  Zn165  1  0.05770294  0.81143652  0.06353499  1
  Zn  Zn166  1  0.05927093  0.80932890  0.56243117  1
  Zn  Zn167  1  0.56993367  0.30963239  0.06345629  1
  Zn  Zn168  1  0.56431323  0.31270270  0.56041640  1
  Zn  Zn169  1  0.55585721  0.80645621  0.05917699  1
  Zn  Zn170  1  0.56259095  0.81454097  0.56058269  1
  O  O171  1  0.12344087  0.11740158  0.11370189  1
  O  O172  1  0.11919221  0.11654628  0.61776985  1
  O  O173  1  0.11967447  0.62420022  0.11936490  1
  O  O174  1  0.12785285  0.61306267  0.61828732  1
  O  O175  1  0.60619943  0.12774811  0.13206838  1
  O  O176  1  0.62094928  0.11461147  0.61001549  1
  O  O177  1  0.60619324  0.62500040  0.12861222  1
  O  O178  1  0.61848674  0.61414453  0.62794522  1
  O  O179  1  0.38835454  0.37969419  0.37275742  1
  O  O180  1  0.38632080  0.38437405  0.86669084  1
  O  O181  1  0.37760046  0.88310065  0.38179691  1
  O  O182  1  0.37794284  0.87322531  0.87967936  1
  O  O183  1  0.88196716  0.36822401  0.38716291  1
  O  O184  1  0.89537985  0.37842806  0.86284387  1
  O  O185  1  0.87419054  0.88859258  0.36896190  1
  O  O186  1  0.88409377  0.86709986  0.88749345  1
  O  O187  1  0.26352420  -0.00198088  0.37458916  1
  O  O188  1  0.24986126  -0.00340993  0.85971589  1
  O  O189  1  0.24831976  0.49098958  0.36138963  1
  O  O190  1  0.25254464  0.50579596  0.87046287  1
  O  O191  1  0.75722844  0.00993797  0.36288835  1
  O  O192  1  0.74215226  -0.00365043  0.85967091  1
  O  O193  1  0.74174306  0.51815067  0.37795862  1
  O  O194  1  0.75234967  0.50504189  0.86468787  1
  O  O195  1  0.24317064  0.49536483  0.13111634  1
  O  O196  1  0.24291371  0.49218425  0.63083588  1
  O  O197  1  0.23798397  0.99503231  0.12494093  1
  O  O198  1  0.24387501  0.99259647  0.63190260  1
  O  O199  1  0.74852353  0.48960978  0.12992259  1
  O  O200  1  0.74518274  0.49345671  0.62586260  1
  O  O201  1  0.75102057  1.00966081  0.12843355  1
  O  O202  1  0.74165542  1.00440071  0.63157835  1
  O  O203  1  -0.00629772  0.36743083  0.26118416  1
  O  O204  1  0.01238876  0.38085490  0.75471637  1
  O  O205  1  0.00717387  0.86828518  0.24207399  1
  O  O206  1  -0.00389592  0.86604303  0.76351105  1
  O  O207  1  0.50734351  0.37133042  0.25296612  1
  O  O208  1  0.51179852  0.38079219  0.75048006  1
  O  O209  1  0.49605341  0.86139010  0.24810365  1
  O  O210  1  0.50331795  0.86409174  0.75025769  1
  O  O211  1  0.49160346  0.13431579  0.24294579  1
  O  O212  1  0.49389574  0.13484198  0.74301730  1
  O  O213  1  0.49088993  0.63499568  0.24037604  1
  O  O214  1  0.49095752  0.63287977  0.73964632  1
  O  O215  1  0.99022845  0.13233755  0.24494865  1
  O  O216  1  0.99524012  0.11493600  0.73352081  1
  O  O217  1  0.98589838  0.63518390  0.24756706  1
  O  O218  1  0.99026000  0.63260042  0.75657335  1
  O  O219  1  0.36042414  0.24599841  0.00853349  1
  O  O220  1  0.37144670  0.25367079  0.50583826  1
  O  O221  1  0.37204021  0.76304632  0.00812262  1
  O  O222  1  0.37672612  0.75758145  0.50343605  1
  O  O223  1  0.87750452  0.24759257  0.01495154  1
  O  O224  1  0.87521203  0.25516255  0.50708009  1
  O  O225  1  0.86618826  0.75556773  0.00625589  1
  O  O226  1  0.88262476  0.74846046  0.51868107  1
  O  O227  1  0.12637788  0.24077654  0.49025409  1
  O  O228  1  0.13524336  0.24063090  1.00200464  1
  O  O229  1  0.11931173  0.73191993  0.50105354  1
  O  O230  1  0.12088795  0.73994920  0.99372431  1
  O  O231  1  0.62943632  0.24018280  0.49614926  1
  O  O232  1  0.63184150  0.23900025  1.00673567  1
  O  O233  1  0.62123083  0.75343229  0.48232936  1
  O  O234  1  0.63351621  0.75481605  0.98843032  1
  O  O235  1  0.49181681  0.24620780  0.13193745  1
  O  O236  1  0.48752624  0.24505582  0.61699338  1
  O  O237  1  0.48663003  0.74055128  0.12835994  1
  O  O238  1  0.49633824  0.74384921  0.62656664  1
  O  O239  1  0.99450267  0.25348956  0.13331599  1
  O  O240  1  0.99513411  0.23917562  0.61695041  1
  O  O241  1  0.98859785  0.74496187  0.13269180  1
  O  O242  1  0.99282544  0.75269627  0.63980123  1
  O  O243  1  0.00637439  0.25568706  0.36861302  1
  O  O244  1  0.00856422  0.26548147  0.87506341  1
  O  O245  1  0.00070344  0.74840337  0.36437469  1
  O  O246  1  0.00607183  0.75381616  0.86809705  1
  O  O247  1  0.50241067  0.25998675  0.36622639  1
  O  O248  1  0.49974591  0.25182998  0.86762747  1
  O  O249  1  0.51113092  0.74993337  0.36456291  1
  O  O250  1  0.50452707  0.75357727  0.86751217  1
  O  O251  1  0.23550250  0.12436517  0.50455240  1
  O  O252  1  0.24320188  0.13036829  0.99805740  1
  O  O253  1  0.23501775  0.62196606  0.50162689  1
  O  O254  1  0.24227247  0.62408362  0.98895455  1
  O  O255  1  0.74448235  0.12299345  0.48950838  1
  O  O256  1  0.75050671  0.12998264  0.98239094  1
  O  O257  1  0.75537168  0.63480158  0.48409939  1
  O  O258  1  0.75392822  0.63593378  0.98762780  1
  O  O259  1  0.24261481  0.36812499  0.01124713  1
  O  O260  1  0.25022315  0.37527183  0.51260804  1
  O  O261  1  0.25278585  0.87893413  0.01205578  1
  O  O262  1  0.26243750  0.87631609  0.51046733  1
  O  O263  1  0.75350428  0.37516500  0.01720874  1
  O  O264  1  0.75813010  0.37478405  0.50346271  1
  O  O265  1  0.75873737  0.86737790  -0.00112885  1
  O  O266  1  0.75732440  0.86703249  0.49396803  1
  O  O267  1  0.13091055  0.51165860  0.23812957  1
  O  O268  1  0.13047900  0.49499904  0.74161141  1
  O  O269  1  0.12316623  0.99659572  0.24044946  1
  O  O270  1  0.13268906  1.00223848  0.73616683  1
  O  O271  1  0.61725954  0.48904694  0.24452436  1
  O  O272  1  0.63880285  0.49010346  0.73579865  1
  O  O273  1  0.63871668  1.00232567  0.24995931  1
  O  O274  1  0.63860314  0.98885258  0.74241330  1
  O  O275  1  0.37211840  0.01031910  0.25812416  1
  O  O276  1  0.36817423  0.01127941  0.74708094  1
  O  O277  1  0.36539391  0.50982106  0.25082727  1
  O  O278  1  0.36678198  0.50673484  0.75576793  1
  O  O279  1  0.86770037  0.00802871  0.24919545  1
  O  O280  1  0.86582422  0.00321065  0.74568484  1
  O  O281  1  0.87730179  0.51760723  0.25066081  1
  O  O282  1  0.86454657  0.50592879  0.74668635  1
  O  O283  1  0.11119588  0.36488691  0.38102420  1
  O  O284  1  0.11887460  0.37613155  0.86314981  1
  O  O285  1  0.12481037  0.88137750  0.36117536  1
  O  O286  1  0.11778044  0.85981308  0.88096714  1
  O  O287  1  0.61730174  0.37528510  0.36426598  1
  O  O288  1  0.61395923  0.38089496  0.86302300  1
  O  O289  1  0.62268417  0.86561721  0.36406846  1
  O  O290  1  0.61435012  0.86277981  0.85743601  1
  O  O291  1  0.38008313  0.13711076  0.13262111  1
  O  O292  1  0.38033563  0.13122522  0.62938705  1
  O  O293  1  0.37980950  0.63276891  0.13030314  1
  O  O294  1  0.38014345  0.62936464  0.62811516  1
  O  O295  1  0.87603916  0.13447989  0.13331192  1
  O  O296  1  0.88340184  0.13053083  0.62677152  1
  O  O297  1  0.87358656  0.63627874  0.13784204  1
  O  O298  1  0.87116412  0.63371632  0.63808771  1
  O  O299  1  0.25451556  0.25893673  0.12109572  1
  O  O300  1  0.25999047  0.25678432  0.62017986  1
  O  O301  1  0.25892686  0.75713180  0.13050402  1
  O  O302  1  0.25534602  0.75552311  0.61994263  1
  O  O303  1  0.75937164  0.26248882  0.12813253  1
  O  O304  1  0.75949954  0.26363637  0.61864437  1
  O  O305  1  0.75419025  0.74443791  0.11401351  1
  O  O306  1  0.76345211  0.74570799  0.62627874  1
  O  O307  1  0.23576075  0.26002532  0.37216078  1
  O  O308  1  0.24692288  0.25064615  0.88348896  1
  O  O309  1  0.24028922  0.75764022  0.37892673  1
  O  O310  1  0.23985309  0.73996697  0.86866416  1
  O  O311  1  0.74920835  0.23529967  0.37184636  1
  O  O312  1  0.75040202  0.26164449  0.87423954  1
  O  O313  1  0.73710620  0.74610390  0.37008787  1
  O  O314  1  0.74206625  0.74392310  0.88012500  1
  O  O315  1  0.00680350  0.11711875  -0.00073828  1
  O  O316  1  0.00823744  0.11430537  0.50776805  1
  O  O317  1  0.00750175  0.62876464  0.00902652  1
  O  O318  1  0.00731413  0.61228449  0.49518812  1
  O  O319  1  0.49384659  0.12381136  0.01762158  1
  O  O320  1  0.50834337  0.12021014  0.50187387  1
  O  O321  1  0.49577218  0.63033459  0.00960451  1
  O  O322  1  0.49781677  0.61304517  0.50492850  1
  O  O323  1  0.50143678  0.38492712  0.48986016  1
  O  O324  1  0.50174004  0.36653747  0.98858900  1
  O  O325  1  0.48905190  0.88171002  0.49831969  1
  O  O326  1  0.48815819  0.87191038  0.98716909  1
  O  O327  1  0.99360388  0.38344809  0.49354875  1
  O  O328  1  1.00903341  0.37806589  0.98553651  1
  O  O329  1  0.99561152  0.88715053  0.50259958  1
  O  O330  1  0.99393809  0.88006976  0.99133744  1
  O  O331  1  0.50132440  0.49694054  0.38138287  1
  O  O332  1  0.48814849  0.49145733  0.87933258  1
  O  O333  1  0.49045016  0.99903170  0.38036075  1
  O  O334  1  0.50150318  0.97970039  0.86670747  1
  O  O335  1  1.00289156  0.48916213  0.38297726  1
  O  O336  1  1.00244459  0.48839611  0.87786722  1
  O  O337  1  0.99001249  1.00734792  0.38126658  1
  O  O338  1  1.00886775  0.98792560  0.88245960  1
  O  O339  1  0.01052556  0.00072787  0.11449143  1
  O  O340  1  0.00778970  0.00233683  0.61768051  1
  O  O341  1  0.00727469  0.50799212  0.12734256  1
  O  O342  1  0.01023030  0.49383703  0.61422850  1
  O  O343  1  0.49036829  0.01639896  0.12968768  1
  O  O344  1  0.50954087  0.00751780  0.61919331  1
  O  O345  1  0.49553515  0.51638721  0.12484518  1
  O  O346  1  0.50745600  0.50340348  0.61810206  1
  O  O347  1  0.25261526  0.38543225  0.23525888  1
  O  O348  1  0.24351876  0.37982440  0.73943135  1
  O  O349  1  0.24063534  0.88078761  0.23672323  1
  O  O350  1  0.25634733  0.88119621  0.73476804  1
  O  O351  1  0.73653076  0.37253844  0.24794508  1
  O  O352  1  0.74560837  0.38202061  0.73926056  1
  O  O353  1  0.74899602  0.89470530  0.24280532  1
  O  O354  1  0.74460409  0.88145775  0.75032581  1
  O  O355  1  0.26171687  0.12621803  0.24454901  1
  O  O356  1  0.25637473  0.11566302  0.74896006  1
  O  O357  1  0.25859208  0.61603354  0.24342310  1
  O  O358  1  0.25375220  0.61883105  0.76008478  1
  O  O359  1  0.75441132  0.11830003  0.25147203  1
  O  O360  1  0.76324169  0.10838026  0.75500295  1
  O  O361  1  0.75940095  0.62898867  0.25731728  1
  O  O362  1  0.75474275  0.61660614  0.75937354  1
  O  O363  1  0.37981115  0.11951225  0.36567235  1
  O  O364  1  0.37344701  0.12190370  0.86526775  1
  O  O365  1  0.37936455  0.62521183  0.36185628  1
  O  O366  1  0.36658144  0.61935264  0.87226822  1
  O  O367  1  0.86910741  0.12010826  0.36260789  1
  O  O368  1  0.88630928  0.13188463  0.85704531  1
  O  O369  1  0.86055349  0.63395574  0.36284721  1
  O  O370  1  0.86456467  0.62669536  0.86250062  1
  O  O371  1  0.13180336  0.38791267  0.12384365  1
  O  O372  1  0.13067483  0.38094475  0.62891918  1
  O  O373  1  0.12881963  0.88074734  0.12836422  1
  O  O374  1  0.13462143  0.88192818  0.61633796  1
  O  O375  1  0.63626772  0.37836194  0.13507891  1
  O  O376  1  0.63291478  0.37852682  0.62893736  1
  O  O377  1  0.61246192  0.88240435  0.11748449  1
  O  O378  1  0.61959723  0.88241362  0.63426632  1
  O  O379  1  0.11134371  0.24304969  0.25512117  1
  O  O380  1  0.13197009  0.26205588  0.74624803  1
  O  O381  1  0.11229184  0.75974076  0.24962459  1
  O  O382  1  0.11607504  0.74194411  0.75943668  1
  O  O383  1  0.61379817  0.25977654  0.25024764  1
  O  O384  1  0.61481981  0.25624598  0.74670652  1
  O  O385  1  0.61619012  0.75418905  0.25272208  1
  O  O386  1  0.62118740  0.75331136  0.75180669  1
  O  O387  1  0.38350103  0.24675356  0.24530961  1
  O  O388  1  0.36607807  0.23713881  0.74000825  1
  O  O389  1  0.37903809  0.74554936  0.24273464  1
  O  O390  1  0.37952386  0.74315833  0.74274811  1
  O  O391  1  0.88399977  0.24299009  0.24480451  1
  O  O392  1  0.87434867  0.24020298  0.73174493  1
  O  O393  1  0.87668365  0.75175335  0.24293738  1
  O  O394  1  0.88010306  0.74386110  0.74220740  1
  O  O395  1  0.38415369  0.49599973  0.49752038  1
  O  O396  1  0.36587374  0.50089297  0.98951160  1
  O  O397  1  0.37973943  0.99553915  0.49515459  1
  O  O398  1  0.37807256  0.98740973  0.99722966  1
  O  O399  1  0.88334943  0.49189771  0.50616377  1
  O  O400  1  0.88153411  0.51167187  0.99497751  1
  O  O401  1  0.88281375  1.00115748  0.48786168  1
  O  O402  1  0.88760343  0.99194829  1.00441049  1
  O  O403  1  0.11836981  0.00532229  0.00414900  1
  O  O404  1  0.11976436  0.00417225  0.50479667  1
  O  O405  1  0.12288398  0.51404611  0.01197308  1
  O  O406  1  0.11921879  0.50908608  0.50552813  1
  O  O407  1  0.61847251  0.01124760  -0.01074939  1
  O  O408  1  0.62332443  0.00254483  0.50438395  1
  O  O409  1  0.63158106  0.50186691  -0.00203806  1
  O  O410  1  0.61776952  0.49434267  0.51145579  1
  O  O411  1  0.36934735  0.36367215  0.12820435  1
  O  O412  1  0.36791301  0.36770870  0.62606301  1
  O  O413  1  0.36593045  0.86955666  0.11889228  1
  O  O414  1  0.37083126  0.86931329  0.61713973  1
  O  O415  1  0.86184029  0.37029087  0.13794914  1
  O  O416  1  0.87196870  0.36813686  0.61593337  1
  O  O417  1  0.87926319  0.86359262  0.11288307  1
  O  O418  1  0.87720524  0.85986642  0.62783870  1
  O  O419  1  0.12010404  0.13443545  0.38242626  1
  O  O420  1  0.12722020  0.12596726  0.88442988  1
  O  O421  1  0.12210423  0.62270192  0.38668786  1
  O  O422  1  0.13005141  0.63111631  0.88323893  1
  O  O423  1  0.63141448  0.12306183  0.38318351  1
  O  O424  1  0.61719238  0.12765762  0.85464431  1
  O  O425  1  0.63689900  0.63824592  0.36518154  1
  O  O426  1  0.63103772  0.63732996  0.87184361  1
