# generated using pymatgen
data_V85Zn86O256
_symmetry_space_group_name_H-M   'P 1'
_cell_length_a   16.94992645
_cell_length_b   16.94480982
_cell_length_c   16.94529189
_cell_angle_alpha   89.93349490
_cell_angle_beta   90.03254010
_cell_angle_gamma   90.01515112
_symmetry_Int_Tables_number   1
_chemical_formula_structural   V85Zn86O256
_chemical_formula_sum   'V85 Zn86 O256'
_cell_volume   4866.90863141
_cell_formula_units_Z   1
loop_
 _symmetry_equiv_pos_site_id
 _symmetry_equiv_pos_as_xyz
  1  'x, y, z'
loop_
 _atom_site_type_symbol
 _atom_site_label
 _atom_site_symmetry_multiplicity
 _atom_site_fract_x
 _atom_site_fract_y
 _atom_site_fract_z
 _atom_site_occupancy
  V  V0  1  0.12079360  0.00609951  0.13824962  1
  V  V1  1  0.49690145  0.36596555  0.86822000  1
  V  V2  1  0.00039435  0.11825158  0.62504665  1
  V  V3  1  0.50349857  0.61926005  0.62649834  1
  V  V4  1  -0.00510297  0.49222011  0.00320875  1
  V  V5  1  -0.00054022  0.37690272  0.37941115  1
  V  V6  1  0.87456763  0.13965466  0.74475782  1
  V  V7  1  0.11994076  0.61718806  0.49923608  1
  V  V8  1  0.12600669  0.11299643  0.50240885  1
  V  V9  1  0.37498232  0.62658800  0.24880943  1
  V  V10  1  0.37654038  0.12892334  0.74834370  1
  V  V11  1  -0.00130767  0.61862367  0.62314214  1
  V  V12  1  0.49870056  0.87536973  0.87451253  1
  V  V13  1  0.24885316  0.75412021  0.00013759  1
  V  V14  1  0.87238601  0.62594904  0.75133684  1
  V  V15  1  0.62930183  0.24688217  0.86893464  1
  V  V16  1  0.25133710  0.25286248  0.00038379  1
  V  V17  1  0.12040442  0.75743311  0.87467571  1
  V  V18  1  0.62347995  0.87531060  0.74839201  1
  V  V19  1  0.74835011  0.87013933  0.61863027  1
  V  V20  1  0.74080400  0.49944931  0.74200614  1
  V  V21  1  0.24740469  0.00252433  0.74546424  1
  V  V22  1  0.62461258  0.62267826  0.00749647  1
  V  V23  1  0.62068560  0.25291059  0.36465966  1
  V  V24  1  0.00148595  0.75358158  0.24212888  1
  V  V25  1  0.49638178  0.49950331  0.00062924  1
  V  V26  1  0.37218784  0.62435991  0.75008292  1
  V  V27  1  0.62556000  0.12883962  0.49792916  1
  V  V28  1  0.50642146  0.49875901  0.50200318  1
  V  V29  1  0.75411926  0.00068146  0.74916911  1
  V  V30  1  0.37087279  0.87751672  0.00022483  1
  V  V31  1  0.75688548  0.25632111  0.50266577  1
  V  V32  1  0.87521269  0.62865577  0.24224996  1
  V  V33  1  0.87895375  0.50071825  0.38018942  1
  V  V34  1  0.24873405  0.49894743  0.24924763  1
  V  V35  1  0.62746051  0.12385003  0.01021648  1
  V  V36  1  0.24701636  0.62523542  0.37517339  1
  V  V37  1  0.62336467  0.00065508  0.62386734  1
  V  V38  1  0.62441212  -0.01712783  0.13397658  1
  V  V39  1  0.74918069  0.62711773  0.87642580  1
  V  V40  1  -0.00570336  0.24679049  0.23961278  1
  V  V41  1  -0.00404338  0.75291472  0.75265361  1
  V  V42  1  0.25401128  0.37153471  0.12222558  1
  V  V43  1  0.25107338  0.12106623  0.36277494  1
  V  V44  1  0.43557448  0.31907761  0.05842561  1
  V  V45  1  0.76053351  0.12474905  0.37499752  1
  V  V46  1  0.11703193  0.88257385  0.74743482  1
  V  V47  1  0.00876543  0.26051011  0.74466039  1
  V  V48  1  0.12452455  0.75874724  0.37017868  1
  V  V49  1  0.24829671  0.62487187  0.87504661  1
  V  V50  1  0.75048158  -0.01193327  0.25276149  1
  V  V51  1  0.24953237  0.24823754  0.49793038  1
  V  V52  1  0.24679554  0.88345056  0.14040259  1
  V  V53  1  0.12517967  0.37366592  0.24936568  1
  V  V54  1  0.12084505  0.62525045  0.00092080  1
  V  V55  1  0.37580631  0.49988128  0.37927127  1
  V  V56  1  0.62395293  0.74949196  0.87669509  1
  V  V57  1  0.12320009  0.24744514  0.37287311  1
  V  V58  1  0.62586727  0.75493794  0.37262855  1
  V  V59  1  0.37854423  0.25176958  0.62540202  1
  V  V60  1  0.00701876  0.00063676  -0.01817502  1
  V  V61  1  0.23783639  0.49571106  0.75061047  1
  V  V62  1  0.63068688  0.62788548  0.50404677  1
  V  V63  1  0.87173010  0.49029096  0.87904977  1
  V  V64  1  0.24832399  0.74887575  0.49951603  1
  V  V65  1  0.75361412  0.12449289  0.88382575  1
  V  V66  1  0.87169575  0.74969063  0.61514417  1
  V  V67  1  0.62070534  0.37551978  0.74081758  1
  V  V68  1  0.50115809  0.12761879  0.62836488  1
  V  V69  1  0.49937910  0.62210432  0.12636536  1
  V  V70  1  0.75344429  0.62841500  0.38113155  1
  V  V71  1  0.24240206  0.87725827  0.62332023  1
  V  V72  1  0.50134663  0.00318901  0.00591776  1
  V  V73  1  0.62139476  0.38727458  0.23873463  1
  V  V74  1  0.37565707  0.00094631  0.87383466  1
  V  V75  1  0.37323812  0.74960775  0.62436436  1
  V  V76  1  0.49798975  0.74968334  0.75006585  1
  V  V77  1  0.39288980  0.13973729  0.24079541  1
  V  V78  1  0.75437628  0.75753268  0.01596579  1
  V  V79  1  0.37173734  0.49319488  0.87639285  1
  V  V80  1  -0.00871781  0.88091783  0.37284526  1
  V  V81  1  0.24056386  0.37316913  0.62705764  1
  V  V82  1  0.37774132  0.87826404  0.49828922  1
  V  V83  1  0.87583757  0.11980089  0.23716356  1
  V  V84  1  0.37533249  0.00027567  0.36241591  1
  Zn  Zn85  1  0.37444124  0.75395934  0.12626692  1
  Zn  Zn86  1  0.50651575  0.88024874  0.36458782  1
  Zn  Zn87  1  0.88443914  -0.01005345  0.86776950  1
  Zn  Zn88  1  0.50708480  0.75587567  0.24444199  1
  Zn  Zn89  1  -0.00615178  -0.00111451  0.49946394  1
  Zn  Zn90  1  0.37541454  0.37597731  0.50122684  1
  Zn  Zn91  1  0.88592153  0.87011383  0.00089095  1
  Zn  Zn92  1  0.49749848  0.36935382  0.37477123  1
  Zn  Zn93  1  0.00101892  0.36986783  0.87702058  1
  Zn  Zn94  1  0.12875788  0.25480584  0.87183901  1
  Zn  Zn95  1  0.49873076  0.00109317  0.49786411  1
  Zn  Zn96  1  0.12722558  0.12680718  0.00130059  1
  Zn  Zn97  1  0.88389870  0.37627678  0.50624822  1
  Zn  Zn98  1  -0.00285703  0.63047273  0.12074607  1
  Zn  Zn99  1  0.74762296  0.50141775  0.24520475  1
  Zn  Zn100  1  0.75377423  0.36816358  0.63184649  1
  Zn  Zn101  1  0.77397229  0.39170630  0.11032809  1
  Zn  Zn102  1  0.86177742  0.24991688  0.10486782  1
  Zn  Zn103  1  0.25159922  0.12898592  0.87674287  1
  Zn  Zn104  1  0.12328822  0.50079176  0.12474427  1
  Zn  Zn105  1  0.86873811  0.88172030  0.49587654  1
  Zn  Zn106  1  0.11542117  0.49172540  0.62456047  1
  Zn  Zn107  1  0.19030647  0.18871754  0.18492279  1
  Zn  Zn108  1  0.18643459  0.18510819  0.68379027  1
  Zn  Zn109  1  0.18819309  0.69180965  0.18571132  1
  Zn  Zn110  1  0.18334165  0.68743078  0.68721687  1
  Zn  Zn111  1  0.69275100  0.18756289  0.18834839  1
  Zn  Zn112  1  0.68856538  0.19096145  0.68904167  1
  Zn  Zn113  1  0.68765853  0.68270247  0.19078482  1
  Zn  Zn114  1  0.68618192  0.68782796  0.68751977  1
  Zn  Zn115  1  0.31443115  0.31181583  0.31149356  1
  Zn  Zn116  1  0.30961643  0.31308680  0.81007804  1
  Zn  Zn117  1  0.31821114  0.81185791  0.31386321  1
  Zn  Zn118  1  0.30878538  0.81406888  0.81225526  1
  Zn  Zn119  1  0.81205247  0.31444974  0.30094057  1
  Zn  Zn120  1  0.80960258  0.30916887  0.93773816  1
  Zn  Zn121  1  0.81301642  0.80596135  0.31342002  1
  Zn  Zn122  1  0.81335406  0.81501867  0.81550557  1
  Zn  Zn123  1  0.18660624  0.43535261  0.43856882  1
  Zn  Zn124  1  0.18109186  0.43105203  0.93856771  1
  Zn  Zn125  1  0.18945361  0.93820065  0.43116561  1
  Zn  Zn126  1  0.18568615  0.94112268  0.93495017  1
  Zn  Zn127  1  0.68860915  0.43967148  0.43200741  1
  Zn  Zn128  1  0.67891588  0.44181100  0.93161877  1
  Zn  Zn129  1  0.68918703  0.94124824  0.43680899  1
  Zn  Zn130  1  0.68909951  0.93823601  0.93642532  1
  Zn  Zn131  1  0.31242506  0.06592034  0.06892821  1
  Zn  Zn132  1  0.31150345  0.06118024  0.55968105  1
  Zn  Zn133  1  0.31104621  0.56096116  0.06212751  1
  Zn  Zn134  1  0.31052880  0.56072427  0.56392741  1
  Zn  Zn135  1  0.83077532  0.02023348  0.07855421  1
  Zn  Zn136  1  0.81465685  0.06245604  0.56198387  1
  Zn  Zn137  1  0.81047218  0.56391032  0.06370135  1
  Zn  Zn138  1  0.81456936  0.55731959  0.56289781  1
  Zn  Zn139  1  0.44415232  0.44012169  0.19520362  1
  Zn  Zn140  1  0.43182674  0.43776168  0.68873187  1
  Zn  Zn141  1  0.43784014  0.93968357  0.18663927  1
  Zn  Zn142  1  0.43551838  0.93951187  0.68418793  1
  Zn  Zn143  1  0.93785610  0.43964744  0.18937800  1
  Zn  Zn144  1  0.92706206  0.43717702  0.68920724  1
  Zn  Zn145  1  0.93914016  0.93250761  0.18323265  1
  Zn  Zn146  1  0.93513337  0.93988803  0.68152445  1
  Zn  Zn147  1  0.06115168  0.06294613  0.30886979  1
  Zn  Zn148  1  0.06855682  0.07287366  0.81315900  1
  Zn  Zn149  1  0.06034124  0.56315602  0.31140712  1
  Zn  Zn150  1  0.05782425  0.56346691  0.81640714  1
  Zn  Zn151  1  0.56378623  0.06252873  0.31314783  1
  Zn  Zn152  1  0.56314552  0.06286429  0.81181130  1
  Zn  Zn153  1  0.56214690  0.56543542  0.31663609  1
  Zn  Zn154  1  0.56059017  0.56037402  0.81590411  1
  Zn  Zn155  1  0.43734222  0.18442424  0.43634864  1
  Zn  Zn156  1  0.44134441  0.18360117  0.93610530  1
  Zn  Zn157  1  0.44035650  0.68772278  0.43772685  1
  Zn  Zn158  1  0.43417056  0.68705299  0.93851896  1
  Zn  Zn159  1  0.93917424  0.18680289  0.43516449  1
  Zn  Zn160  1  0.94359570  0.17656775  0.93457261  1
  Zn  Zn161  1  0.94049863  0.69029286  0.43540491  1
  Zn  Zn162  1  0.93429939  0.68910829  0.93780146  1
  Zn  Zn163  1  0.06477819  0.31175968  0.06224342  1
  Zn  Zn164  1  0.06050655  0.30231195  0.56295665  1
  Zn  Zn165  1  0.06633656  0.82215428  0.06405858  1
  Zn  Zn166  1  0.05979164  0.80879269  0.55958784  1
  Zn  Zn167  1  0.65437646  0.30367018  0.05980599  1
  Zn  Zn168  1  0.56250725  0.31114072  0.55830701  1
  Zn  Zn169  1  0.56040358  0.80978335  0.06217530  1
  Zn  Zn170  1  0.56216093  0.80807600  0.55905818  1
  O  O171  1  0.13941334  0.10932738  0.12120939  1
  O  O172  1  0.11731146  0.12767393  0.61274150  1
  O  O173  1  0.12730458  0.62617781  0.11007943  1
  O  O174  1  0.11544151  0.62572204  0.61683325  1
  O  O175  1  0.62915783  0.12121719  0.11184789  1
  O  O176  1  0.61774754  0.12432246  0.61987991  1
  O  O177  1  0.61608235  0.62718735  0.11489973  1
  O  O178  1  0.61388667  0.63009337  0.61871014  1
  O  O179  1  0.37489239  0.38892789  0.37686063  1
  O  O180  1  0.38054277  0.38671232  0.86601066  1
  O  O181  1  0.37210913  0.88391465  0.38416249  1
  O  O182  1  0.37908586  0.88089349  0.87961782  1
  O  O183  1  0.88285971  0.38356306  0.37229654  1
  O  O184  1  0.87513866  0.38843162  0.87516264  1
  O  O185  1  0.88796216  0.86675290  0.37841328  1
  O  O186  1  0.86734592  0.87906614  0.88597009  1
  O  O187  1  0.26053406  0.01027762  0.37817099  1
  O  O188  1  0.25857087  -0.00013554  0.86116022  1
  O  O189  1  0.25626154  0.50607392  0.37182710  1
  O  O190  1  0.25430199  0.50299149  0.87014470  1
  O  O191  1  0.73798143  0.01163920  0.36107370  1
  O  O192  1  0.74365611  0.00616978  0.85913308  1
  O  O193  1  0.75754849  0.51248083  0.37141940  1
  O  O194  1  0.75308247  0.51236419  0.87179760  1
  O  O195  1  0.25063888  0.48892097  0.12974293  1
  O  O196  1  0.24786695  0.49090065  0.63323600  1
  O  O197  1  0.24480782  0.98738793  0.12037762  1
  O  O198  1  0.25540643  0.99061967  0.63547942  1
  O  O199  1  0.75034309  0.50073752  0.13079382  1
  O  O200  1  0.74649148  0.50680763  0.64027091  1
  O  O201  1  0.73283598  1.00437210  0.14134144  1
  O  O202  1  0.74228979  0.99508095  0.63430952  1
  O  O203  1  0.00853362  0.36636580  0.25985469  1
  O  O204  1  -0.00444164  0.36184721  0.74500073  1
  O  O205  1  -0.00548679  0.86661913  0.26078467  1
  O  O206  1  0.01026829  0.86851171  0.73933725  1
  O  O207  1  0.51465988  0.37931992  0.25958601  1
  O  O208  1  0.50582004  0.38364255  0.75827930  1
  O  O209  1  0.48594628  0.86614225  0.25401730  1
  O  O210  1  0.50247171  0.86992477  0.75270116  1
  O  O211  1  0.49173035  0.12733298  0.25370477  1
  O  O212  1  0.49235558  0.12049353  0.73676513  1
  O  O213  1  0.49256593  0.62482471  0.24204815  1
  O  O214  1  0.49456503  0.62808792  0.74421965  1
  O  O215  1  0.98295493  0.12928743  0.25614308  1
  O  O216  1  0.99044546  0.12783908  0.74343169  1
  O  O217  1  0.99098019  0.63340022  0.24877391  1
  O  O218  1  0.99456400  0.63430222  0.74422263  1
  O  O219  1  0.37628944  0.25462573  0.00124570  1
  O  O220  1  0.36391992  0.24842215  0.50547589  1
  O  O221  1  0.36710776  0.75829822  0.00026137  1
  O  O222  1  0.36783728  0.75647327  0.50272230  1
  O  O223  1  0.88332009  0.24795693  -0.00604489  1
  O  O224  1  0.85925803  0.25225227  0.49078103  1
  O  O225  1  0.85896845  0.74876478  0.00094039  1
  O  O226  1  0.87839826  0.75293943  0.51300707  1
  O  O227  1  0.13600112  0.24139883  0.49359357  1
  O  O228  1  0.13849175  0.24793701  1.00223565  1
  O  O229  1  0.13101849  0.74055814  0.49233151  1
  O  O230  1  0.12709503  0.74818473  0.99110553  1
  O  O231  1  0.63294302  0.24134165  0.49388774  1
  O  O232  1  0.61618864  0.23296134  0.98108910  1
  O  O233  1  0.62145040  0.73514050  0.49169595  1
  O  O234  1  0.62909649  0.74104034  0.99459544  1
  O  O235  1  0.49986009  0.26608592  0.10522567  1
  O  O236  1  0.48595527  0.24415622  0.61890297  1
  O  O237  1  0.49507456  0.73646516  0.12370022  1
  O  O238  1  0.49250395  0.74003796  0.62939448  1
  O  O239  1  1.00321729  0.25001876  0.13881634  1
  O  O240  1  1.00004164  0.23737082  0.63613644  1
  O  O241  1  1.00891853  0.75253965  0.13785141  1
  O  O242  1  0.99261078  0.74249460  0.63464601  1
  O  O243  1  0.00659258  0.25362566  0.36564479  1
  O  O244  1  -0.00123618  0.24736098  0.85364929  1
  O  O245  1  0.00815401  0.75771637  0.36693285  1
  O  O246  1  0.00578401  0.74613788  0.86153583  1
  O  O247  1  0.51679635  0.24977528  0.38481169  1
  O  O248  1  0.50180790  0.26178230  0.87390707  1
  O  O249  1  0.51503256  0.74711666  0.37452767  1
  O  O250  1  0.50333400  0.75519237  0.87070403  1
  O  O251  1  0.24408217  0.13086122  0.49411919  1
  O  O252  1  0.25877312  0.14167239  1.00059854  1
  O  O253  1  0.24386330  0.63043582  0.49537990  1
  O  O254  1  0.24300479  0.63187147  0.99355745  1
  O  O255  1  0.74378072  0.13264069  0.49416686  1
  O  O256  1  0.74170345  0.10929164  0.98490275  1
  O  O257  1  0.74096091  0.61917728  0.49584963  1
  O  O258  1  0.74050453  0.63295189  0.99449564  1
  O  O259  1  0.25250275  0.36801060  0.00967005  1
  O  O260  1  0.25299613  0.36542324  0.50577188  1
  O  O261  1  0.25677659  0.87095793  -0.00196165  1
  O  O262  1  0.25609325  0.87131006  0.50665059  1
  O  O263  1  0.73417439  0.37163565  -0.00044530  1
  O  O264  1  0.74558570  0.36164078  0.49809816  1
  O  O265  1  0.73991537  0.85639401  -0.00267211  1
  O  O266  1  0.74682986  0.87865668  0.51501368  1
  O  O267  1  0.13243951  0.49465099  0.24911234  1
  O  O268  1  0.13531325  0.50877810  0.74818017  1
  O  O269  1  0.12810415  1.00391546  0.23826725  1
  O  O270  1  0.13371729  0.99130663  0.75265357  1
  O  O271  1  0.62492123  0.49105160  0.25705967  1
  O  O272  1  0.63022079  0.49146866  0.75773940  1
  O  O273  1  0.63073399  1.00119480  0.24059134  1
  O  O274  1  0.62941349  0.99494069  0.74182438  1
  O  O275  1  0.37786430  0.01086834  0.26031963  1
  O  O276  1  0.36916720  0.00928023  0.75157530  1
  O  O277  1  0.37079075  0.50962842  0.25890876  1
  O  O278  1  0.36304619  0.50698843  0.75672431  1
  O  O279  1  0.86257023  0.01084857  0.24904511  1
  O  O280  1  0.86549308  0.00363966  0.74901576  1
  O  O281  1  0.87838462  0.51632505  0.26181458  1
  O  O282  1  0.86383303  0.50878186  0.76064842  1
  O  O283  1  0.12124109  0.36842901  0.36880965  1
  O  O284  1  0.11591891  0.36907243  0.87546272  1
  O  O285  1  0.12072344  0.86266527  0.37748469  1
  O  O286  1  0.13094814  0.86350213  0.86265276  1
  O  O287  1  0.62298797  0.36131617  0.37574060  1
  O  O288  1  0.61439588  0.36636855  0.86651481  1
  O  O289  1  0.62492199  0.85817832  0.38725136  1
  O  O290  1  0.61805181  0.87034597  0.86788520  1
  O  O291  1  0.37597452  0.12441836  0.14235223  1
  O  O292  1  0.38111064  0.13008627  0.62829841  1
  O  O293  1  0.37851147  0.62641812  0.13334696  1
  O  O294  1  0.37927858  0.63094100  0.63065723  1
  O  O295  1  0.86734261  0.12387002  0.13607687  1
  O  O296  1  0.88119029  0.12263261  0.63786713  1
  O  O297  1  0.87605870  0.62738519  0.13981634  1
  O  O298  1  0.87938852  0.63080991  0.63054360  1
  O  O299  1  0.25240405  0.26425299  0.12089845  1
  O  O300  1  0.25747684  0.25446162  0.61844988  1
  O  O301  1  0.24972377  0.76425350  0.11779182  1
  O  O302  1  0.25462484  0.75625067  0.62093483  1
  O  O303  1  0.74325266  0.26110322  0.12092110  1
  O  O304  1  0.74560393  0.24839952  0.60635649  1
  O  O305  1  0.74367053  0.74688536  0.11399566  1
  O  O306  1  0.75890983  0.75837320  0.63265258  1
  O  O307  1  0.24548652  0.24449181  0.38260924  1
  O  O308  1  0.25459034  0.25220502  0.88667222  1
  O  O309  1  0.24326418  0.74469075  0.37859359  1
  O  O310  1  0.24089984  0.74442392  0.87848475  1
  O  O311  1  0.73977147  0.24286409  0.38184850  1
  O  O312  1  0.74085645  0.23729862  0.87347669  1
  O  O313  1  0.74090343  0.73825492  0.37638858  1
  O  O314  1  0.74167872  0.73843881  0.87560639  1
  O  O315  1  0.01147706  0.10778106  -0.00329142  1
  O  O316  1  0.00871112  0.12659457  0.50562313  1
  O  O317  1  0.00693543  0.62268256  0.00048616  1
  O  O318  1  0.00839387  0.63197966  0.50981847  1
  O  O319  1  0.51140745  0.10851074  -0.01020863  1
  O  O320  1  0.50800633  0.12545130  0.51059851  1
  O  O321  1  0.50464079  0.62048495  0.00499216  1
  O  O322  1  0.50549354  0.61932065  0.50917857  1
  O  O323  1  0.49651128  0.38505291  0.49865254  1
  O  O324  1  0.49119946  0.38406977  0.99099390  1
  O  O325  1  0.48564048  0.87420023  0.50107012  1
  O  O326  1  0.49249165  0.88310526  0.99576156  1
  O  O327  1  1.00185170  0.36360457  0.48432505  1
  O  O328  1  1.00227198  0.38935129  1.00241014  1
  O  O329  1  1.00114972  0.87341737  0.48559121  1
  O  O330  1  1.00405977  0.89307928  1.00248829  1
  O  O331  1  0.49036696  0.50345529  0.38585814  1
  O  O332  1  0.48954992  0.49259528  0.88032774  1
  O  O333  1  0.49254735  0.99827131  0.37985919  1
  O  O334  1  0.49557544  0.99266042  0.87991768  1
  O  O335  1  0.99426683  0.48884818  0.37076498  1
  O  O336  1  0.98770107  0.50103370  0.88206196  1
  O  O337  1  1.00719407  0.98255586  0.37315654  1
  O  O338  1  1.00898119  0.99696775  0.87775912  1
  O  O339  1  0.01928185  -0.00234149  0.12412494  1
  O  O340  1  0.00210998  0.01326373  0.62367992  1
  O  O341  1  0.00183915  0.50693621  0.11797460  1
  O  O342  1  -0.00082687  0.51484582  0.63477470  1
  O  O343  1  0.51278517  -0.00109807  0.11785057  1
  O  O344  1  0.50558343  0.00840433  0.62094540  1
  O  O345  1  0.49100623  0.51268780  0.11508799  1
  O  O346  1  0.49151559  0.51199698  0.61884313  1
  O  O347  1  0.24619377  0.37988275  0.24498369  1
  O  O348  1  0.25231690  0.38408010  0.73954462  1
  O  O349  1  0.25648174  0.87369780  0.23837342  1
  O  O350  1  0.24194768  0.88047584  0.74135455  1
  O  O351  1  0.72990995  0.38016678  0.25757216  1
  O  O352  1  0.73461844  0.38743095  0.74998158  1
  O  O353  1  0.75497217  0.88937819  0.26001416  1
  O  O354  1  0.74250804  0.88221793  0.74144189  1
  O  O355  1  0.25835383  0.13242391  0.26175671  1
  O  O356  1  0.25786343  0.11665041  0.74617364  1
  O  O357  1  0.25544322  0.61898641  0.25382715  1
  O  O358  1  0.25253251  0.61995975  0.75571738  1
  O  O359  1  0.75899618  0.12058101  0.25740528  1
  O  O360  1  0.75954040  0.12001383  0.75068386  1
  O  O361  1  0.76233660  0.62639737  0.25945600  1
  O  O362  1  0.74972313  0.62112372  0.75938509  1
  O  O363  1  0.36883613  0.11775266  0.37170695  1
  O  O364  1  0.37555442  0.11928113  0.86360430  1
  O  O365  1  0.36963229  0.61727610  0.37062724  1
  O  O366  1  0.36875378  0.61697142  0.86867373  1
  O  O367  1  0.86281540  0.12509315  0.37173002  1
  O  O368  1  0.86756366  0.11806140  0.85866712  1
  O  O369  1  0.87017471  0.62263522  0.37222087  1
  O  O370  1  0.86426809  0.62289879  0.86901695  1
  O  O371  1  0.13543406  0.37789995  0.13308862  1
  O  O372  1  0.13603828  0.37433525  0.61675854  1
  O  O373  1  0.14083152  0.88659611  0.12495261  1
  O  O374  1  0.13581092  0.86745741  0.63039623  1
  O  O375  1  0.61597585  0.37971958  0.13941034  1
  O  O376  1  0.62396141  0.36830392  0.63763243  1
  O  O377  1  0.62233292  0.88461985  0.12537155  1
  O  O378  1  0.62817429  0.87690015  0.62906284  1
  O  O379  1  0.11932822  0.25274791  0.25478484  1
  O  O380  1  0.11222985  0.24731693  0.74584221  1
  O  O381  1  0.11661419  0.74131947  0.26105716  1
  O  O382  1  0.11655301  0.75684888  0.75534295  1
  O  O383  1  0.62669349  0.25504326  0.26253960  1
  O  O384  1  0.62560100  0.25768912  0.75972712  1
  O  O385  1  0.62505170  0.74184778  0.26781951  1
  O  O386  1  0.61600628  0.75446434  0.75606594  1
  O  O387  1  0.38020329  0.23930628  0.25693716  1
  O  O388  1  0.36867409  0.23690487  0.74039437  1
  O  O389  1  0.37351254  0.73428603  0.25022831  1
  O  O390  1  0.37887321  0.74506948  0.74610540  1
  O  O391  1  0.88046454  0.23308471  0.25488979  1
  O  O392  1  0.88113760  0.23731192  0.74710763  1
  O  O393  1  0.88525130  0.73685027  0.25663499  1
  O  O394  1  0.88084243  0.74555776  0.74452299  1
  O  O395  1  0.38303149  0.50191260  0.49408912  1
  O  O396  1  0.38385800  0.50901819  0.98763330  1
  O  O397  1  0.37582968  0.99204057  0.49335353  1
  O  O398  1  0.38277396  0.99779224  0.99590343  1
  O  O399  1  0.87452066  0.49989121  0.48468240  1
  O  O400  1  0.88358928  0.51224348  0.99059784  1
  O  O401  1  0.87905724  0.99488244  0.50357772  1
  O  O402  1  0.89731656  1.01079463  0.98564443  1
  O  O403  1  0.12043194  0.00156556  0.00446889  1
  O  O404  1  0.12342861  0.01067484  0.49448524  1
  O  O405  1  0.11584270  0.51099531  -0.00073131  1
  O  O406  1  0.12985973  0.51325525  0.50279075  1
  O  O407  1  0.62019984  0.00140104  0.01030567  1
  O  O408  1  0.62518503  0.01396094  0.50499237  1
  O  O409  1  0.60597236  0.51054524  -0.00883569  1
  O  O410  1  0.61327711  0.50950122  0.49445160  1
  O  O411  1  0.37505197  0.37563312  0.12536157  1
  O  O412  1  0.36548678  0.36599246  0.62382104  1
  O  O413  1  0.36353516  0.87730758  0.11602339  1
  O  O414  1  0.36476140  0.86974027  0.61898209  1
  O  O415  1  0.87342693  0.35821805  0.15129496  1
  O  O416  1  0.86391553  0.38560881  0.61610187  1
  O  O417  1  0.86290458  0.91064348  0.10616051  1
  O  O418  1  0.86520644  0.86544168  0.62618799  1
  O  O419  1  0.13272105  0.12891801  0.37877584  1
  O  O420  1  0.13572979  0.13506889  0.87857252  1
  O  O421  1  0.12823914  0.63096126  0.38211766  1
  O  O422  1  0.12766271  0.63549770  0.88323981  1
  O  O423  1  0.63114447  0.13445938  0.38132491  1
  O  O424  1  0.63319869  0.12980250  0.87340877  1
  O  O425  1  0.63344906  0.63048086  0.38420801  1
  O  O426  1  0.62848329  0.62928131  0.88497000  1
