# generated using pymatgen
data_V85Zn86O256
_symmetry_space_group_name_H-M   'P 1'
_cell_length_a   16.90874038
_cell_length_b   16.90908419
_cell_length_c   16.91099518
_cell_angle_alpha   89.97670326
_cell_angle_beta   89.98607295
_cell_angle_gamma   89.96168065
_symmetry_Int_Tables_number   1
_chemical_formula_structural   V85Zn86O256
_chemical_formula_sum   'V85 Zn86 O256'
_cell_volume   4835.04324265
_cell_formula_units_Z   1
loop_
 _symmetry_equiv_pos_site_id
 _symmetry_equiv_pos_as_xyz
  1  'x, y, z'
loop_
 _atom_site_type_symbol
 _atom_site_label
 _atom_site_symmetry_multiplicity
 _atom_site_fract_x
 _atom_site_fract_y
 _atom_site_fract_z
 _atom_site_occupancy
  V  V0  1  0.25173388  0.48261772  0.25001586  1
  V  V1  1  0.75577342  0.12473175  0.86821602  1
  V  V2  1  0.87424633  0.49456996  0.37758545  1
  V  V3  1  0.49442723  0.88190289  0.36675721  1
  V  V4  1  0.25508692  0.25302891  0.01500939  1
  V  V5  1  0.62526382  0.24881073  0.87346081  1
  V  V6  1  0.24933521  -0.01470774  0.24301479  1
  V  V7  1  0.49915449  0.87829722  0.87180648  1
  V  V8  1  0.12933375  0.75257415  0.87374746  1
  V  V9  1  0.75586407  0.37462136  0.61552767  1
  V  V10  1  0.88113220  0.12108775  0.25353854  1
  V  V11  1  0.00213701  0.37415227  0.37090011  1
  V  V12  1  0.49544554  0.24981837  0.24542803  1
  V  V13  1  0.62125111  0.50012930  0.11966250  1
  V  V14  1  0.49715115  0.62842405  0.14250144  1
  V  V15  1  0.25842287  0.11612930  0.37517866  1
  V  V16  1  0.61466317  0.62630718  0.50064995  1
  V  V17  1  0.37477967  0.86961915  0.00315238  1
  V  V18  1  0.75131538  0.12475969  0.37537300  1
  V  V19  1  0.24804768  0.00400698  0.74502250  1
  V  V20  1  0.12542022  0.49914231  0.62559542  1
  V  V21  1  0.75304328  -0.00327890  0.25285748  1
  V  V22  1  0.00023888  0.75619526  0.24661620  1
  V  V23  1  0.62094165  0.75260831  0.37011901  1
  V  V24  1  0.37876736  0.75104669  0.13245401  1
  V  V25  1  0.12431574  0.12095006  0.50714551  1
  V  V26  1  0.86387477  0.87711862  0.49636369  1
  V  V27  1  0.38113580  0.50534524  0.37636727  1
  V  V28  1  0.75112039  0.24987141  0.00228639  1
  V  V29  1  0.25622957  0.24973145  0.50422703  1
  V  V30  1  -0.00370763  0.00161112  0.00868197  1
  V  V31  1  0.49298191  0.12805338  0.62243436  1
  V  V32  1  0.50211740  0.37481351  0.37576617  1
  V  V33  1  0.87817914  0.24368405  0.61595980  1
  V  V34  1  0.00646327  0.24794823  0.24715050  1
  V  V35  1  -0.00136660  0.62588618  0.12538818  1
  V  V36  1  0.50049189  0.75147089  0.74513061  1
  V  V37  1  0.12365078  0.25985444  0.87732997  1
  V  V38  1  0.37449233  0.62593363  0.74995657  1
  V  V39  1  0.62977771  0.87512270  0.74148581  1
  V  V40  1  0.19222911  0.80977269  0.05776116  1
  V  V41  1  0.12600582  0.62359200  0.49908935  1
  V  V42  1  0.12866371  0.25385775  0.37541589  1
  V  V43  1  0.25369235  0.37098203  0.62859734  1
  V  V44  1  0.49032983  0.25059555  0.74724443  1
  V  V45  1  0.75573787  0.00036493  0.74158344  1
  V  V46  1  0.87539553  0.62864791  0.24710685  1
  V  V47  1  0.24941387  0.12831993  0.87635387  1
  V  V48  1  0.87552981  0.62563349  0.74670232  1
  V  V49  1  0.12897647  0.48766326  0.13229829  1
  V  V50  1  0.87424975  -0.00265817  0.87648157  1
  V  V51  1  -0.00265661  0.49253281  0.50067685  1
  V  V52  1  0.62501910  0.12243273  -0.00073871  1
  V  V53  1  0.88042170  0.49231208  0.87435738  1
  V  V54  1  0.25054490  0.62832700  0.88197513  1
  V  V55  1  0.38349148  0.37823178  0.50599646  1
  V  V56  1  0.37868426  0.50129110  0.88454636  1
  V  V57  1  0.25100535  0.74904920  0.50098317  1
  V  V58  1  0.75001562  0.49973408  0.24747027  1
  V  V59  1  -0.00899649  0.25108035  0.75911953  1
  V  V60  1  0.25356632  0.62525908  0.36515489  1
  V  V61  1  0.74968866  0.49861287  0.74805135  1
  V  V62  1  0.62405626  0.00057941  0.61997572  1
  V  V63  1  0.37597864  0.37412156  0.01348066  1
  V  V64  1  0.12454760  0.75494015  0.36993796  1
  V  V65  1  0.74966276  0.62524344  0.87598145  1
  V  V66  1  0.75222844  0.63257315  0.38444039  1
  V  V67  1  0.00321572  0.49181485  -0.00133285  1
  V  V68  1  0.49103544  0.12568845  0.12252874  1
  V  V69  1  0.00243474  -0.00342942  0.51089594  1
  V  V70  1  0.12150861  0.88387748  0.74766701  1
  V  V71  1  0.86250391  0.75415633  0.61807233  1
  V  V72  1  0.12950486  0.62445537  0.00389990  1
  V  V73  1  0.12115004  0.12524060  0.01068123  1
  V  V74  1  0.61427801  0.62582705  -0.00281411  1
  V  V75  1  0.24917734  0.50025589  0.75242887  1
  V  V76  1  0.24697655  0.87919544  0.62287773  1
  V  V77  1  0.50073923  0.37793992  0.88138046  1
  V  V78  1  0.62554684  0.37512012  0.74786576  1
  V  V79  1  0.00037981  0.88338960  0.37492368  1
  V  V80  1  0.62676836  -0.00391284  0.12359178  1
  V  V81  1  -0.00093225  0.62695509  0.62258911  1
  V  V82  1  -0.00519469  0.87388421  0.87997312  1
  V  V83  1  0.76106204  0.75245138  0.00640958  1
  V  V84  1  0.87986325  0.24578079  0.12582123  1
  Zn  Zn85  1  0.62465656  0.86774156  0.24245241  1
  Zn  Zn86  1  0.62508038  0.37328998  0.24797653  1
  Zn  Zn87  1  0.12432335  -0.01105011  0.12959413  1
  Zn  Zn88  1  0.12013459  0.37763960  0.75522089  1
  Zn  Zn89  1  0.49773566  -0.00180064  -0.00012787  1
  Zn  Zn90  1  0.62586783  0.12846203  0.49872999  1
  Zn  Zn91  1  0.00012841  0.11861886  0.63568447  1
  Zn  Zn92  1  0.49475608  0.61816950  0.62071015  1
  Zn  Zn93  1  0.49070513  0.00296457  0.49421403  1
  Zn  Zn94  1  0.87932050  0.37107157  -0.00174218  1
  Zn  Zn95  1  0.62592958  0.24909547  0.37446799  1
  Zn  Zn96  1  0.37178744  0.12799002  0.74843938  1
  Zn  Zn97  1  0.62794147  0.75224619  0.87415653  1
  Zn  Zn98  1  0.75064423  0.37471653  0.12446626  1
  Zn  Zn99  1  -0.00058622  0.75216936  0.74655751  1
  Zn  Zn100  1  0.76426305  0.87380853  0.12274627  1
  Zn  Zn101  1  0.75306702  0.25418513  0.49327513  1
  Zn  Zn102  1  0.37508028  0.87938022  0.49520397  1
  Zn  Zn103  1  0.37314692  0.00045422  0.87496032  1
  Zn  Zn104  1  0.37518749  0.75081914  0.62280802  1
  Zn  Zn105  1  0.37511275  0.12118962  0.24991367  1
  Zn  Zn106  1  0.61801407  0.49402945  0.61436938  1
  Zn  Zn107  1  0.18744074  0.18459064  0.19130203  1
  Zn  Zn108  1  0.18224458  0.19138144  0.68958470  1
  Zn  Zn109  1  0.18518251  0.68261597  0.19036395  1
  Zn  Zn110  1  0.18651010  0.68994214  0.68940226  1
  Zn  Zn111  1  0.68422224  0.18555568  0.18949759  1
  Zn  Zn112  1  0.68670793  0.18729138  0.68450856  1
  Zn  Zn113  1  0.68768088  0.68520826  0.18707423  1
  Zn  Zn114  1  0.68672072  0.68742402  0.68553470  1
  Zn  Zn115  1  0.31940898  0.30846585  0.31631798  1
  Zn  Zn116  1  0.31135282  0.31493027  0.81866473  1
  Zn  Zn117  1  0.31352678  0.81139396  0.31017057  1
  Zn  Zn118  1  0.31176766  0.81495184  0.81190902  1
  Zn  Zn119  1  0.81536757  0.31230903  0.31095215  1
  Zn  Zn120  1  0.81338509  0.31190132  0.80884645  1
  Zn  Zn121  1  0.81270943  0.81300778  0.31242316  1
  Zn  Zn122  1  0.81242375  0.81228208  0.80957513  1
  Zn  Zn123  1  0.19005292  0.43569107  0.43779910  1
  Zn  Zn124  1  0.19233329  0.43755750  0.94381827  1
  Zn  Zn125  1  0.18583780  0.93839468  0.43665132  1
  Zn  Zn126  1  0.18314868  0.94443874  0.93293543  1
  Zn  Zn127  1  0.68668438  0.44139208  0.43681003  1
  Zn  Zn128  1  0.68867013  0.43817474  0.93849499  1
  Zn  Zn129  1  0.68432779  0.93956260  0.43288362  1
  Zn  Zn130  1  0.68738274  0.93446840  0.93435046  1
  Zn  Zn131  1  0.31005278  0.05597328  0.06184918  1
  Zn  Zn132  1  0.31416346  0.06104003  0.56288301  1
  Zn  Zn133  1  0.31467048  0.56189748  0.06820403  1
  Zn  Zn134  1  0.31363629  0.56125961  0.56190069  1
  Zn  Zn135  1  0.81412588  0.06356024  0.06434289  1
  Zn  Zn136  1  0.81607529  0.06101852  0.56016847  1
  Zn  Zn137  1  0.81309526  0.56374891  0.06053510  1
  Zn  Zn138  1  0.81095726  0.56130702  0.56118349  1
  Zn  Zn139  1  0.44018166  0.44510397  0.19316020  1
  Zn  Zn140  1  0.43840765  0.43984424  0.69023989  1
  Zn  Zn141  1  0.43498549  0.93941053  0.18986929  1
  Zn  Zn142  1  0.43325165  0.94086018  0.68333672  1
  Zn  Zn143  1  0.93775264  0.43436216  0.18703258  1
  Zn  Zn144  1  0.93697954  0.43139611  0.68773599  1
  Zn  Zn145  1  0.93692076  0.93867015  0.18995709  1
  Zn  Zn146  1  0.93367752  0.93466215  0.68819559  1
  Zn  Zn147  1  0.06963286  0.06429156  0.31454975  1
  Zn  Zn148  1  0.06184205  0.06787021  0.81822217  1
  Zn  Zn149  1  0.06626254  0.56298410  0.31145321  1
  Zn  Zn150  1  0.06211398  0.56428991  0.81284768  1
  Zn  Zn151  1  0.56612055  0.06215444  0.30819570  1
  Zn  Zn152  1  0.56466589  0.06226565  0.80860973  1
  Zn  Zn153  1  0.56547218  0.56154669  0.31397176  1
  Zn  Zn154  1  0.56129618  0.56082974  0.80917076  1
  Zn  Zn155  1  0.43909093  0.19075578  0.44033124  1
  Zn  Zn156  1  0.43588244  0.18884842  0.93826881  1
  Zn  Zn157  1  0.43740024  0.69439423  0.43123288  1
  Zn  Zn158  1  0.43631502  0.69547795  0.93684711  1
  Zn  Zn159  1  0.93821919  0.18312873  0.43663714  1
  Zn  Zn160  1  0.93674321  0.18357708  0.93618943  1
  Zn  Zn161  1  0.93746870  0.68831783  0.43716321  1
  Zn  Zn162  1  0.94136715  0.67907654  0.93291886  1
  Zn  Zn163  1  0.06477493  0.31101161  0.06496201  1
  Zn  Zn164  1  0.06392233  0.31134494  0.56409964  1
  Zn  Zn165  1  -0.05822746  0.80939620  0.05952975  1
  Zn  Zn166  1  0.06313212  0.81231945  0.56226016  1
  Zn  Zn167  1  0.56303158  0.31190220  0.06365205  1
  Zn  Zn168  1  0.56742462  0.30805195  0.56192988  1
  Zn  Zn169  1  0.56396287  0.80959089  0.05991870  1
  Zn  Zn170  1  0.56379179  0.81114112  0.55558221  1
  O  O171  1  0.12674616  0.12462350  0.11279117  1
  O  O172  1  0.12142837  0.13245534  0.61095445  1
  O  O173  1  0.11807511  0.61534667  0.12160353  1
  O  O174  1  0.11955724  0.61923723  0.62080379  1
  O  O175  1  0.62062381  0.11410990  0.11745386  1
  O  O176  1  0.61578319  0.11711833  0.62453691  1
  O  O177  1  0.61436020  0.62250114  0.11834428  1
  O  O178  1  0.62602410  0.62882068  0.60821184  1
  O  O179  1  0.38526009  0.38172151  0.38371701  1
  O  O180  1  0.38205373  0.38351817  0.88266477  1
  O  O181  1  0.39141046  0.86727792  0.37284682  1
  O  O182  1  0.38229262  0.87489842  0.88036013  1
  O  O183  1  0.88294184  0.38722820  0.37228581  1
  O  O184  1  0.87086682  0.38852943  0.87551725  1
  O  O185  1  0.88575849  0.86540829  0.38916105  1
  O  O186  1  0.88297971  0.88222561  0.87045560  1
  O  O187  1  0.24373034  0.01255144  0.36835548  1
  O  O188  1  0.24799765  0.01057850  0.86440942  1
  O  O189  1  0.25507782  0.50511792  0.36791273  1
  O  O190  1  0.25652572  0.50559911  0.87048568  1
  O  O191  1  0.74663257  0.00631513  0.36037181  1
  O  O192  1  0.75628641  0.00505163  0.86874792  1
  O  O193  1  0.75810183  0.50663977  0.36806824  1
  O  O194  1  0.75765642  0.50926410  0.87191991  1
  O  O195  1  0.24591711  0.50307871  0.14237900  1
  O  O196  1  0.24506254  0.49488160  0.63242759  1
  O  O197  1  0.24459011  0.99927343  0.13727773  1
  O  O198  1  0.24647616  0.99580590  0.63664462  1
  O  O199  1  0.74405785  0.50105094  0.13163521  1
  O  O200  1  0.74916438  0.49207009  0.63071311  1
  O  O201  1  0.74451128  0.99944076  0.13180053  1
  O  O202  1  0.74433227  1.00669425  0.63492607  1
  O  O203  1  -0.00231948  0.36657993  0.26307945  1
  O  O204  1  0.00357479  0.35827099  0.74716930  1
  O  O205  1  -0.00499912  0.86334593  0.25907631  1
  O  O206  1  0.00620814  0.87471524  0.75877550  1
  O  O207  1  0.50027620  0.36905279  0.25804295  1
  O  O208  1  0.50468339  0.36804099  0.76013032  1
  O  O209  1  0.50568265  0.87823176  0.26140099  1
  O  O210  1  0.50346906  0.86981624  0.75233846  1
  O  O211  1  0.49822942  0.12964462  0.24098708  1
  O  O212  1  0.49903397  0.13466271  0.74557201  1
  O  O213  1  0.50100852  0.62696485  0.24107164  1
  O  O214  1  0.49095735  0.63495973  0.75306473  1
  O  O215  1  0.99241063  0.13369111  0.25977942  1
  O  O216  1  1.00905331  0.14320928  0.74940768  1
  O  O217  1  0.99451214  0.62967253  0.24505202  1
  O  O218  1  0.99245163  0.62623151  0.74149804  1
  O  O219  1  0.36244184  0.25741065  -0.00261025  1
  O  O220  1  0.36281045  0.25995773  0.49745323  1
  O  O221  1  0.37269190  0.76144227  0.00608092  1
  O  O222  1  0.36161227  0.75333693  0.50020038  1
  O  O223  1  0.87041404  0.24853573  0.00698359  1
  O  O224  1  0.87605209  0.24999751  0.51189051  1
  O  O225  1  0.86625855  0.74144111  -0.00268021  1
  O  O226  1  0.87894867  0.75944064  0.50951736  1
  O  O227  1  0.13493388  0.24590434  0.49450157  1
  O  O228  1  0.13336258  0.24590506  0.99667568  1
  O  O229  1  0.13374848  0.74446070  0.49320272  1
  O  O230  1  0.13297089  0.74735268  0.99448714  1
  O  O231  1  0.63436858  0.24685055  0.49416398  1
  O  O232  1  0.63314535  0.24397251  0.99372519  1
  O  O233  1  0.62709240  0.73888379  0.48533286  1
  O  O234  1  0.63603309  0.74068028  0.99452681  1
  O  O235  1  0.50730770  0.23807303  0.13156415  1
  O  O236  1  0.50596947  0.24265402  0.63649953  1
  O  O237  1  0.49519101  0.73727943  0.12155620  1
  O  O238  1  0.49753117  0.74728645  0.63463886  1
  O  O239  1  0.99484418  0.25278484  0.13596677  1
  O  O240  1  0.98962349  0.24989837  0.63127346  1
  O  O241  1  1.00179633  0.73564100  0.13218212  1
  O  O242  1  0.99445196  0.74078911  0.62393227  1
  O  O243  1  0.00698645  0.25695187  0.37256348  1
  O  O244  1  0.00472330  0.24913863  0.86726966  1
  O  O245  1  0.00739335  0.75472029  0.36861774  1
  O  O246  1  0.00997823  0.75579473  0.87481809  1
  O  O247  1  0.50157339  0.25884008  0.36844267  1
  O  O248  1  0.50662204  0.25523496  0.86858695  1
  O  O249  1  0.51357816  0.75847627  0.37257805  1
  O  O250  1  0.50204857  0.76133258  0.86259213  1
  O  O251  1  0.24521268  0.13083445  0.49419183  1
  O  O252  1  0.24557194  0.13357917  0.99523625  1
  O  O253  1  0.24488282  0.63131019  0.49356079  1
  O  O254  1  0.24336673  0.61768456  0.99353542  1
  O  O255  1  0.75350842  0.12254017  0.48535967  1
  O  O256  1  0.74643818  0.13430472  0.99287800  1
  O  O257  1  0.74540826  0.62380044  0.48763201  1
  O  O258  1  0.74471803  0.63246323  0.99277145  1
  O  O259  1  0.25944764  0.36184074  0.00045211  1
  O  O260  1  0.25826339  0.36832432  0.50718901  1
  O  O261  1  0.25175824  0.87338697  -0.00126018  1
  O  O262  1  0.24641346  0.86777168  0.50703146  1
  O  O263  1  0.75251545  0.36050045  -0.00137961  1
  O  O264  1  0.74873078  0.37773417  0.51145419  1
  O  O265  1  0.74759195  0.85526708  -0.00390281  1
  O  O266  1  0.76512777  0.88043085  0.49315307  1
  O  O267  1  0.13953891  0.50141992  0.24663110  1
  O  O268  1  0.12993536  0.49838341  0.74560559  1
  O  O269  1  0.14055914  1.00711122  0.24646271  1
  O  O270  1  0.12835377  0.99040926  0.75709473  1
  O  O271  1  0.63430337  0.50237174  0.23962201  1
  O  O272  1  0.63453094  0.49133394  0.75182388  1
  O  O273  1  0.63552115  0.99810214  0.23838407  1
  O  O274  1  0.63234164  0.99358816  0.73976892  1
  O  O275  1  0.35699986  0.00363251  0.24781154  1
  O  O276  1  0.36245214  0.00403187  0.75358751  1
  O  O277  1  0.36165608  0.49820753  0.26108786  1
  O  O278  1  0.36987170  0.50912979  0.76247103  1
  O  O279  1  0.86919351  0.01263779  0.24619189  1
  O  O280  1  0.86598030  -0.00335577  0.75923313  1
  O  O281  1  0.87145938  0.50817634  0.25670931  1
  O  O282  1  0.87121249  0.50474029  0.75485187  1
  O  O283  1  0.11947014  0.36223910  0.38025615  1
  O  O284  1  0.12945079  0.36383014  0.87918497  1
  O  O285  1  0.11736082  0.86142812  0.38031934  1
  O  O286  1  0.11835712  0.86941234  0.86858679  1
  O  O287  1  0.61157301  0.38041664  0.37390522  1
  O  O288  1  0.61862587  0.37135677  0.87117712  1
  O  O289  1  0.62078791  0.86368650  0.37238617  1
  O  O290  1  0.61689494  0.87467886  0.86160525  1
  O  O291  1  0.38823859  0.12004520  0.12084413  1
  O  O292  1  0.38813695  0.12517397  0.62882664  1
  O  O293  1  0.39176161  0.63123841  0.11735414  1
  O  O294  1  0.37275943  0.62716107  0.63768828  1
  O  O295  1  0.87215825  0.13765097  0.13507490  1
  O  O296  1  0.87783118  0.13899875  0.62394961  1
  O  O297  1  0.88516332  0.61671665  0.13521917  1
  O  O298  1  0.87853430  0.63461236  0.62514462  1
  O  O299  1  0.24815985  0.24668353  0.11366867  1
  O  O300  1  0.24611199  0.25953685  0.61852390  1
  O  O301  1  0.25086369  0.74965707  0.11997239  1
  O  O302  1  0.24853742  0.75619015  0.61609601  1
  O  O303  1  0.75546512  0.24948026  0.11742353  1
  O  O304  1  0.76289742  0.25483592  0.62504787  1
  O  O305  1  0.74884760  0.74703792  0.10946380  1
  O  O306  1  0.76381452  0.74841714  0.62441211  1
  O  O307  1  0.24482378  0.24414887  0.38289036  1
  O  O308  1  0.24217389  0.24509959  0.88241680  1
  O  O309  1  0.24430524  0.74411372  0.37911990  1
  O  O310  1  0.23748150  0.74582148  0.86962199  1
  O  O311  1  0.75024313  0.24170949  0.37265373  1
  O  O312  1  0.74731017  0.24236322  0.87867174  1
  O  O313  1  0.74075787  0.74129591  0.37086599  1
  O  O314  1  0.75246474  0.73794673  0.87994955  1
  O  O315  1  0.00914294  0.11489602  -0.00675233  1
  O  O316  1  0.00675687  0.11337615  0.49895607  1
  O  O317  1  0.00709139  0.61612103  0.00862741  1
  O  O318  1  0.00613493  0.61455585  0.50210070  1
  O  O319  1  0.50668142  0.12316190  0.00397749  1
  O  O320  1  0.50374769  0.12422483  0.50780236  1
  O  O321  1  0.51257132  0.62983988  -0.00454259  1
  O  O322  1  0.51079561  0.63136603  0.49894799  1
  O  O323  1  0.48920928  0.36819758  0.49629046  1
  O  O324  1  0.49389267  0.36669630  0.98764374  1
  O  O325  1  0.49938868  0.87503653  0.48502717  1
  O  O326  1  0.49392931  0.87380677  0.98871330  1
  O  O327  1  1.00549565  0.38592710  0.49099487  1
  O  O328  1  0.99972079  0.38778825  1.00412634  1
  O  O329  1  0.99706637  0.88073237  0.49440495  1
  O  O330  1  1.00019147  0.88242883  0.98619746  1
  O  O331  1  0.48891029  0.49440223  0.36845169  1
  O  O332  1  0.49120551  0.49043324  0.87145440  1
  O  O333  1  0.51023463  0.98576826  0.37573712  1
  O  O334  1  0.49858839  0.98908232  0.87275256  1
  O  O335  1  0.99642633  0.49376765  0.37887527  1
  O  O336  1  0.99271967  0.50692350  0.88559167  1
  O  O337  1  1.00732921  0.98650303  0.38007086  1
  O  O338  1  0.99206849  0.99418010  0.87952808  1
  O  O339  1  0.00440370  -0.00524654  0.11189626  1
  O  O340  1  -0.00254596  0.00006724  0.61620913  1
  O  O341  1  0.00737216  0.50648522  0.12261492  1
  O  O342  1  0.00215679  0.50355760  0.61725517  1
  O  O343  1  0.50898661  0.00695124  0.12321455  1
  O  O344  1  0.50849474  0.00953735  0.62728088  1
  O  O345  1  0.50847951  0.51547229  0.12827738  1
  O  O346  1  0.50667929  0.50601682  0.63419751  1
  O  O347  1  0.25201115  0.38385696  0.25813561  1
  O  O348  1  0.24904226  0.38029056  0.74428189  1
  O  O349  1  0.24591389  0.88680174  0.25678872  1
  O  O350  1  0.24161994  0.88403275  0.74567407  1
  O  O351  1  0.74969371  0.38875267  0.24978135  1
  O  O352  1  0.74484037  0.37900315  0.74263994  1
  O  O353  1  0.74912295  0.88269067  0.24616662  1
  O  O354  1  0.74042673  0.88494322  0.75375788  1
  O  O355  1  0.25285253  0.12661489  0.26596712  1
  O  O356  1  0.24698788  0.12127637  0.75641541  1
  O  O357  1  0.24811264  0.61836772  0.26304095  1
  O  O358  1  0.25698871  0.62235001  0.75860713  1
  O  O359  1  0.75806446  0.11921689  0.25560562  1
  O  O360  1  0.74267680  0.11514481  0.75888866  1
  O  O361  1  0.75762533  0.61652659  0.25539429  1
  O  O362  1  0.75415395  0.62011883  0.75628120  1
  O  O363  1  0.36027843  0.12884570  0.37914636  1
  O  O364  1  0.36086477  0.12517579  0.87485945  1
  O  O365  1  0.36668536  0.61680468  0.38267920  1
  O  O366  1  0.37143120  0.62074451  0.87128657  1
  O  O367  1  0.86714797  0.12947565  0.36345234  1
  O  O368  1  0.86269955  0.11769018  0.87432459  1
  O  O369  1  0.86966532  0.61735016  0.36981159  1
  O  O370  1  0.86893866  0.61568772  0.86717100  1
  O  O371  1  0.12386608  0.38821740  0.12543891  1
  O  O372  1  0.13662076  0.38200447  0.62486837  1
  O  O373  1  0.13139728  0.86592930  0.11093709  1
  O  O374  1  0.13529103  0.87024352  0.63496689  1
  O  O375  1  0.62736694  0.38618718  0.12525906  1
  O  O376  1  0.63542614  0.37437260  0.63179881  1
  O  O377  1  0.62752982  0.88522486  0.12165409  1
  O  O378  1  0.61878464  0.88131299  0.63421522  1
  O  O379  1  0.11503681  0.24384551  0.25938933  1
  O  O380  1  0.11728979  0.25511570  0.76156769  1
  O  O381  1  0.11361239  0.74324435  0.25879629  1
  O  O382  1  0.12213682  0.76086943  0.75775323  1
  O  O383  1  0.61388676  0.25324111  0.25273157  1
  O  O384  1  0.62002325  0.25754448  0.75627147  1
  O  O385  1  0.63001755  0.74789466  0.26384746  1
  O  O386  1  0.61888837  0.75679468  0.75005927  1
  O  O387  1  0.38956232  0.24451978  0.25264332  1
  O  O388  1  0.38689240  0.25146972  0.75624923  1
  O  O389  1  0.36654646  0.74855115  0.23188857  1
  O  O390  1  0.38090985  0.74167024  0.75046105  1
  O  O391  1  0.88523209  0.24405103  0.24431483  1
  O  O392  1  0.88657249  0.24948264  0.74447201  1
  O  O393  1  0.88396834  0.73592651  0.25728531  1
  O  O394  1  0.87707897  0.74601174  0.73667162  1
  O  O395  1  0.36819969  0.48941647  0.48938266  1
  O  O396  1  0.36889665  0.49260990  0.99021305  1
  O  O397  1  0.37693459  0.99255930  0.50380584  1
  O  O398  1  0.37495195  0.98513565  0.99632325  1
  O  O399  1  0.88531214  0.50573249  0.49006971  1
  O  O400  1  0.88389116  0.49969869  0.99221221  1
  O  O401  1  0.88427899  0.98455402  0.50330373  1
  O  O402  1  0.88126207  1.00704949  0.98703841  1
  O  O403  1  0.11637896  0.00882328  0.00087978  1
  O  O404  1  0.11639324  0.00843924  0.49731913  1
  O  O405  1  0.12053957  0.50388470  0.00803090  1
  O  O406  1  0.11961719  0.50424040  0.50449736  1
  O  O407  1  0.62549610  0.00466821  0.00440711  1
  O  O408  1  0.62582080  -0.00011253  0.51299202  1
  O  O409  1  0.63310202  0.51019876  0.01138541  1
  O  O410  1  0.62825725  0.52049301  0.49656650  1
  O  O411  1  0.38645992  0.38363556  0.11204284  1
  O  O412  1  0.36348495  0.38202885  0.61962420  1
  O  O413  1  0.38341728  0.86525094  0.11598926  1
  O  O414  1  0.35776673  0.87058551  0.62846907  1
  O  O415  1  0.87201096  0.36189765  0.12340751  1
  O  O416  1  0.86621875  0.36117101  0.62989747  1
  O  O417  1  0.87727494  0.87232970  0.12392127  1
  O  O418  1  0.87943399  0.86217448  0.61320105  1
  O  O419  1  0.13406502  0.13592294  0.38647287  1
  O  O420  1  0.13443350  0.13546400  0.88513139  1
  O  O421  1  0.13168904  0.63332944  0.38080131  1
  O  O422  1  0.12836500  0.63436006  0.88184105  1
  O  O423  1  0.63700430  0.12500899  0.37457577  1
  O  O424  1  0.63413922  0.12738591  0.88033029  1
  O  O425  1  0.63074425  0.63211165  0.38049087  1
  O  O426  1  0.63354742  0.62416273  0.87997974  1
