# generated using pymatgen
data_V85Zn86O256
_symmetry_space_group_name_H-M   'P 1'
_cell_length_a   16.94661732
_cell_length_b   16.96899196
_cell_length_c   16.93710757
_cell_angle_alpha   90.00344686
_cell_angle_beta   89.98725835
_cell_angle_gamma   90.03537828
_symmetry_Int_Tables_number   1
_chemical_formula_structural   V85Zn86O256
_chemical_formula_sum   'V85 Zn86 O256'
_cell_volume   4870.55237831
_cell_formula_units_Z   1
loop_
 _symmetry_equiv_pos_site_id
 _symmetry_equiv_pos_as_xyz
  1  'x, y, z'
loop_
 _atom_site_type_symbol
 _atom_site_label
 _atom_site_symmetry_multiplicity
 _atom_site_fract_x
 _atom_site_fract_y
 _atom_site_fract_z
 _atom_site_occupancy
  V  V0  1  0.11761109  0.25210904  0.86104317  1
  V  V1  1  0.24779623  0.62303878  0.87456441  1
  V  V2  1  0.75411810  0.37406150  0.62241220  1
  V  V3  1  0.50369268  0.49597802  0.49288182  1
  V  V4  1  0.00139118  0.62805951  0.11297126  1
  V  V5  1  0.62548136  0.12514317  0.00238630  1
  V  V6  1  -0.02087380  0.75054075  0.74757185  1
  V  V7  1  0.37746591  0.75320947  0.12681314  1
  V  V8  1  0.37616766  0.63169985  0.25786434  1
  V  V9  1  0.74824000  0.01175983  0.25252787  1
  V  V10  1  0.38620441  0.24263000  0.62186995  1
  V  V11  1  0.61226926  0.86719360  0.25554380  1
  V  V12  1  -0.00094233  -0.00336831  0.00232398  1
  V  V13  1  0.50470148  0.37779623  0.87049061  1
  V  V14  1  0.62872519  0.49773638  0.62213250  1
  V  V15  1  0.49854339  0.12448573  0.12450737  1
  V  V16  1  0.13400979  0.48957622  0.64123618  1
  V  V17  1  0.37494063  0.12677433  0.25453810  1
  V  V18  1  0.12315118  -0.00050519  0.12793797  1
  V  V19  1  0.31896399  0.44722684  0.81863970  1
  V  V20  1  0.12811982  0.74913073  0.86009535  1
  V  V21  1  0.24912287  0.37834386  0.12689623  1
  V  V22  1  0.63049772  0.24887482  0.87282983  1
  V  V23  1  0.00809746  0.87666514  0.86781372  1
  V  V24  1  0.37563048  0.25290313  0.12727455  1
  V  V25  1  0.87294619  0.24390801  0.12701949  1
  V  V26  1  0.12803666  -0.00897697  0.64109797  1
  V  V27  1  0.49989747  0.50303834  -0.00387591  1
  V  V28  1  0.61755542  0.75230514  0.39215094  1
  V  V29  1  0.50565341  -0.01586502  0.49963119  1
  V  V30  1  0.75942027  0.50427914  0.75135157  1
  V  V31  1  0.62625663  0.64199588  -0.00534865  1
  V  V32  1  0.25021815  0.12551330  0.37887156  1
  V  V33  1  -0.00226309  0.87413348  0.37602073  1
  V  V34  1  0.50025209  0.62912485  0.12785334  1
  V  V35  1  0.87218945  0.86245547  0.49831537  1
  V  V36  1  0.12889002  0.74449041  0.37478941  1
  V  V37  1  0.37404260  0.61918267  0.75544974  1
  V  V38  1  0.12628326  0.50775704  0.11673347  1
  V  V39  1  0.61732096  0.12641643  0.49898238  1
  V  V40  1  0.24742835  0.86867489  0.64144569  1
  V  V41  1  0.37194984  0.37715456  0.50061301  1
  V  V42  1  0.75055270  -0.00513746  0.74513017  1
  V  V43  1  0.00298302  0.50010354  0.50218244  1
  V  V44  1  0.75610140  0.86252695  0.62297070  1
  V  V45  1  -0.00442257  0.24514082  0.24980803  1
  V  V46  1  0.49836617  0.25469690  0.26165664  1
  V  V47  1  0.87576083  0.37405916  0.49929691  1
  V  V48  1  0.12436703  0.87429084  0.25266568  1
  V  V49  1  0.87503099  -0.00500073  0.87509432  1
  V  V50  1  0.24943224  0.74666140  0.49711983  1
  V  V51  1  0.25419189  0.11442456  0.86802153  1
  V  V52  1  0.12929564  0.11660662  0.50222970  1
  V  V53  1  0.63168657  0.37264416  0.74883893  1
  V  V54  1  0.86869921  0.75165529  0.11819961  1
  V  V55  1  0.87199338  0.50401471  0.88251784  1
  V  V56  1  0.63213182  0.24993327  0.37344963  1
  V  V57  1  0.50070225  0.62142900  0.62475373  1
  V  V58  1  0.62059081  0.38187853  0.25290629  1
  V  V59  1  0.74621866  0.87455368  0.12556648  1
  V  V60  1  0.37398060  0.88595240  -0.00909151  1
  V  V61  1  0.24259120  0.74715145  -0.00064854  1
  V  V62  1  0.37557020  0.74359884  0.62327409  1
  V  V63  1  0.87146435  0.01213234  0.37403260  1
  V  V64  1  0.74823988  0.64039745  0.87165096  1
  V  V65  1  0.75361522  0.12502918  0.87512257  1
  V  V66  1  0.24871111  0.24998629  0.00169579  1
  V  V67  1  0.00178385  0.37713661  0.37240062  1
  V  V68  1  -0.00394212  0.74668341  0.24889581  1
  V  V69  1  -0.01083348  0.62784638  0.63161566  1
  V  V70  1  0.62731727  0.00315470  0.62355995  1
  V  V71  1  0.88078601  0.12799957  0.74996065  1
  V  V72  1  0.24867165  0.50663415  0.25402894  1
  V  V73  1  0.24900520  0.00145254  0.25558511  1
  V  V74  1  0.12724075  0.62246728  0.50141609  1
  V  V75  1  0.75578975  0.23908179  0.49679671  1
  V  V76  1  0.37656262  0.37983944  -0.00053218  1
  V  V77  1  0.74949620  0.37839042  0.12423980  1
  V  V78  1  0.38117308  -0.00524152  0.38170970  1
  V  V79  1  0.12632823  0.25017193  0.37521288  1
  V  V80  1  0.37640456  0.49753837  0.37345827  1
  V  V81  1  0.24715093  0.25500818  0.51039554  1
  V  V82  1  0.24952846  0.87488300  0.12753501  1
  V  V83  1  0.00493718  0.12742583  0.62953088  1
  V  V84  1  0.12405513  0.12700422  0.00291552  1
  Zn  Zn85  1  0.87346211  0.50691437  0.37167332  1
  Zn  Zn86  1  0.00795804  0.38218989  0.86716986  1
  Zn  Zn87  1  0.12402596  0.37772013  0.24760361  1
  Zn  Zn88  1  0.37905479  0.86753853  0.49677953  1
  Zn  Zn89  1  0.75367727  0.50365930  0.25201042  1
  Zn  Zn90  1  0.86568808  0.87302230  -0.00281834  1
  Zn  Zn91  1  0.50390415  0.23999519  0.74151848  1
  Zn  Zn92  1  0.75292264  0.25281374  -0.00025523  1
  Zn  Zn93  1  0.86866662  0.62384475  0.24860901  1
  Zn  Zn94  1  0.51453794  0.88194262  0.85179435  1
  Zn  Zn95  1  0.75260139  0.63290460  0.37754814  1
  Zn  Zn96  1  0.41165236  0.06631556  0.79232385  1
  Zn  Zn97  1  0.62118932  0.00006928  0.12792478  1
  Zn  Zn98  1  0.49157137  0.00649105  -0.01992669  1
  Zn  Zn99  1  0.52140596  0.73549752  0.77706668  1
  Zn  Zn100  1  0.63366800  0.63022101  0.50162267  1
  Zn  Zn101  1  0.62570219  0.50433991  0.12395960  1
  Zn  Zn102  1  -0.00623006  0.12184101  0.13078570  1
  Zn  Zn103  1  0.88212156  0.37641455  0.00330137  1
  Zn  Zn104  1  0.88411003  0.25123659  0.62797281  1
  Zn  Zn105  1  0.00164172  0.50201730  -0.00290774  1
  Zn  Zn106  1  -0.00060299  -0.00309351  0.50258846  1
  Zn  Zn107  1  0.18442152  0.18891203  0.18922897  1
  Zn  Zn108  1  0.19083414  0.18452017  0.68513076  1
  Zn  Zn109  1  0.18863548  0.68584122  0.18782148  1
  Zn  Zn110  1  0.18753681  0.67755601  0.68715738  1
  Zn  Zn111  1  0.68680101  0.19114509  0.18810550  1
  Zn  Zn112  1  0.69353110  0.18574646  0.68547928  1
  Zn  Zn113  1  0.68651877  0.69026620  0.19131279  1
  Zn  Zn114  1  0.69721098  0.67990170  0.67790057  1
  Zn  Zn115  1  0.31122689  0.31756163  0.31703348  1
  Zn  Zn116  1  0.30682225  0.27874259  0.80569011  1
  Zn  Zn117  1  0.31315266  0.81244273  0.31441510  1
  Zn  Zn118  1  0.34039617  0.80037304  0.82021323  1
  Zn  Zn119  1  0.81249482  0.31631229  0.31069311  1
  Zn  Zn120  1  0.84922408  0.33256823  0.79517426  1
  Zn  Zn121  1  0.80473807  0.81283622  0.31113250  1
  Zn  Zn122  1  0.68903032  0.81625460  0.80387154  1
  Zn  Zn123  1  0.18902398  0.43976659  0.43709381  1
  Zn  Zn124  1  0.18037740  0.43155331  0.94064595  1
  Zn  Zn125  1  0.19021289  0.93384131  0.44265139  1
  Zn  Zn126  1  0.18762521  0.93483229  0.93747848  1
  Zn  Zn127  1  0.68987410  0.43711565  0.43256959  1
  Zn  Zn128  1  0.68826474  0.44231772  0.93954404  1
  Zn  Zn129  1  0.68975291  0.93239299  0.43556162  1
  Zn  Zn130  1  0.68323317  0.94010126  0.94132977  1
  Zn  Zn131  1  0.30880272  0.06518587  0.06633138  1
  Zn  Zn132  1  0.33763458  0.03897453  0.60354431  1
  Zn  Zn133  1  0.31504834  0.56459123  0.06098051  1
  Zn  Zn134  1  0.30946542  0.55994863  0.56238594  1
  Zn  Zn135  1  0.81056315  0.06165273  0.06483897  1
  Zn  Zn136  1  0.81686174  0.06020448  0.55999376  1
  Zn  Zn137  1  0.80849047  0.56704291  0.06377449  1
  Zn  Zn138  1  0.81290752  0.56335415  0.55436515  1
  Zn  Zn139  1  0.43999463  0.44144771  0.18671693  1
  Zn  Zn140  1  0.44305134  0.42734326  0.67869214  1
  Zn  Zn141  1  0.43445750  0.94160139  0.18722896  1
  Zn  Zn142  1  0.43927273  0.92786279  0.68667923  1
  Zn  Zn143  1  0.93707447  0.43770322  0.18599153  1
  Zn  Zn144  1  0.94636319  0.44015140  0.68932578  1
  Zn  Zn145  1  0.93269146  0.93554444  0.19079570  1
  Zn  Zn146  1  0.93837281  0.93760290  0.68665957  1
  Zn  Zn147  1  0.05869102  0.06267019  0.31564708  1
  Zn  Zn148  1  0.06608456  0.06532679  0.81487772  1
  Zn  Zn149  1  0.06066222  0.56449504  0.31056539  1
  Zn  Zn150  1  0.06179177  0.56712272  0.81371434  1
  Zn  Zn151  1  0.56522948  0.06426918  0.31536069  1
  Zn  Zn152  1  0.57280717  0.05877713  0.81116502  1
  Zn  Zn153  1  0.56221959  0.57058425  0.31399366  1
  Zn  Zn154  1  0.56872736  0.55920594  0.81181939  1
  Zn  Zn155  1  0.43702103  0.18460248  0.44214907  1
  Zn  Zn156  1  0.43939250  0.19187370  0.93465459  1
  Zn  Zn157  1  0.44803211  0.68861794  0.43719422  1
  Zn  Zn158  1  0.43399023  0.69318846  0.94045081  1
  Zn  Zn159  1  0.94359372  0.18689937  0.44065900  1
  Zn  Zn160  1  0.93785559  0.18711635  0.94236212  1
  Zn  Zn161  1  0.93850700  0.68447314  0.43701000  1
  Zn  Zn162  1  0.93295899  0.69158964  0.93280559  1
  Zn  Zn163  1  0.05908883  0.31797353  0.06051404  1
  Zn  Zn164  1  0.06466064  0.31261683  0.56554335  1
  Zn  Zn165  1  0.06241448  0.81228024  0.06028050  1
  Zn  Zn166  1  0.06047919  0.81117016  0.56549153  1
  Zn  Zn167  1  0.56338411  0.31217026  0.06416795  1
  Zn  Zn168  1  0.56419825  0.31647485  0.55555949  1
  Zn  Zn169  1  0.55758948  0.82060983  0.06144805  1
  Zn  Zn170  1  0.57081726  0.81361691  0.64506539  1
  O  O171  1  0.12399716  0.11960575  0.11590456  1
  O  O172  1  0.12486769  0.11420499  0.62026041  1
  O  O173  1  0.11615279  0.61898905  0.12864819  1
  O  O174  1  0.11668454  0.61679304  0.61514674  1
  O  O175  1  0.61614524  0.12790149  0.11883357  1
  O  O176  1  0.63667784  0.11505746  0.61248320  1
  O  O177  1  0.61589194  0.62835727  0.11285172  1
  O  O178  1  0.61734690  0.61399796  0.62206076  1
  O  O179  1  0.37497552  0.38606047  0.38469896  1
  O  O180  1  0.38078125  0.37788074  0.87471736  1
  O  O181  1  0.36828177  0.88996095  0.37875907  1
  O  O182  1  0.35351051  0.88867605  0.89334737  1
  O  O183  1  0.88774686  0.37331280  0.38489760  1
  O  O184  1  0.85578610  0.39759693  0.88921125  1
  O  O185  1  0.87784573  0.87765281  0.38325761  1
  O  O186  1  0.88905837  0.89004645  0.87970161  1
  O  O187  1  0.25511513  0.00674233  0.37415178  1
  O  O188  1  0.24157626  0.01651736  0.87903238  1
  O  O189  1  0.26193414  0.49982863  0.36654655  1
  O  O190  1  0.25379263  0.50201649  0.87982227  1
  O  O191  1  0.76136172  -0.00252549  0.36575627  1
  O  O192  1  0.75997478  0.00257917  0.86790675  1
  O  O193  1  0.75526128  0.50131065  0.37045694  1
  O  O194  1  0.74986166  0.51092233  0.86795135  1
  O  O195  1  0.24520423  0.49914931  0.13032272  1
  O  O196  1  0.23288105  0.50260770  0.62322766  1
  O  O197  1  0.24263267  0.99656608  0.13604072  1
  O  O198  1  0.24102671  0.97491096  0.61648092  1
  O  O199  1  0.74432239  0.49305511  0.12835201  1
  O  O200  1  0.74892888  0.49455134  0.63136002  1
  O  O201  1  0.74878812  0.99728204  0.13960300  1
  O  O202  1  0.74977900  0.99693443  0.63066985  1
  O  O203  1  0.00252925  0.36726121  0.25840469  1
  O  O204  1  -0.04104319  0.36354416  0.76690336  1
  O  O205  1  0.00540256  0.86428199  0.25373630  1
  O  O206  1  -0.00397044  0.86686846  0.75760931  1
  O  O207  1  0.50676028  0.36453772  0.24252474  1
  O  O208  1  0.51101616  0.37011449  0.75590280  1
  O  O209  1  0.51506006  0.88812964  0.24706831  1
  O  O210  1  0.50543597  0.85519476  0.73367788  1
  O  O211  1  0.49454643  0.13429459  0.24503703  1
  O  O212  1  0.50105026  0.13144901  0.76513619  1
  O  O213  1  0.49191958  0.62171539  0.23466452  1
  O  O214  1  0.49437193  0.62217586  0.74472786  1
  O  O215  1  1.00614867  0.14030238  0.24909316  1
  O  O216  1  0.99319948  0.11863635  0.74301416  1
  O  O217  1  1.00166719  0.63891265  0.24151269  1
  O  O218  1  1.00192354  0.63297066  0.73801696  1
  O  O219  1  0.36677698  0.25804365  0.00443544  1
  O  O220  1  0.36835338  0.25962357  0.50040012  1
  O  O221  1  0.36244562  0.76346478  0.00833062  1
  O  O222  1  0.36691907  0.74110111  0.50595123  1
  O  O223  1  0.87303770  0.25388849  0.00947974  1
  O  O224  1  0.87139445  0.25541090  0.50069865  1
  O  O225  1  0.88161256  0.75667566  0.01337233  1
  O  O226  1  0.88183215  0.76439715  0.49792624  1
  O  O227  1  0.13152933  0.24431777  0.49605244  1
  O  O228  1  0.13312042  0.24242734  1.00300505  1
  O  O229  1  0.12832332  0.74185600  0.49420635  1
  O  O230  1  0.13887876  0.75595483  0.99261676  1
  O  O231  1  0.63325255  0.24568219  0.49281303  1
  O  O232  1  0.62483766  0.23967775  0.99382996  1
  O  O233  1  0.61943042  0.75324929  0.49179745  1
  O  O234  1  0.61444085  0.73976135  0.99937214  1
  O  O235  1  0.49384230  0.24205677  0.13239334  1
  O  O236  1  0.49062726  0.25499324  0.61943881  1
  O  O237  1  0.48444542  0.74480628  0.11671761  1
  O  O238  1  0.49013348  0.73041509  0.61594353  1
  O  O239  1  0.99264809  0.25127478  0.13315247  1
  O  O240  1  1.00291661  0.23227294  0.62036369  1
  O  O241  1  0.99628819  0.74635105  0.13088264  1
  O  O242  1  1.00318073  0.73714116  0.63274599  1
  O  O243  1  0.00580655  0.25675974  0.36999617  1
  O  O244  1  0.01716173  0.24250348  0.87957616  1
  O  O245  1  0.00960382  0.75468841  0.36740538  1
  O  O246  1  0.00670434  0.75656412  0.86706621  1
  O  O247  1  0.50482542  0.24633183  0.36542647  1
  O  O248  1  0.51207388  0.26405668  0.87812823  1
  O  O249  1  0.51512609  0.75288747  0.37332918  1
  O  O250  1  0.45855796  0.77230278  0.86377087  1
  O  O251  1  0.23807666  0.13474425  0.49564448  1
  O  O252  1  0.24299544  0.13281409  0.99772708  1
  O  O253  1  0.23995667  0.63437943  0.50348886  1
  O  O254  1  0.26144307  0.63460233  0.98617572  1
  O  O255  1  0.74751354  0.13660571  0.50154351  1
  O  O256  1  0.74213316  0.12583443  0.99409202  1
  O  O257  1  0.74648965  0.62500483  0.49497886  1
  O  O258  1  0.73270204  0.62561461  0.99049591  1
  O  O259  1  0.25557737  0.36753960  0.00561809  1
  O  O260  1  0.25697068  0.36551172  0.49263217  1
  O  O261  1  0.25380396  0.87061187  0.01067381  1
  O  O262  1  0.25091663  0.85579384  0.50280547  1
  O  O263  1  0.74267435  0.37372868  0.01583543  1
  O  O264  1  0.76043191  0.36826727  0.50304513  1
  O  O265  1  0.75024762  0.88983756  0.02016896  1
  O  O266  1  0.76528202  0.87822398  0.50620846  1
  O  O267  1  0.13426506  0.50143513  0.24356381  1
  O  O268  1  0.12180308  0.50243124  0.74058246  1
  O  O269  1  0.12793980  0.99538680  0.24776863  1
  O  O270  1  0.12682199  1.00166089  0.74022491  1
  O  O271  1  0.61699851  0.48830182  0.24998594  1
  O  O272  1  0.63574481  0.49157310  0.74265717  1
  O  O273  1  0.63630146  0.99553818  0.25369347  1
  O  O274  1  0.64266128  1.00222327  0.73896103  1
  O  O275  1  0.36970759  0.00757337  0.26110967  1
  O  O276  1  0.36689766  0.00632969  0.71002330  1
  O  O277  1  0.37062033  0.50657540  0.25589434  1
  O  O278  1  0.37782184  0.49893611  0.74973728  1
  O  O279  1  0.86292389  -0.00435744  0.26250864  1
  O  O280  1  0.86934016  0.00655127  0.75651679  1
  O  O281  1  0.87568510  0.50332970  0.25231635  1
  O  O282  1  0.86271763  0.50321497  0.75776169  1
  O  O283  1  0.11474627  0.37094429  0.37535322  1
  O  O284  1  0.12518634  0.35715007  0.87492710  1
  O  O285  1  0.11840320  0.86797310  0.37173688  1
  O  O286  1  0.11508017  0.86716038  0.87807167  1
  O  O287  1  0.62533344  0.36227810  0.36575726  1
  O  O288  1  0.62255654  0.36870149  0.87066471  1
  O  O289  1  0.62634571  0.86869583  0.36356763  1
  O  O290  1  0.62605855  0.87353559  0.87537042  1
  O  O291  1  0.37879484  0.13368687  0.13291312  1
  O  O292  1  0.37690645  0.14581839  0.60340662  1
  O  O293  1  0.38088484  0.63386910  0.13107688  1
  O  O294  1  0.38123064  0.62101631  0.63313890  1
  O  O295  1  0.87520568  0.13906211  0.12266629  1
  O  O296  1  0.88781791  0.12072380  0.63159265  1
  O  O297  1  0.88197435  0.63550656  0.12623011  1
  O  O298  1  0.89129282  0.61802825  0.62222278  1
  O  O299  1  0.25493566  0.25490533  0.11924559  1
  O  O300  1  0.25720989  0.24922387  0.61400511  1
  O  O301  1  0.25588501  0.75293528  0.11841801  1
  O  O302  1  0.25233031  0.75106393  0.61774353  1
  O  O303  1  0.75706997  0.25760998  0.12586375  1
  O  O304  1  0.75528127  0.25784816  0.61450882  1
  O  O305  1  0.75809060  0.76045695  0.12874962  1
  O  O306  1  0.75574445  0.76412170  0.62403659  1
  O  O307  1  0.24486370  0.24469953  0.38195791  1
  O  O308  1  0.23895431  0.24138716  0.88751630  1
  O  O309  1  0.23662153  0.75093820  0.37935479  1
  O  O310  1  0.24639563  0.74285520  0.87946931  1
  O  O311  1  0.74443560  0.25588682  0.38361930  1
  O  O312  1  0.73793974  0.24654408  0.87790926  1
  O  O313  1  0.72671668  0.75206624  0.36562004  1
  O  O314  1  0.75282850  0.73831914  0.86802063  1
  O  O315  1  0.00834321  0.11334598  0.00317421  1
  O  O316  1  0.01433031  0.12094878  0.50624844  1
  O  O317  1  -0.00092604  0.62906537  0.01056000  1
  O  O318  1  0.00568877  0.61793586  0.50957888  1
  O  O319  1  0.50396898  0.12627326  0.00706293  1
  O  O320  1  0.51504948  0.12121964  0.49949484  1
  O  O321  1  0.50350733  0.62155080  0.00217233  1
  O  O322  1  0.50116821  0.61025192  0.50818105  1
  O  O323  1  0.49175987  0.38880110  0.50016730  1
  O  O324  1  0.49653552  0.38216766  0.99337535  1
  O  O325  1  0.49952947  0.88516783  0.50205018  1
  O  O326  1  0.48107672  0.88205247  0.99969277  1
  O  O327  1  0.99641158  0.38032438  0.49438125  1
  O  O328  1  0.99950219  0.38221375  0.98862835  1
  O  O329  1  0.99117223  0.87683510  0.49537907  1
  O  O330  1  1.00145450  0.88719829  0.99403839  1
  O  O331  1  0.48762884  0.50616747  0.38035104  1
  O  O332  1  0.50627211  0.48656428  0.87954027  1
  O  O333  1  0.49087810  1.00859184  0.38511888  1
  O  O334  1  0.49067973  0.99614788  0.86401615  1
  O  O335  1  1.00197655  0.49206250  0.38296817  1
  O  O336  1  0.98655655  0.50670283  0.87604708  1
  O  O337  1  0.98771614  0.99101388  0.37216949  1
  O  O338  1  0.99924440  0.99503461  0.88163385  1
  O  O339  1  0.00312656  0.00000258  0.12048392  1
  O  O340  1  0.01116766  0.00623641  0.62359369  1
  O  O341  1  0.00929146  0.51065298  0.12472188  1
  O  O342  1  0.00727520  0.50937751  0.62048425  1
  O  O343  1  0.49857392  0.01801925  0.12787735  1
  O  O344  1  0.52148472  -0.00580020  0.61624289  1
  O  O345  1  0.50129942  0.51189037  0.11532639  1
  O  O346  1  0.50648706  0.50486650  0.61792854  1
  O  O347  1  0.25081775  0.38857686  0.24441762  1
  O  O348  1  0.26473172  0.38313706  0.76782933  1
  O  O349  1  0.24343972  0.88123870  0.24735080  1
  O  O350  1  0.25924997  0.86032899  0.73820416  1
  O  O351  1  0.73884257  0.37577495  0.24031515  1
  O  O352  1  0.75154149  0.38192402  0.74131312  1
  O  O353  1  0.73959328  0.88504212  0.24063286  1
  O  O354  1  0.75886676  0.88191498  0.73254875  1
  O  O355  1  0.25482676  0.12156833  0.25733874  1
  O  O356  1  0.25085470  0.13270369  0.76811724  1
  O  O357  1  0.26073426  0.61382486  0.24469555  1
  O  O358  1  0.25800717  0.62160347  0.76285748  1
  O  O359  1  0.74471767  0.11099596  0.24842621  1
  O  O360  1  0.75728920  0.11452958  0.75672319  1
  O  O361  1  0.74903730  0.62181809  0.25269058  1
  O  O362  1  0.74243402  0.61744648  0.76348573  1
  O  O363  1  0.36875886  0.11732233  0.37410016  1
  O  O364  1  0.36013425  0.12797404  0.88069361  1
  O  O365  1  0.38139931  0.62228453  0.36155929  1
  O  O366  1  0.37079254  0.62395558  0.86195699  1
  O  O367  1  0.88181585  0.11044733  0.37828032  1
  O  O368  1  0.87389559  0.11581158  0.87039672  1
  O  O369  1  0.87554083  0.62591115  0.36791408  1
  O  O370  1  0.85559560  0.61958827  0.88444534  1
  O  O371  1  0.13285294  0.38491460  0.12677772  1
  O  O372  1  0.11819606  0.39049073  0.62609874  1
  O  O373  1  0.12962773  0.87957512  0.13227679  1
  O  O374  1  0.13658581  0.87588535  0.62525204  1
  O  O375  1  0.62976815  0.37526334  0.13503883  1
  O  O376  1  0.63360034  0.37855109  0.62802813  1
  O  O377  1  0.62785784  0.88065221  0.13187291  1
  O  O378  1  0.64953133  0.88783262  0.61110003  1
  O  O379  1  0.11991909  0.25519312  0.25831290  1
  O  O380  1  0.12794569  0.24457739  0.76239400  1
  O  O381  1  0.12099975  0.75327665  0.25738574  1
  O  O382  1  0.12289685  0.74582693  0.75882320  1
  O  O383  1  0.61789999  0.25696892  0.25628509  1
  O  O384  1  0.62844672  0.25486710  0.75642505  1
  O  O385  1  0.61748910  0.76663495  0.24360085  1
  O  O386  1  0.62562078  0.75047075  0.73233976  1
  O  O387  1  0.38057072  0.24770131  0.24946606  1
  O  O388  1  0.38017026  0.25289028  0.72708974  1
  O  O389  1  0.36693874  0.74276604  0.24089022  1
  O  O390  1  0.36925804  0.73214169  0.73134917  1
  O  O391  1  0.88430074  0.25596109  0.24242505  1
  O  O392  1  0.86287440  0.22968638  0.74558654  1
  O  O393  1  0.88361994  0.75411793  0.23971758  1
  O  O394  1  0.88393777  0.74765126  0.75402974  1
  O  O395  1  0.37787217  0.49589116  0.49228854  1
  O  O396  1  0.38865174  0.49454976  1.00283154  1
  O  O397  1  0.38777624  0.99866643  0.49926918  1
  O  O398  1  0.37310013  0.98884328  1.01196745  1
  O  O399  1  0.88984754  0.49092201  0.49890647  1
  O  O400  1  0.87665986  0.50324919  0.99620931  1
  O  O401  1  0.87720682  0.99364332  0.48544766  1
  O  O402  1  0.88372739  1.00189290  0.99342060  1
  O  O403  1  0.11930061  0.00639680  0.00724916  1
  O  O404  1  0.12402967  0.00592748  0.50509195  1
  O  O405  1  0.12617147  0.50162012  0.01274755  1
  O  O406  1  0.11610315  0.50517925  0.50201666  1
  O  O407  1  0.61712882  0.01570200  0.00332440  1
  O  O408  1  0.62415244  0.00807584  0.49955854  1
  O  O409  1  0.61167559  0.50959902  0.00074128  1
  O  O410  1  0.61728262  0.49441778  0.50507151  1
  O  O411  1  0.36975535  0.37135757  0.12016666  1
  O  O412  1  0.37579184  0.36630540  0.60802419  1
  O  O413  1  0.36757395  0.86917192  0.12448001  1
  O  O414  1  0.36287844  0.85725486  0.61649524  1
  O  O415  1  0.86599178  0.36699656  0.12342480  1
  O  O416  1  0.87540664  0.37361025  0.61136633  1
  O  O417  1  0.86566331  0.86926869  0.12467973  1
  O  O418  1  0.86812295  0.88396645  0.60881656  1
  O  O419  1  0.12876210  0.12867064  0.38348883  1
  O  O420  1  0.13208098  0.13243159  0.88702528  1
  O  O421  1  0.11674708  0.63247080  0.38873324  1
  O  O422  1  0.13573947  0.63438234  0.87438719  1
  O  O423  1  0.62501578  0.14022178  0.38175180  1
  O  O424  1  0.63369522  0.13152001  0.88307288  1
  O  O425  1  0.62189310  0.63970980  0.37972679  1
  O  O426  1  0.63078805  0.62729299  0.88456155  1
