# generated using pymatgen
data_V85Zn86O256
_symmetry_space_group_name_H-M   'P 1'
_cell_length_a   16.93930746
_cell_length_b   16.93565498
_cell_length_c   16.93181615
_cell_angle_alpha   90.05109348
_cell_angle_beta   90.00709389
_cell_angle_gamma   90.01012342
_symmetry_Int_Tables_number   1
_chemical_formula_structural   V85Zn86O256
_chemical_formula_sum   'V85 Zn86 O256'
_cell_volume   4857.36802364
_cell_formula_units_Z   1
loop_
 _symmetry_equiv_pos_site_id
 _symmetry_equiv_pos_as_xyz
  1  'x, y, z'
loop_
 _atom_site_type_symbol
 _atom_site_label
 _atom_site_symmetry_multiplicity
 _atom_site_fract_x
 _atom_site_fract_y
 _atom_site_fract_z
 _atom_site_occupancy
  V  V0  1  0.49490348  0.74740559  0.24580159  1
  V  V1  1  0.87328225  0.62325199  0.24729987  1
  V  V2  1  0.25173413  -0.00044099  0.24790482  1
  V  V3  1  0.24939715  0.87541081  0.62370302  1
  V  V4  1  0.49078571  0.12140934  0.62115652  1
  V  V5  1  -0.01246462  0.88404517  0.87331389  1
  V  V6  1  0.25685070  0.00403033  0.74792253  1
  V  V7  1  0.50019459  0.49945092  0.49698563  1
  V  V8  1  -0.00104967  0.12449398  0.62642302  1
  V  V9  1  0.38049660  0.24407681  0.12151224  1
  V  V10  1  0.12170074  0.37700459  0.74932966  1
  V  V11  1  0.88198570  0.12973285  0.24524037  1
  V  V12  1  0.86302201  0.88121809  0.00869664  1
  V  V13  1  0.74856772  0.37927989  0.12003943  1
  V  V14  1  0.76183096  0.50445060  0.75151428  1
  V  V15  1  0.00030841  -0.00149345  0.50074180  1
  V  V16  1  0.89135806  0.49989089  0.37704166  1
  V  V17  1  0.11819160  0.61670311  0.00390340  1
  V  V18  1  0.49732721  0.62413192  0.62794189  1
  V  V19  1  0.12772918  0.12501658  -0.00239588  1
  V  V20  1  0.86904559  0.12199809  0.76533001  1
  V  V21  1  0.24152671  0.50330335  0.25666556  1
  V  V22  1  0.74881994  0.62791767  0.88005978  1
  V  V23  1  0.37305900  0.50869430  0.37713614  1
  V  V24  1  0.50642675  0.24552405  0.24343458  1
  V  V25  1  0.62592502  0.25394178  0.37190210  1
  V  V26  1  0.24709568  0.62651794  0.87288998  1
  V  V27  1  0.62566310  0.75095429  0.37509483  1
  V  V28  1  0.87481625  0.74842695  0.63134863  1
  V  V29  1  0.50172904  0.37719599  0.37159371  1
  V  V30  1  0.00017359  0.87289052  0.37498330  1
  V  V31  1  0.62266939  0.12113540  0.50187279  1
  V  V32  1  0.63461628  0.87195158  0.74525054  1
  V  V33  1  0.76078303  0.25015264  0.00012035  1
  V  V34  1  0.24755738  0.50275642  0.74519951  1
  V  V35  1  0.63203128  0.24971267  0.87328761  1
  V  V36  1  0.42707525  0.42281987  0.03823140  1
  V  V37  1  0.49451827  0.37283714  0.86919433  1
  V  V38  1  0.13109601  0.74801532  0.37389241  1
  V  V39  1  -0.00014013  0.25145767  0.75263557  1
  V  V40  1  0.37806678  0.00309641  0.37472504  1
  V  V41  1  0.74986855  0.75287684  0.50638478  1
  V  V42  1  -0.00318883  0.75123610  0.23991093  1
  V  V43  1  0.38179859  0.87700805  -0.00750212  1
  V  V44  1  -0.00211133  0.38192417  0.88817052  1
  V  V45  1  0.37730359  0.50063976  0.87274228  1
  V  V46  1  0.37522192  0.87932670  0.49943067  1
  V  V47  1  0.75191523  -0.00199072  0.24415392  1
  V  V48  1  0.11994374  0.75397379  0.87260041  1
  V  V49  1  0.87561004  0.24895356  0.62590322  1
  V  V50  1  0.62985595  -0.00534802  0.62229131  1
  V  V51  1  0.49985670  0.00710585  0.00638550  1
  V  V52  1  0.12630143  -0.00022229  0.62430366  1
  V  V53  1  0.12388400  0.61727047  0.48863347  1
  V  V54  1  0.25707565  0.25588118  -0.00257596  1
  V  V55  1  0.24556900  0.38092521  0.12349352  1
  V  V56  1  0.24938416  0.13408498  0.37124407  1
  V  V57  1  0.62462256  0.62394906  0.49771043  1
  V  V58  1  0.75084572  0.12377020  0.37506888  1
  V  V59  1  0.49092257  0.23938540  0.74283058  1
  V  V60  1  0.61564152  0.74963981  0.88144906  1
  V  V61  1  0.88247056  0.37837892  0.50037715  1
  V  V62  1  0.74279665  0.48676902  0.25584672  1
  V  V63  1  0.25701259  0.36683996  0.62411206  1
  V  V64  1  0.39026037  0.00272237  0.86747872  1
  V  V65  1  0.62725871  0.37690559  0.74767332  1
  V  V66  1  0.62803124  0.87413183  0.24328983  1
  V  V67  1  0.12399983  -0.00244937  0.12024085  1
  V  V68  1  0.50134377  0.87979260  0.37883703  1
  V  V69  1  0.25784962  0.12590123  0.87003645  1
  V  V70  1  0.25227387  0.87310939  0.12113165  1
  V  V71  1  0.62655548  0.49918141  0.62543233  1
  V  V72  1  0.01010175  0.35508534  0.37737540  1
  V  V73  1  0.12527290  0.13191289  0.49430836  1
  V  V74  1  0.62032697  0.01021463  0.12906599  1
  V  V75  1  0.37304568  0.75052160  0.62235198  1
  V  V76  1  0.75274574  0.37532171  0.62384113  1
  V  V77  1  0.87957096  0.50632380  0.89482204  1
  V  V78  1  0.24896685  0.75236596  -0.00335430  1
  V  V79  1  0.75265441  0.62204111  0.37712629  1
  V  V80  1  0.62759743  0.13047671  0.00293218  1
  V  V81  1  0.12198544  0.35566500  0.24820201  1
  V  V82  1  0.49834063  0.75768701  0.74929403  1
  V  V83  1  0.87104526  0.87592302  0.50535368  1
  V  V84  1  -0.00110775  0.61889037  0.62585040  1
  Zn  Zn85  1  0.75098393  0.25003929  0.50017079  1
  Zn  Zn86  1  -0.01251504  0.60410335  0.10571041  1
  Zn  Zn87  1  0.88647275  0.26044171  0.12487132  1
  Zn  Zn88  1  0.75781218  -0.00301463  0.75752581  1
  Zn  Zn89  1  -0.00546560  0.74898326  0.75099808  1
  Zn  Zn90  1  0.12161165  0.49866761  0.61729114  1
  Zn  Zn91  1  0.37842364  0.36893999  0.50155061  1
  Zn  Zn92  1  0.74198254  0.74990171  0.00637136  1
  Zn  Zn93  1  0.38322559  0.74306558  0.11578847  1
  Zn  Zn94  1  0.38014398  0.12280569  0.24401441  1
  Zn  Zn95  1  0.36777960  0.62496433  0.24473656  1
  Zn  Zn96  1  0.25504058  0.24840125  0.50058970  1
  Zn  Zn97  1  0.12421858  0.87331836  0.24736811  1
  Zn  Zn98  1  0.37311539  0.62824223  0.74929659  1
  Zn  Zn99  1  -0.00894150  0.00450488  -0.00251400  1
  Zn  Zn100  1  0.00748509  0.13003006  0.13057193  1
  Zn  Zn101  1  0.87547056  -0.00126616  0.37404829  1
  Zn  Zn102  1  0.25024111  0.74488825  0.49532428  1
  Zn  Zn103  1  0.12688341  0.25219877  0.87495946  1
  Zn  Zn104  1  0.12163571  0.87707461  0.75053314  1
  Zn  Zn105  1  0.56314670  0.55793220  0.07971314  1
  Zn  Zn106  1  0.85561340  0.75335693  0.12798431  1
  Zn  Zn107  1  0.19420379  0.18637571  0.18269847  1
  Zn  Zn108  1  0.18601590  0.18652081  0.68872177  1
  Zn  Zn109  1  0.18560845  0.68749289  0.18513165  1
  Zn  Zn110  1  0.18207966  0.68820960  0.68422390  1
  Zn  Zn111  1  0.69361637  0.19160205  0.18697492  1
  Zn  Zn112  1  0.68769928  0.18709395  0.68640744  1
  Zn  Zn113  1  0.68009111  0.67665453  0.17764039  1
  Zn  Zn114  1  0.68695494  0.68273760  0.69067444  1
  Zn  Zn115  1  0.31782554  0.31455250  0.31089036  1
  Zn  Zn116  1  0.31373613  0.31218012  0.80708978  1
  Zn  Zn117  1  0.31152506  0.81599459  0.31094687  1
  Zn  Zn118  1  0.31319558  0.81714514  0.81136525  1
  Zn  Zn119  1  0.81825752  0.31009619  0.31567313  1
  Zn  Zn120  1  0.81738601  0.31733403  0.81634523  1
  Zn  Zn121  1  0.81167536  0.81247601  0.31524392  1
  Zn  Zn122  1  0.80846500  0.81120980  0.81579104  1
  Zn  Zn123  1  0.18444216  0.43627528  0.43509215  1
  Zn  Zn124  1  0.18806353  0.43815209  0.93467544  1
  Zn  Zn125  1  0.18830577  0.93894099  0.43648209  1
  Zn  Zn126  1  0.18892046  0.93853063  0.93274530  1
  Zn  Zn127  1  0.69157141  0.43697084  0.43613105  1
  Zn  Zn128  1  0.69029567  0.43650490  0.94021260  1
  Zn  Zn129  1  0.68829493  0.93912488  0.43646018  1
  Zn  Zn130  1  0.68420196  0.93613230  0.93236386  1
  Zn  Zn131  1  0.31223985  0.06322191  0.05881733  1
  Zn  Zn132  1  0.31337909  0.06336558  0.55778627  1
  Zn  Zn133  1  0.30665447  0.56738481  0.06601971  1
  Zn  Zn134  1  0.30824820  0.56113400  0.55854560  1
  Zn  Zn135  1  0.80858241  0.06200063  0.06197200  1
  Zn  Zn136  1  0.81010904  0.06156207  0.56629984  1
  Zn  Zn137  1  0.79986425  0.56497283  0.06782346  1
  Zn  Zn138  1  0.81650319  0.56172518  0.56153649  1
  Zn  Zn139  1  0.43097084  0.42983155  0.20514861  1
  Zn  Zn140  1  0.43790421  0.43916759  0.68981072  1
  Zn  Zn141  1  0.43808003  0.93442725  0.18587252  1
  Zn  Zn142  1  0.44405816  0.94283693  0.68345897  1
  Zn  Zn143  1  0.93663921  0.43374333  0.18412019  1
  Zn  Zn144  1  0.93985247  0.43931396  0.68880807  1
  Zn  Zn145  1  0.93835466  0.94147096  0.18480952  1
  Zn  Zn146  1  0.93537058  0.93779130  0.68814537  1
  Zn  Zn147  1  0.06517616  0.05887856  0.31254385  1
  Zn  Zn148  1  0.06565686  0.06330981  0.81120481  1
  Zn  Zn149  1  0.04478450  0.54271588  0.27094274  1
  Zn  Zn150  1  0.05911524  0.56577512  0.81077403  1
  Zn  Zn151  1  0.56170372  0.06626165  0.31308168  1
  Zn  Zn152  1  0.59490239  0.04971265  0.82506588  1
  Zn  Zn153  1  0.57239544  0.57159315  0.28485737  1
  Zn  Zn154  1  0.56494258  0.56213297  0.91772723  1
  Zn  Zn155  1  0.43605293  0.19134608  0.43925419  1
  Zn  Zn156  1  0.44164713  0.18766158  0.93522623  1
  Zn  Zn157  1  0.43795823  0.68930189  0.43543118  1
  Zn  Zn158  1  0.43775961  0.68259606  0.94301382  1
  Zn  Zn159  1  0.93353359  0.18471196  0.43920417  1
  Zn  Zn160  1  0.94446842  0.19047648  0.93834667  1
  Zn  Zn161  1  0.94196397  0.68776212  0.43891674  1
  Zn  Zn162  1  0.93198230  0.69412975  0.93827182  1
  Zn  Zn163  1  0.06554550  0.30878719  0.06407819  1
  Zn  Zn164  1  0.06487904  0.31253522  0.56322936  1
  Zn  Zn165  1  0.05814909  0.81314253  0.05582224  1
  Zn  Zn166  1  0.06201864  0.80861808  0.56153559  1
  Zn  Zn167  1  0.57426530  0.31832623  0.06604189  1
  Zn  Zn168  1  0.56229948  0.30841814  0.55920757  1
  Zn  Zn169  1  0.56207280  0.81992682  0.06412315  1
  Zn  Zn170  1  0.56070589  0.81400409  0.56108420  1
  O  O171  1  0.13123429  0.11636803  0.11470904  1
  O  O172  1  0.11919852  0.11838363  0.61864371  1
  O  O173  1  0.12349402  0.63149290  0.10574260  1
  O  O174  1  0.11385564  0.62502883  0.61485476  1
  O  O175  1  0.62659972  0.11804309  0.12121413  1
  O  O176  1  0.61985398  0.12032997  0.61753152  1
  O  O177  1  0.60565997  0.59754986  0.17420700  1
  O  O178  1  0.61745467  0.61846779  0.61843132  1
  O  O179  1  0.38607916  0.38427057  0.37555622  1
  O  O180  1  0.38595655  0.38040839  0.86771776  1
  O  O181  1  0.38048508  0.88188695  0.38001820  1
  O  O182  1  0.37184678  0.88752065  0.88490022  1
  O  O183  1  0.88865135  0.37719076  0.38138676  1
  O  O184  1  0.88477308  0.39284865  0.87416343  1
  O  O185  1  0.88259021  0.87536812  0.38650238  1
  O  O186  1  0.88351538  0.87372745  0.88047722  1
  O  O187  1  0.26011852  0.00353808  0.36720247  1
  O  O188  1  0.26031372  0.00671458  0.86603931  1
  O  O189  1  0.25925063  0.49045643  0.36541875  1
  O  O190  1  0.25744242  0.50142039  0.86203092  1
  O  O191  1  0.74857604  0.01096427  0.36546887  1
  O  O192  1  0.70262057  0.01200287  0.85497700  1
  O  O193  1  0.76524893  0.50045922  0.37121391  1
  O  O194  1  0.76219103  0.50315002  0.87020097  1
  O  O195  1  0.25323551  0.48636335  0.13820320  1
  O  O196  1  0.24675146  0.49291682  0.63431798  1
  O  O197  1  0.24714613  0.99029048  0.12619674  1
  O  O198  1  0.24780146  0.99685765  0.62992535  1
  O  O199  1  0.75169707  0.49046970  0.14247777  1
  O  O200  1  0.74712505  0.49652681  0.63132882  1
  O  O201  1  0.73932320  1.00332151  0.13804489  1
  O  O202  1  0.73367180  1.00790993  0.63467545  1
  O  O203  1  0.01534535  0.37043403  0.26211342  1
  O  O204  1  0.00731053  0.37190890  0.75473376  1
  O  O205  1  -0.00128687  0.86925195  0.25723463  1
  O  O206  1  -0.00117095  0.87336650  0.76114492  1
  O  O207  1  0.50286754  0.36362233  0.26459637  1
  O  O208  1  0.50842726  0.36614784  0.75034199  1
  O  O209  1  0.50543088  0.86971459  0.26048523  1
  O  O210  1  0.50424765  0.86051077  0.73993949  1
  O  O211  1  0.49724721  0.14045519  0.25284711  1
  O  O212  1  0.50858039  0.13574187  0.73720981  1
  O  O213  1  0.48682258  0.64669278  0.26781540  1
  O  O214  1  0.49758643  0.63640730  0.73183289  1
  O  O215  1  0.98491728  0.11555050  0.25295587  1
  O  O216  1  0.99383418  0.13092839  0.74612952  1
  O  O217  1  0.98204745  0.63994800  0.26325237  1
  O  O218  1  1.00519607  0.63101629  0.73166539  1
  O  O219  1  0.36526620  0.24689036  0.00234103  1
  O  O220  1  0.36843739  0.25615987  0.49813340  1
  O  O221  1  0.36989596  0.76144585  -0.00442917  1
  O  O222  1  0.37139931  0.76104839  0.50152487  1
  O  O223  1  0.86332500  0.24173816  -0.00057039  1
  O  O224  1  0.87470806  0.26013988  0.50623781  1
  O  O225  1  0.86882118  0.76500671  0.00387146  1
  O  O226  1  0.86825555  0.75639269  0.50597197  1
  O  O227  1  0.13050643  0.23490072  0.50557752  1
  O  O228  1  0.13998095  0.24132304  0.99658457  1
  O  O229  1  0.12649424  0.74412170  0.48956147  1
  O  O230  1  0.12898305  0.74755687  0.98727325  1
  O  O231  1  0.62924362  0.23740077  0.49300803  1
  O  O232  1  0.63332646  0.24625552  0.99473182  1
  O  O233  1  0.63180248  0.74608537  0.49554550  1
  O  O234  1  0.61983813  0.76058993  0.98442909  1
  O  O235  1  0.49349020  0.26220581  0.13153569  1
  O  O236  1  0.50748870  0.23986374  0.63515135  1
  O  O237  1  0.50157317  0.75871313  0.14169304  1
  O  O238  1  0.49145005  0.74381520  0.62520436  1
  O  O239  1  0.99710903  0.24137432  0.11837912  1
  O  O240  1  0.99548470  0.24560625  0.63212062  1
  O  O241  1  0.99927610  0.75112467  0.13659161  1
  O  O242  1  0.99124607  0.74372356  0.62696857  1
  O  O243  1  -0.00140323  0.25704115  0.37628507  1
  O  O244  1  0.00278244  0.26294122  0.86927222  1
  O  O245  1  0.00605468  0.76109426  0.36984752  1
  O  O246  1  0.00396003  0.76153167  0.87214212  1
  O  O247  1  0.50839063  0.25572814  0.36910129  1
  O  O248  1  0.50539604  0.25511715  0.86078291  1
  O  O249  1  0.50536969  0.76127565  0.36995928  1
  O  O250  1  0.50826321  0.74285140  0.86293226  1
  O  O251  1  0.24224757  0.12319544  0.48980254  1
  O  O252  1  0.24486194  0.13097197  0.99069543  1
  O  O253  1  0.23058194  0.62821487  0.50494414  1
  O  O254  1  0.24005069  0.63378745  0.99145909  1
  O  O255  1  0.74545611  0.12566986  0.49081639  1
  O  O256  1  0.73647683  0.13380556  1.00558929  1
  O  O257  1  0.74496296  0.62912656  0.49475591  1
  O  O258  1  0.74644748  0.62479489  0.98573161  1
  O  O259  1  0.24055562  0.36714700  0.00865662  1
  O  O260  1  0.24407457  0.37510187  0.51653909  1
  O  O261  1  0.25759520  0.87247004  0.00302270  1
  O  O262  1  0.25709006  0.87345376  0.50664131  1
  O  O263  1  0.75087058  0.36810464  0.01244050  1
  O  O264  1  0.76186449  0.37325283  0.50637079  1
  O  O265  1  0.76041110  0.87609919  -0.00720233  1
  O  O266  1  0.75812436  0.86547175  0.49460024  1
  O  O267  1  0.14074195  0.48054591  0.26421710  1
  O  O268  1  0.13138091  0.49412489  0.74786969  1
  O  O269  1  0.13223294  0.99775223  0.23629850  1
  O  O270  1  0.13490662  0.99936561  0.74111701  1
  O  O271  1  0.64621366  0.48398320  0.27859036  1
  O  O272  1  0.63583342  0.48422895  0.74296863  1
  O  O273  1  0.62873166  0.99716669  0.24599401  1
  O  O274  1  0.60654410  0.98105754  0.73424938  1
  O  O275  1  0.36977980  0.00032310  0.25477261  1
  O  O276  1  0.37137751  -0.00440304  0.75713896  1
  O  O277  1  0.36200540  0.50080468  0.26012083  1
  O  O278  1  0.36654558  0.50473034  0.75509384  1
  O  O279  1  0.86622776  0.00468353  0.25230118  1
  O  O280  1  0.87354323  0.01636502  0.74548671  1
  O  O281  1  0.86909148  0.50728636  0.26144837  1
  O  O282  1  0.86356918  0.49830733  0.75058058  1
  O  O283  1  0.11627743  0.36718587  0.37100695  1
  O  O284  1  0.12067331  0.37693233  0.86176248  1
  O  O285  1  0.11710162  0.86873972  0.37286846  1
  O  O286  1  0.11478155  0.86953100  0.87518509  1
  O  O287  1  0.62130350  0.35955188  0.38541233  1
  O  O288  1  0.61480686  0.36856177  0.86571214  1
  O  O289  1  0.61694466  0.87395345  0.36864414  1
  O  O290  1  0.62244113  0.85756759  0.86062450  1
  O  O291  1  0.37031878  0.13975939  0.12356319  1
  O  O292  1  0.39130923  0.11916463  0.62099740  1
  O  O293  1  0.36778803  0.63252977  0.13054679  1
  O  O294  1  0.38054149  0.63122282  0.62146837  1
  O  O295  1  0.87489701  0.12140666  0.13968305  1
  O  O296  1  0.88240038  0.13340462  0.62609621  1
  O  O297  1  0.87414390  0.62796032  0.13396048  1
  O  O298  1  0.88966786  0.63350607  0.61416380  1
  O  O299  1  0.25958242  0.25949706  0.11690457  1
  O  O300  1  0.24749261  0.26437232  0.62966604  1
  O  O301  1  0.24727481  0.76312309  0.11813512  1
  O  O302  1  0.25703079  0.75836855  0.62571841  1
  O  O303  1  0.75705637  0.25897190  0.11774335  1
  O  O304  1  0.75850860  0.25745771  0.62387710  1
  O  O305  1  0.74070379  0.74545628  0.12074902  1
  O  O306  1  0.75614669  0.73920515  0.61237892  1
  O  O307  1  0.25519742  0.23642638  0.37125168  1
  O  O308  1  0.25249500  0.24416705  0.87827995  1
  O  O309  1  0.23505609  0.75508173  0.37151700  1
  O  O310  1  0.24248555  0.74856183  0.87778677  1
  O  O311  1  0.74461070  0.23959309  0.37491120  1
  O  O312  1  0.74172823  0.26283395  0.88475650  1
  O  O313  1  0.74540246  0.74347651  0.38551844  1
  O  O314  1  0.73868127  0.74295562  0.87703172  1
  O  O315  1  0.01828484  0.12153282  -0.00705576  1
  O  O316  1  0.00627150  0.11802578  0.50320332  1
  O  O317  1  0.01203387  0.63144069  -0.00367931  1
  O  O318  1  0.01309249  0.63176391  0.51072059  1
  O  O319  1  0.51079212  0.11754301  -0.00034923  1
  O  O320  1  0.50885184  0.13176172  0.51233207  1
  O  O321  1  0.50665260  0.61858517  -0.00143145  1
  O  O322  1  0.50518927  0.62080501  0.50652247  1
  O  O323  1  0.50214799  0.38120572  0.49064724  1
  O  O324  1  0.49660174  0.36093639  0.98570100  1
  O  O325  1  0.49268795  0.87316410  0.48654577  1
  O  O326  1  0.49253016  0.89140119  1.00218615  1
  O  O327  1  0.99849223  0.37135258  0.48763303  1
  O  O328  1  1.01523591  0.37748921  0.98622916  1
  O  O329  1  0.99384536  0.87858615  0.49361498  1
  O  O330  1  0.98825708  0.87860274  0.98871858  1
  O  O331  1  0.49462311  0.49321356  0.37594673  1
  O  O332  1  0.48475439  0.49032485  0.86701243  1
  O  O333  1  0.48732753  0.99525188  0.36873004  1
  O  O334  1  0.49338332  1.00955159  0.88092668  1
  O  O335  1  0.99265548  0.49061110  0.36765283  1
  O  O336  1  0.98577931  0.49892097  0.87032082  1
  O  O337  1  1.00031558  0.98732655  0.38071912  1
  O  O338  1  1.00619976  0.98649480  0.87597951  1
  O  O339  1  0.01126930  0.00594802  0.11963539  1
  O  O340  1  0.00590276  0.00424882  0.61985618  1
  O  O341  1  0.00985068  0.51256108  0.16410683  1
  O  O342  1  0.00058467  0.51411166  0.62522683  1
  O  O343  1  0.50634126  0.00161399  0.11920034  1
  O  O344  1  0.50933719  0.01541101  0.62122210  1
  O  O345  1  0.48319409  0.47248016  0.11210107  1
  O  O346  1  0.50471022  0.50644844  0.62003494  1
  O  O347  1  0.24280607  0.37672275  0.24401986  1
  O  O348  1  0.24331045  0.38107551  0.74171197  1
  O  O349  1  0.24778573  0.88135060  0.23825619  1
  O  O350  1  0.24908817  0.88809864  0.74254334  1
  O  O351  1  0.75883062  0.38375547  0.24987689  1
  O  O352  1  0.74598405  0.37977593  0.74383516  1
  O  O353  1  0.73866430  0.88472926  0.26064863  1
  O  O354  1  0.73867730  0.87544520  0.74842937  1
  O  O355  1  0.25421403  0.11682508  0.25469613  1
  O  O356  1  0.24924684  0.11413175  0.75471119  1
  O  O357  1  0.24267520  0.60723484  0.24755165  1
  O  O358  1  0.24797910  0.61763919  0.75310945  1
  O  O359  1  0.75816798  0.11803001  0.25663985  1
  O  O360  1  0.76777452  0.13206179  0.74894376  1
  O  O361  1  0.75988483  0.61354901  0.25941997  1
  O  O362  1  0.74496046  0.61370986  0.76236996  1
  O  O363  1  0.36896621  0.11630815  0.37353201  1
  O  O364  1  0.36547259  0.11766901  0.87852286  1
  O  O365  1  0.37397203  0.61218246  0.37680852  1
  O  O366  1  0.36538907  0.61657478  0.87267849  1
  O  O367  1  0.86687230  0.12103755  0.36772938  1
  O  O368  1  0.88064962  0.12665157  0.86359727  1
  O  O369  1  0.87143624  0.61735377  0.37528562  1
  O  O370  1  0.86822351  0.61501272  0.87676334  1
  O  O371  1  0.13171416  0.36983313  0.14017635  1
  O  O372  1  0.13074059  0.37838957  0.63480947  1
  O  O373  1  0.13172291  0.88168979  0.12071898  1
  O  O374  1  0.13119868  0.88138679  0.62463961  1
  O  O375  1  0.64819465  0.36960910  0.13548024  1
  O  O376  1  0.63109383  0.37770202  0.62857080  1
  O  O377  1  0.61971158  0.88933057  0.13870068  1
  O  O378  1  0.62197220  0.88327671  0.62681361  1
  O  O379  1  0.13228626  0.25693895  0.25077500  1
  O  O380  1  0.11785022  0.25775787  0.75225893  1
  O  O381  1  0.11512461  0.74999732  0.25621882  1
  O  O382  1  0.12468338  0.75447375  0.76221723  1
  O  O383  1  0.62047061  0.24400457  0.25999776  1
  O  O384  1  0.62323367  0.25913012  0.75559546  1
  O  O385  1  0.61485553  0.75977096  0.25735434  1
  O  O386  1  0.61720984  0.75537601  0.75004736  1
  O  O387  1  0.38490387  0.25088930  0.23841585  1
  O  O388  1  0.39232752  0.24959347  0.74909932  1
  O  O389  1  0.38636220  0.75688832  0.24901797  1
  O  O390  1  0.38080861  0.74988468  0.74329701  1
  O  O391  1  0.87202980  0.23210061  0.25003273  1
  O  O392  1  0.88223114  0.24409114  0.74688863  1
  O  O393  1  0.87781741  0.74479335  0.24840016  1
  O  O394  1  0.87008809  0.75489926  0.73450235  1
  O  O395  1  0.38125383  0.49488164  0.49409165  1
  O  O396  1  0.36254066  0.49287761  0.98969208  1
  O  O397  1  0.37142280  0.98766267  0.49005648  1
  O  O398  1  0.38299674  0.99786740  0.99307070  1
  O  O399  1  0.87526130  0.48622917  0.49341585  1
  O  O400  1  0.87411637  0.50604677  0.99346153  1
  O  O401  1  0.87913502  0.99250217  0.50017576  1
  O  O402  1  0.87346427  0.98867846  1.00174080  1
  O  O403  1  0.13049256  0.00652990  0.00790077  1
  O  O404  1  0.12097586  0.00732236  0.50633886  1
  O  O405  1  0.12963346  0.51832146  -0.00766232  1
  O  O406  1  0.12463645  0.51290125  0.49772353  1
  O  O407  1  0.61843959  0.00707354  0.01000501  1
  O  O408  1  0.62894902  0.01199377  0.50432064  1
  O  O409  1  0.61572656  0.49576449  -0.00482434  1
  O  O410  1  0.62075317  0.50447904  0.50431562  1
  O  O411  1  0.36707975  0.36803998  0.11643569  1
  O  O412  1  0.35958434  0.38045005  0.62654420  1
  O  O413  1  0.36818540  0.87348377  0.11137607  1
  O  O414  1  0.37248622  0.87292968  0.61564946  1
  O  O415  1  0.85971077  0.37272226  0.13310864  1
  O  O416  1  0.87590107  0.36990912  0.61814735  1
  O  O417  1  0.87636659  0.87464268  0.11201809  1
  O  O418  1  0.87962875  0.86704762  0.61240685  1
  O  O419  1  0.13606250  0.11595828  0.38257358  1
  O  O420  1  0.13999850  0.12524715  0.87912108  1
  O  O421  1  0.11505946  0.63339091  0.38615092  1
  O  O422  1  0.12787523  0.63416178  0.87904684  1
  O  O423  1  0.63083631  0.13114485  0.38195146  1
  O  O424  1  0.61682814  0.14542621  0.88566620  1
  O  O425  1  0.63143944  0.63106174  0.37838620  1
  O  O426  1  0.63166380  0.64184930  0.86678304  1
