# generated using pymatgen
data_V85Zn86O256
_symmetry_space_group_name_H-M   'P 1'
_cell_length_a   16.94320644
_cell_length_b   16.92886366
_cell_length_c   16.92639470
_cell_angle_alpha   89.99237019
_cell_angle_beta   89.91038305
_cell_angle_gamma   90.12421688
_symmetry_Int_Tables_number   1
_chemical_formula_structural   V85Zn86O256
_chemical_formula_sum   'V85 Zn86 O256'
_cell_volume   4854.96739466
_cell_formula_units_Z   1
loop_
 _symmetry_equiv_pos_site_id
 _symmetry_equiv_pos_as_xyz
  1  'x, y, z'
loop_
 _atom_site_type_symbol
 _atom_site_label
 _atom_site_symmetry_multiplicity
 _atom_site_fract_x
 _atom_site_fract_y
 _atom_site_fract_z
 _atom_site_occupancy
  V  V0  1  0.74999328  0.74981441  -0.00049417  1
  V  V1  1  0.87102668  0.50236882  0.85800779  1
  V  V2  1  0.37660481  0.74330922  0.62287278  1
  V  V3  1  0.37610539  0.24982808  0.12535541  1
  V  V4  1  0.87588948  0.87554093  -0.00236115  1
  V  V5  1  0.24671832  0.49576412  0.25190928  1
  V  V6  1  0.62228995  0.49386275  0.12624975  1
  V  V7  1  0.49779284  0.26065000  0.75325775  1
  V  V8  1  0.62722678  0.75360823  0.86999704  1
  V  V9  1  -0.00142330  0.12912024  0.63231604  1
  V  V10  1  -0.00050481  0.00209490  0.00333360  1
  V  V11  1  0.37709386  0.11782445  0.75011147  1
  V  V12  1  0.50151775  0.61926901  0.12444490  1
  V  V13  1  0.75084411  0.75096689  0.50563751  1
  V  V14  1  0.25112373  0.37282028  0.62959512  1
  V  V15  1  0.87281418  0.38239665  -0.00143084  1
  V  V16  1  0.12194786  0.62473748  0.50164300  1
  V  V17  1  0.74359083  -0.01461216  0.74672556  1
  V  V18  1  0.49854036  0.75104545  0.25079149  1
  V  V19  1  0.87452150  0.75156884  0.12487102  1
  V  V20  1  0.24721427  0.87866933  0.64004068  1
  V  V21  1  -0.00070857  0.62642974  0.12133835  1
  V  V22  1  0.64161610  0.37814497  0.74761619  1
  V  V23  1  0.86176594  0.36558588  0.50088092  1
  V  V24  1  0.75770979  0.24836809  0.00198811  1
  V  V25  1  0.00406093  0.75748627  0.75242850  1
  V  V26  1  0.12284964  0.49862640  0.12808190  1
  V  V27  1  0.75296410  0.00173648  0.25734835  1
  V  V28  1  0.74463351  0.49671110  0.25139710  1
  V  V29  1  0.24865396  0.49937881  0.76102663  1
  V  V30  1  0.12285859  -0.00419714  0.13305472  1
  V  V31  1  0.62656436  0.61779818  -0.00311236  1
  V  V32  1  0.37399717  0.62343061  0.25117414  1
  V  V33  1  0.37104024  0.62601967  0.75862522  1
  V  V34  1  0.00439579  0.37138565  0.37019440  1
  V  V35  1  0.62046024  0.25618428  0.87591231  1
  V  V36  1  0.12653852  -0.00151149  0.63710635  1
  V  V37  1  0.87740040  0.87630435  0.50194527  1
  V  V38  1  0.13759962  0.75376023  0.87485094  1
  V  V39  1  0.62617260  0.12492790  -0.00041963  1
  V  V40  1  0.37206540  0.74714413  0.11497269  1
  V  V41  1  0.00709910  0.87881926  0.37237372  1
  V  V42  1  0.00806723  0.75522987  0.24982205  1
  V  V43  1  0.87746696  0.00415019  0.86657842  1
  V  V44  1  0.50926567  0.25640899  0.25083402  1
  V  V45  1  0.86304382  0.24755428  0.62989961  1
  V  V46  1  0.12715019  0.25049098  0.36624965  1
  V  V47  1  0.75341335  0.13515592  0.37756612  1
  V  V48  1  0.37191213  0.87781708  0.49930778  1
  V  V49  1  0.36666255  0.00938811  0.37456570  1
  V  V50  1  -0.00281357  0.49614994  0.50023481  1
  V  V51  1  0.12146162  0.48907142  0.63436735  1
  V  V52  1  0.49942891  0.12386610  0.12859280  1
  V  V53  1  0.62420488  0.74871983  0.37563458  1
  V  V54  1  0.24940914  0.11752938  0.86924615  1
  V  V55  1  0.37236952  0.49230422  0.38478531  1
  V  V56  1  0.49953450  0.00675354  0.50145664  1
  V  V57  1  0.12805665  0.12434240  0.49530378  1
  V  V58  1  0.24831707  0.62306546  0.37692653  1
  V  V59  1  0.75275227  0.12653990  0.86497485  1
  V  V60  1  0.24741359  0.75111084  0.50232031  1
  V  V61  1  0.50425736  0.74605592  0.74318368  1
  V  V62  1  0.38866488  0.38152177  -0.00322783  1
  V  V63  1  0.87384798  0.62695785  0.25127003  1
  V  V64  1  0.87373242  0.74906757  0.63138619  1
  V  V65  1  0.24525192  0.87099780  0.13338495  1
  V  V66  1  0.88174303  0.13949917  0.24082203  1
  V  V67  1  0.75323615  0.62343913  0.85961819  1
  V  V68  1  0.62534791  -0.00146420  0.12758278  1
  V  V69  1  0.74964168  0.62456404  0.37736166  1
  V  V70  1  0.50019727  -0.00285843  -0.00055198  1
  V  V71  1  0.62908096  0.13400189  0.50046590  1
  V  V72  1  0.37623505  0.25391139  0.62314807  1
  V  V73  1  0.62659223  0.87627528  0.25357306  1
  V  V74  1  0.75125475  0.37035943  0.12910375  1
  V  V75  1  -0.00456721  0.62371305  0.63362352  1
  V  V76  1  0.25271773  0.25323506  0.49459807  1
  V  V77  1  0.14104151  0.62833283  -0.00472854  1
  V  V78  1  0.50147397  0.87229873  0.87079508  1
  V  V79  1  0.37006006  0.87164443  0.00070404  1
  V  V80  1  0.63016541  0.49857549  0.62844425  1
  V  V81  1  0.61238115  0.62411786  0.50731165  1
  V  V82  1  0.50416449  0.37661720  0.38155739  1
  V  V83  1  0.24777353  0.37236507  0.12602956  1
  V  V84  1  0.12911551  0.12333958  0.00004817  1
  Zn  Zn85  1  0.37266103  -0.00481102  0.87026319  1
  Zn  Zn86  1  0.63216874  0.25909904  0.37608393  1
  Zn  Zn87  1  0.24135191  0.00136711  0.25666936  1
  Zn  Zn88  1  0.01041187  0.38119502  0.86255864  1
  Zn  Zn89  1  0.12753256  0.75414644  0.37250526  1
  Zn  Zn90  1  0.39154191  0.48784035  0.87207203  1
  Zn  Zn91  1  0.74950425  0.87613663  0.12669838  1
  Zn  Zn92  1  0.49142349  0.49751789  0.51361349  1
  Zn  Zn93  1  0.62731905  -0.00665747  0.62878797  1
  Zn  Zn94  1  0.06011582  0.31418761  0.19845475  1
  Zn  Zn95  1  0.00689482  0.26301273  0.74740767  1
  Zn  Zn96  1  0.37036826  0.12841774  0.25478593  1
  Zn  Zn97  1  0.87798100  0.00363087  0.37516984  1
  Zn  Zn98  1  0.00044889  0.00252591  0.49959686  1
  Zn  Zn99  1  0.49745976  0.87804326  0.37490193  1
  Zn  Zn100  1  0.00767799  0.87817916  0.87090007  1
  Zn  Zn101  1  0.12801559  0.25721806  0.86525113  1
  Zn  Zn102  1  0.50417623  0.12673617  0.62762832  1
  Zn  Zn103  1  -0.00030379  0.15142701  0.12203463  1
  Zn  Zn104  1  -0.00360978  0.50600829  -0.00486988  1
  Zn  Zn105  1  0.87411994  0.49774545  0.37752649  1
  Zn  Zn106  1  0.25609024  0.24793577  -0.00413608  1
  Zn  Zn107  1  0.19265793  0.17827623  0.18612464  1
  Zn  Zn108  1  0.18917727  0.18446225  0.68862968  1
  Zn  Zn109  1  0.18844480  0.68545970  0.18573406  1
  Zn  Zn110  1  0.18633028  0.68470165  0.68925795  1
  Zn  Zn111  1  0.68933689  0.18611067  0.18970879  1
  Zn  Zn112  1  0.68365788  0.18440492  0.68774301  1
  Zn  Zn113  1  0.68713898  0.68667840  0.18724066  1
  Zn  Zn114  1  0.68477510  0.68858878  0.68383881  1
  Zn  Zn115  1  0.31492468  0.31285338  0.31031331  1
  Zn  Zn116  1  0.30951958  0.30896762  0.81305145  1
  Zn  Zn117  1  0.31204566  0.81346255  0.31300958  1
  Zn  Zn118  1  0.31673447  0.80844761  0.81327304  1
  Zn  Zn119  1  0.81664091  0.31501912  0.31253702  1
  Zn  Zn120  1  0.81774180  0.31061373  0.81334627  1
  Zn  Zn121  1  0.81633074  0.81431418  0.31658278  1
  Zn  Zn122  1  0.81648512  0.81229467  0.81265851  1
  Zn  Zn123  1  0.18575849  0.43288176  0.44367894  1
  Zn  Zn124  1  0.19147630  0.43822439  0.94470662  1
  Zn  Zn125  1  0.18592464  0.93817950  0.44392379  1
  Zn  Zn126  1  0.19049623  0.93721638  0.93941079  1
  Zn  Zn127  1  0.68280942  0.44113320  0.44063581  1
  Zn  Zn128  1  0.68917691  0.43804039  0.93428870  1
  Zn  Zn129  1  0.67297978  0.92422276  0.46674457  1
  Zn  Zn130  1  0.68896324  0.93733904  0.93554017  1
  Zn  Zn131  1  0.31184467  0.05819962  0.06461388  1
  Zn  Zn132  1  0.30843323  0.06705446  0.56547318  1
  Zn  Zn133  1  0.31414946  0.55800170  0.06227449  1
  Zn  Zn134  1  0.30810082  0.56165735  0.56749586  1
  Zn  Zn135  1  0.81263283  0.06274802  0.06461901  1
  Zn  Zn136  1  0.81281140  0.06429680  0.56265610  1
  Zn  Zn137  1  0.80939757  0.56273575  0.06108710  1
  Zn  Zn138  1  0.81181625  0.56114270  0.56558922  1
  Zn  Zn139  1  0.43583858  0.43500967  0.19294217  1
  Zn  Zn140  1  0.43954370  0.43833320  0.68823484  1
  Zn  Zn141  1  0.43613037  0.93575992  0.18941370  1
  Zn  Zn142  1  0.43879581  0.93302953  0.68520128  1
  Zn  Zn143  1  0.93040121  0.44114594  0.18646791  1
  Zn  Zn144  1  0.93228443  0.43001068  0.68505642  1
  Zn  Zn145  1  0.93567929  0.93909796  0.18802094  1
  Zn  Zn146  1  0.93826114  0.93772545  0.68459136  1
  Zn  Zn147  1  0.05989346  0.06741843  0.31220609  1
  Zn  Zn148  1  0.06139386  0.06856772  0.81226736  1
  Zn  Zn149  1  0.06053285  0.56281142  0.31236723  1
  Zn  Zn150  1  0.06026404  0.56390220  0.81337308  1
  Zn  Zn151  1  0.56153863  0.06646527  0.31801014  1
  Zn  Zn152  1  0.56303498  0.06391212  0.81133271  1
  Zn  Zn153  1  0.56195366  0.55946324  0.31429054  1
  Zn  Zn154  1  0.56187536  0.56094412  0.80618926  1
  Zn  Zn155  1  0.43882548  0.19164102  0.43988930  1
  Zn  Zn156  1  0.43695192  0.18651557  0.93823275  1
  Zn  Zn157  1  0.43342325  0.68710220  0.43618490  1
  Zn  Zn158  1  0.45544932  0.65448120  0.92102563  1
  Zn  Zn159  1  0.94122656  0.18821087  0.43770207  1
  Zn  Zn160  1  0.94130394  0.18960341  0.93296316  1
  Zn  Zn161  1  0.93806965  0.68858151  0.43834918  1
  Zn  Zn162  1  0.93801556  0.68593216  0.93321267  1
  Zn  Zn163  1  0.06801138  0.31857110  0.02597646  1
  Zn  Zn164  1  0.06191400  0.30991114  0.56017796  1
  Zn  Zn165  1  0.06359185  0.81202404  0.05699546  1
  Zn  Zn166  1  0.06158170  0.81466177  0.56351385  1
  Zn  Zn167  1  0.56522515  0.31193995  0.06301283  1
  Zn  Zn168  1  0.56252968  0.31584141  0.56482008  1
  Zn  Zn169  1  0.56221328  0.81004468  0.06149006  1
  Zn  Zn170  1  0.56148720  0.81864067  0.56485207  1
  O  O171  1  0.12165275  0.11265656  0.11732692  1
  O  O172  1  0.11850468  0.11516818  0.61914651  1
  O  O173  1  0.11787727  0.62318370  0.11538436  1
  O  O174  1  0.11738801  0.61718650  0.61593550  1
  O  O175  1  0.61926734  0.11886440  0.12015011  1
  O  O176  1  0.62449579  0.11709900  0.61579727  1
  O  O177  1  0.62084757  0.61576121  0.12007067  1
  O  O178  1  0.62457767  0.61831690  0.61587736  1
  O  O179  1  0.38386706  0.38475833  0.37182369  1
  O  O180  1  0.37346421  0.37120169  0.89172705  1
  O  O181  1  0.37529499  0.88212414  0.38459665  1
  O  O182  1  0.38269581  0.87258610  0.88379498  1
  O  O183  1  0.88394315  0.37558934  0.38552900  1
  O  O184  1  0.86757515  0.39045855  0.88088536  1
  O  O185  1  0.88828302  0.87475183  0.38407652  1
  O  O186  1  0.87762814  0.88250856  0.88545481  1
  O  O187  1  0.26326521  -0.00698939  0.37674665  1
  O  O188  1  0.25540776  0.01020979  0.87792484  1
  O  O189  1  0.25410824  0.50046002  0.37316917  1
  O  O190  1  0.25219014  0.49283755  0.86321037  1
  O  O191  1  0.75043323  0.01061452  0.36312027  1
  O  O192  1  0.75592635  0.00603758  0.86753664  1
  O  O193  1  0.74818629  0.50950367  0.36969026  1
  O  O194  1  0.75941558  0.51097612  0.87564034  1
  O  O195  1  0.24262238  0.49376450  0.13030863  1
  O  O196  1  0.24168633  0.49028440  0.63102152  1
  O  O197  1  0.23958359  0.98863131  0.12456704  1
  O  O198  1  0.23636386  0.99390774  0.62230836  1
  O  O199  1  0.74155808  0.49607893  0.13306148  1
  O  O200  1  0.73224982  0.50286565  0.62047580  1
  O  O201  1  0.74223047  1.00004682  0.13663257  1
  O  O202  1  0.75743541  1.00598776  0.64640319  1
  O  O203  1  -0.00370820  0.38504427  0.26397189  1
  O  O204  1  0.00688698  0.38050762  0.74858844  1
  O  O205  1  -0.00610105  0.86589734  0.25782935  1
  O  O206  1  -0.00041908  0.86219305  0.75004857  1
  O  O207  1  0.49714883  0.36694349  0.26216629  1
  O  O208  1  0.50429907  0.36350900  0.75399142  1
  O  O209  1  0.50595991  0.86604490  0.25236983  1
  O  O210  1  0.49347983  0.86441115  0.76336711  1
  O  O211  1  0.49452520  0.13322741  0.24535433  1
  O  O212  1  0.49611252  0.13694848  0.74925273  1
  O  O213  1  0.49676157  0.63076798  0.24300663  1
  O  O214  1  0.49003071  0.63998726  0.74651778  1
  O  O215  1  0.98560780  0.12445064  0.24423305  1
  O  O216  1  0.99699938  0.12348569  0.73410397  1
  O  O217  1  0.99417022  0.63089522  0.24029663  1
  O  O218  1  1.00291652  0.63338580  0.73770919  1
  O  O219  1  0.37777610  0.25722539  0.01186549  1
  O  O220  1  0.36413709  0.24411383  0.50987845  1
  O  O221  1  0.38443559  0.75338964  0.01315116  1
  O  O222  1  0.37011218  0.75779001  0.50473790  1
  O  O223  1  0.86097401  0.25973571  -0.00799315  1
  O  O224  1  0.87780401  0.26103227  0.50539823  1
  O  O225  1  0.87127846  0.75732006  0.00251214  1
  O  O226  1  0.86983552  0.75310168  0.50853916  1
  O  O227  1  0.13368849  0.24446192  0.49280590  1
  O  O228  1  0.13637361  0.22781146  1.00120644  1
  O  O229  1  0.12859596  0.74042676  0.50092578  1
  O  O230  1  0.12119851  0.73692168  0.98921848  1
  O  O231  1  0.61884948  0.23863597  0.49873997  1
  O  O232  1  0.63324583  0.24752919  0.99208386  1
  O  O233  1  0.63217854  0.74176138  0.49526483  1
  O  O234  1  0.63084870  0.74127159  0.99388526  1
  O  O235  1  0.49663609  0.24624921  0.13225894  1
  O  O236  1  0.49208324  0.25071611  0.63348427  1
  O  O237  1  0.49542057  0.74382200  0.13659034  1
  O  O238  1  0.49046477  0.76053527  0.63140037  1
  O  O239  1  1.01389026  0.26304275  0.11213819  1
  O  O240  1  0.99527498  0.24053868  0.62326715  1
  O  O241  1  0.99514210  0.74606721  0.13053815  1
  O  O242  1  0.99612149  0.74265604  0.63068932  1
  O  O243  1  0.01183845  0.26030719  0.37775088  1
  O  O244  1  0.00215529  0.25765751  0.86984082  1
  O  O245  1  0.00164059  0.75532189  0.36589222  1
  O  O246  1  0.00601593  0.75016934  0.86596311  1
  O  O247  1  0.49777379  0.26238974  0.36894221  1
  O  O248  1  0.51418206  0.24394445  0.87073163  1
  O  O249  1  0.50208501  0.74873170  0.36320657  1
  O  O250  1  0.50954015  0.75174472  0.86793489  1
  O  O251  1  0.23670387  0.13706819  0.50643393  1
  O  O252  1  0.24521171  0.12072138  0.99363900  1
  O  O253  1  0.24052861  0.62930905  0.49801712  1
  O  O254  1  0.23922474  0.62600134  1.00585780  1
  O  O255  1  0.74254047  0.11842668  0.48823596  1
  O  O256  1  0.74484080  0.13176393  0.99585765  1
  O  O257  1  0.74502170  0.63254978  0.49254592  1
  O  O258  1  0.74211792  0.63297112  0.99498018  1
  O  O259  1  0.26195902  0.37266271  0.01470989  1
  O  O260  1  0.24806810  0.36566972  0.51551700  1
  O  O261  1  0.26557346  0.87654651  0.00859385  1
  O  O262  1  0.25792110  0.86990570  0.50745354  1
  O  O263  1  0.75344946  0.36878648  0.00655819  1
  O  O264  1  0.76372869  0.37633559  0.49062863  1
  O  O265  1  0.75806582  0.86902239  0.00098974  1
  O  O266  1  0.76528134  0.85566302  0.48160771  1
  O  O267  1  0.13022980  0.50902641  0.23618947  1
  O  O268  1  0.13327435  0.50902462  0.74181826  1
  O  O269  1  0.11944467  1.00070426  0.23671188  1
  O  O270  1  0.12133982  1.00193463  0.73605345  1
  O  O271  1  0.63662274  0.50643838  0.24201120  1
  O  O272  1  0.62350238  0.48614270  0.74702375  1
  O  O273  1  0.62988525  0.99617893  0.24838432  1
  O  O274  1  0.63796789  0.99912832  0.74967647  1
  O  O275  1  0.37900000  -0.00222399  0.26843210  1
  O  O276  1  0.38683239  0.01379454  0.74931820  1
  O  O277  1  0.36738165  0.50646454  0.25938996  1
  O  O278  1  0.36972825  0.50774102  0.75328659  1
  O  O279  1  0.86604954  0.00686694  0.25130151  1
  O  O280  1  0.86918423  -0.00677115  0.76286170  1
  O  O281  1  0.86135347  0.50886054  0.25308877  1
  O  O282  1  0.87147613  0.49842694  0.75909249  1
  O  O283  1  0.11634563  0.36653100  0.37941366  1
  O  O284  1  0.11262024  0.36289053  0.91976317  1
  O  O285  1  0.11243115  0.87273406  0.38155435  1
  O  O286  1  0.12439195  0.85871231  0.88450836  1
  O  O287  1  0.61018414  0.37692607  0.37629494  1
  O  O288  1  0.62956019  0.36755321  0.86400115  1
  O  O289  1  0.62039473  0.86622220  0.37287130  1
  O  O290  1  0.61756179  0.86099534  0.88273565  1
  O  O291  1  0.38407794  0.13310202  0.12151999  1
  O  O292  1  0.37579143  0.13577848  0.63336434  1
  O  O293  1  0.38277142  0.62826468  0.12903688  1
  O  O294  1  0.37158864  0.63972128  0.62653315  1
  O  O295  1  0.87733927  0.12535868  0.13611487  1
  O  O296  1  0.88643008  0.13868688  0.61368523  1
  O  O297  1  0.88114979  0.63038313  0.12922295  1
  O  O298  1  0.88547648  0.63416958  0.61738026  1
  O  O299  1  0.25961219  0.25620661  0.12460639  1
  O  O300  1  0.25605822  0.25582884  0.62020221  1
  O  O301  1  0.26069706  0.75584020  0.13007446  1
  O  O302  1  0.25423648  0.75725565  0.62059983  1
  O  O303  1  0.74104977  0.25986670  0.11621731  1
  O  O304  1  0.76444795  0.24029801  0.62649669  1
  O  O305  1  0.75694319  0.75082216  0.11910884  1
  O  O306  1  0.75929111  0.74497693  0.61563038  1
  O  O307  1  0.24472242  0.26060254  0.38630262  1
  O  O308  1  0.24985657  0.23472860  0.87807261  1
  O  O309  1  0.24796855  0.74320275  0.38202088  1
  O  O310  1  0.23603424  0.75109339  0.87206855  1
  O  O311  1  0.74932496  0.24009747  0.36905247  1
  O  O312  1  0.74361481  0.24321571  0.88060756  1
  O  O313  1  0.74623328  0.73846544  0.37831719  1
  O  O314  1  0.74549340  0.74573090  0.87924387  1
  O  O315  1  0.00707105  0.11677047  0.00230542  1
  O  O316  1  0.01179011  0.12554590  0.50833103  1
  O  O317  1  0.00151947  0.62643333  0.01263407  1
  O  O318  1  0.00524903  0.61729014  0.50581262  1
  O  O319  1  0.50696846  0.11803777  0.00592344  1
  O  O320  1  0.50459181  0.12120954  0.50371432  1
  O  O321  1  0.51311447  0.63603719  0.01925813  1
  O  O322  1  0.51024001  0.62435563  0.49326711  1
  O  O323  1  0.49820036  0.37573751  0.48635125  1
  O  O324  1  0.48765293  0.37410040  1.00601758  1
  O  O325  1  0.48389372  0.88302769  0.49782782  1
  O  O326  1  0.49273295  0.87570592  0.99201556  1
  O  O327  1  0.99485640  0.38240869  0.49263806  1
  O  O328  1  0.97713657  0.38703512  1.00161701  1
  O  O329  1  0.99284360  0.87497984  0.49203824  1
  O  O330  1  0.99148581  0.88205410  0.99604365  1
  O  O331  1  0.49154951  0.48972427  0.37522223  1
  O  O332  1  0.48718964  0.54590306  0.88610296  1
  O  O333  1  0.48789811  1.00010549  0.38618969  1
  O  O334  1  0.50183617  0.98807483  0.88013998  1
  O  O335  1  0.99949158  0.49594261  0.38656453  1
  O  O336  1  0.98455833  0.50295346  0.87605445  1
  O  O337  1  0.99819257  0.99268745  0.37676813  1
  O  O338  1  0.99325756  1.00045415  0.88309491  1
  O  O339  1  0.00566701  -0.00541146  0.11277842  1
  O  O340  1  0.00867951  0.00708051  0.62181286  1
  O  O341  1  0.00584904  0.50955705  0.12532804  1
  O  O342  1  0.00368548  0.50557391  0.61808241  1
  O  O343  1  0.50527289  0.00320061  0.12122456  1
  O  O344  1  0.50036146  -0.00005325  0.61201342  1
  O  O345  1  0.50864021  0.50768366  0.13504024  1
  O  O346  1  0.51483999  0.49430792  0.62535899  1
  O  O347  1  0.25648311  0.38222941  0.23621761  1
  O  O348  1  0.25407095  0.38231629  0.73919339  1
  O  O349  1  0.25373488  0.87937143  0.23766030  1
  O  O350  1  0.25675789  0.87369778  0.73893312  1
  O  O351  1  0.75336134  0.38432602  0.24328011  1
  O  O352  1  0.73947698  0.37034527  0.75016173  1
  O  O353  1  0.74536581  0.88287144  0.25221350  1
  O  O354  1  0.74932108  0.88643475  0.75537965  1
  O  O355  1  0.25923504  0.11301989  0.24534783  1
  O  O356  1  0.26403687  0.12527090  0.75714764  1
  O  O357  1  0.25385444  0.61765868  0.25668264  1
  O  O358  1  0.25999565  0.61110689  0.73720995  1
  O  O359  1  0.75992024  0.12041911  0.25479556  1
  O  O360  1  0.74726104  0.12015150  0.76313380  1
  O  O361  1  0.75339493  0.62084605  0.25833797  1
  O  O362  1  0.74803076  0.63180233  0.76098749  1
  O  O363  1  0.37625393  0.11207835  0.37893429  1
  O  O364  1  0.37098200  0.12238491  0.86733371  1
  O  O365  1  0.36673323  0.61777163  0.36984527  1
  O  O366  1  0.35998551  0.64262606  0.85739435  1
  O  O367  1  0.87040843  0.12554825  0.36665927  1
  O  O368  1  0.86501820  0.11445630  0.88424512  1
  O  O369  1  0.86662478  0.62272112  0.37162216  1
  O  O370  1  0.86614607  0.61346620  0.87753143  1
  O  O371  1  0.13199603  0.38456625  0.12139989  1
  O  O372  1  0.13042410  0.38505040  0.61967070  1
  O  O373  1  0.13540566  0.87984133  0.11594107  1
  O  O374  1  0.13135569  0.88930295  0.61966289  1
  O  O375  1  0.63336291  0.38781878  0.11936807  1
  O  O376  1  0.62492270  0.37845211  0.63978780  1
  O  O377  1  0.62611058  0.87984685  0.13347727  1
  O  O378  1  0.64121705  0.89304045  0.57735732  1
  O  O379  1  0.13304068  0.24845531  0.26140238  1
  O  O380  1  0.12070064  0.24112434  0.75297916  1
  O  O381  1  0.11166164  0.74297901  0.25112267  1
  O  O382  1  0.11873475  0.74172276  0.76515370  1
  O  O383  1  0.61262496  0.24750391  0.25152354  1
  O  O384  1  0.62032049  0.25873833  0.75555228  1
  O  O385  1  0.61807543  0.75373819  0.25504791  1
  O  O386  1  0.61732249  0.74838827  0.75688454  1
  O  O387  1  0.38424484  0.25058437  0.23833446  1
  O  O388  1  0.38249772  0.24303155  0.74590282  1
  O  O389  1  0.38213821  0.74366680  0.24438356  1
  O  O390  1  0.38113523  0.74626435  0.73946165  1
  O  O391  1  0.87353580  0.23846965  0.24739954  1
  O  O392  1  0.87956880  0.25596606  0.73282072  1
  O  O393  1  0.88227081  0.74512182  0.24460399  1
  O  O394  1  0.88251058  0.75375383  0.73783020  1
  O  O395  1  0.37481817  0.50831740  0.48913288  1
  O  O396  1  0.37455769  0.48534563  0.99966339  1
  O  O397  1  0.37572321  0.99692486  0.49410356  1
  O  O398  1  0.38527543  0.98887191  1.00056314  1
  O  O399  1  0.88229331  0.48906236  0.50168275  1
  O  O400  1  0.86993089  0.49533877  0.99184063  1
  O  O401  1  0.87570704  0.98933615  0.49803671  1
  O  O402  1  0.88022684  0.99352111  0.99527481  1
  O  O403  1  0.11705230  0.00411019  0.00567255  1
  O  O404  1  0.12347447  0.01079723  0.50665464  1
  O  O405  1  0.12338870  0.51438311  0.01070248  1
  O  O406  1  0.11647966  0.50538473  0.50914062  1
  O  O407  1  0.62050793  0.00311585  0.00588521  1
  O  O408  1  0.61017368  0.01885223  0.48666492  1
  O  O409  1  0.63102352  0.51151710  0.00733731  1
  O  O410  1  0.61945297  0.50843132  0.50771280  1
  O  O411  1  0.37130635  0.36888079  0.11912154  1
  O  O412  1  0.36807051  0.36224320  0.63056044  1
  O  O413  1  0.37059004  0.86630759  0.12063164  1
  O  O414  1  0.36632007  0.86895150  0.61769435  1
  O  O415  1  0.85782682  0.38352791  0.11681072  1
  O  O416  1  0.87540209  0.36207713  0.61004494  1
  O  O417  1  0.87295879  0.87049808  0.11385704  1
  O  O418  1  0.88201281  0.86486573  0.61153417  1
  O  O419  1  0.12023989  0.13549153  0.38371524  1
  O  O420  1  0.13440782  0.11952487  0.88304134  1
  O  O421  1  0.12870539  0.62348831  0.38787168  1
  O  O422  1  0.12214710  0.63014506  0.88996143  1
  O  O423  1  0.63497588  0.13301930  0.37904557  1
  O  O424  1  0.63321267  0.13178691  0.88156315  1
  O  O425  1  0.63137234  0.62885653  0.38145320  1
  O  O426  1  0.63342227  0.63387899  0.88131643  1
