# generated using pymatgen
data_V85Zn86O256
_symmetry_space_group_name_H-M   'P 1'
_cell_length_a   16.96482615
_cell_length_b   16.95051724
_cell_length_c   16.96056180
_cell_angle_alpha   90.16370905
_cell_angle_beta   90.00593639
_cell_angle_gamma   89.92746120
_symmetry_Int_Tables_number   1
_chemical_formula_structural   V85Zn86O256
_chemical_formula_sum   'V85 Zn86 O256'
_cell_volume   4877.19903541
_cell_formula_units_Z   1
loop_
 _symmetry_equiv_pos_site_id
 _symmetry_equiv_pos_as_xyz
  1  'x, y, z'
loop_
 _atom_site_type_symbol
 _atom_site_label
 _atom_site_symmetry_multiplicity
 _atom_site_fract_x
 _atom_site_fract_y
 _atom_site_fract_z
 _atom_site_occupancy
  V  V0  1  0.12175183  0.00367815  0.13201661  1
  V  V1  1  0.62422944  0.37472193  0.74640147  1
  V  V2  1  0.12847679  0.49849437  0.13074392  1
  V  V3  1  0.24402653  0.25310098  0.48486249  1
  V  V4  1  0.37443454  0.01276101  0.37228185  1
  V  V5  1  0.00031664  0.37162152  0.37503524  1
  V  V6  1  0.74569706  0.00483940  0.75713570  1
  V  V7  1  0.37335819  0.87565193  -0.00011225  1
  V  V8  1  0.49574602  0.12468826  0.13277153  1
  V  V9  1  0.87555647  0.87503419  0.50173706  1
  V  V10  1  0.23972434  0.00455089  0.74973111  1
  V  V11  1  0.50273126  0.62951425  0.62696726  1
  V  V12  1  0.88250168  0.49297456  0.87470055  1
  V  V13  1  0.62482811  0.62923647  0.48718766  1
  V  V14  1  0.74906970  0.87464190  0.62593302  1
  V  V15  1  0.49978537  0.00019987  0.49840765  1
  V  V16  1  0.49863722  0.62230109  0.12447510  1
  V  V17  1  0.25412046  0.01248730  0.25395938  1
  V  V18  1  0.24129024  0.88000245  0.62503713  1
  V  V19  1  0.12135948  0.62391763  0.00026130  1
  V  V20  1  0.36925819  0.12836272  0.75490169  1
  V  V21  1  0.12180074  0.75473278  0.87590529  1
  V  V22  1  -0.00385067  0.74483998  0.25057489  1
  V  V23  1  0.87855404  0.24050745  0.12502471  1
  V  V24  1  0.62777896  0.12628881  0.49532065  1
  V  V25  1  0.24785195  0.75202024  0.00025552  1
  V  V26  1  0.74736177  0.75125508  0.49183295  1
  V  V27  1  0.87399745  0.13371423  0.73726423  1
  V  V28  1  0.13799748  0.11580532  0.49793682  1
  V  V29  1  0.37062960  0.49569139  0.87830989  1
  V  V30  1  0.86884750  0.87706804  0.00445560  1
  V  V31  1  0.00185647  0.87539718  0.37571212  1
  V  V32  1  0.49856702  0.25230459  0.75009083  1
  V  V33  1  0.37530664  0.87648341  0.49939357  1
  V  V34  1  -0.00098576  0.75359621  0.75111086  1
  V  V35  1  0.37727488  0.62744863  0.75019033  1
  V  V36  1  0.87136227  0.37679186  0.50992087  1
  V  V37  1  0.36657695  0.25719834  0.62396238  1
  V  V38  1  0.37062552  0.61696345  0.24880986  1
  V  V39  1  0.62608299  0.62521407  -0.00158923  1
  V  V40  1  -0.00164255  0.88420227  0.87727961  1
  V  V41  1  -0.00643776  0.62195034  0.12722647  1
  V  V42  1  0.88313313  0.36914984  -0.00108164  1
  V  V43  1  0.75523501  0.50628456  0.24553139  1
  V  V44  1  0.37489150  0.74992244  0.12809939  1
  V  V45  1  0.86959895  0.75161265  0.12577620  1
  V  V46  1  0.50129308  0.49553567  0.49065407  1
  V  V47  1  0.49704857  0.37453506  0.88070802  1
  V  V48  1  0.87632415  0.50503571  0.36997703  1
  V  V49  1  0.37711685  0.75155710  0.62797005  1
  V  V50  1  0.37449684  0.25409230  0.12625476  1
  V  V51  1  0.87372544  0.62644864  0.75146490  1
  V  V52  1  0.25098040  0.74959097  0.49891509  1
  V  V53  1  0.10687982  0.36863772  0.74093143  1
  V  V54  1  0.24790849  0.62468149  0.87188039  1
  V  V55  1  0.62788856  0.86794436  0.25090544  1
  V  V56  1  0.50232024  0.86751767  0.37461272  1
  V  V57  1  0.63354255  0.12882989  -0.00147059  1
  V  V58  1  0.62461941  0.26459474  0.37233496  1
  V  V59  1  0.75400687  0.36825215  0.12357332  1
  V  V60  1  0.25119346  0.37508790  0.11292989  1
  V  V61  1  0.13306442  0.37243419  0.25512738  1
  V  V62  1  0.87019383  0.01437387  0.87833554  1
  V  V63  1  0.62006535  0.86557187  0.74978002  1
  V  V64  1  0.62575321  0.49565954  0.11772863  1
  V  V65  1  0.75227325  -0.00382307  0.24979887  1
  V  V66  1  0.49690297  0.86652410  0.87061488  1
  V  V67  1  0.87862817  0.00894562  0.37842529  1
  V  V68  1  0.75075110  0.25731311  0.51116576  1
  V  V69  1  0.49916614  0.12695009  0.62612030  1
  V  V70  1  0.37169432  0.00477109  0.87553188  1
  V  V71  1  0.62985018  0.50051607  0.62210853  1
  V  V72  1  0.25042284  0.61358335  0.37121769  1
  V  V73  1  0.75139932  0.49512054  0.74806629  1
  V  V74  1  0.62795565  -0.00466226  0.12520388  1
  V  V75  1  0.00285651  0.24232129  0.25437475  1
  V  V76  1  0.00463263  0.62158774  0.62689357  1
  V  V77  1  0.14141148  0.12744840  -0.00066702  1
  V  V78  1  0.62335679  0.00053936  0.62602234  1
  V  V79  1  -0.00081996  0.01131362  0.00930746  1
  V  V80  1  0.24111499  0.49347009  0.73287449  1
  V  V81  1  0.00797855  -0.00097975  0.51327501  1
  V  V82  1  0.12725134  0.61675972  0.50491396  1
  V  V83  1  0.12628507  0.74677430  0.37417940  1
  V  V84  1  0.37637392  0.37388425  0.49360265  1
  Zn  Zn85  1  0.75364653  0.13001064  0.37516483  1
  Zn  Zn86  1  0.49339173  0.25449266  0.25730742  1
  Zn  Zn87  1  0.63404552  0.23648742  0.87286352  1
  Zn  Zn88  1  0.12552369  0.26186514  0.86919874  1
  Zn  Zn89  1  0.50344023  0.74625999  0.25470902  1
  Zn  Zn90  1  0.37878976  0.48994812  0.36545882  1
  Zn  Zn91  1  0.00201463  0.49907275  0.50125171  1
  Zn  Zn92  1  0.11863285  0.88558987  0.74623641  1
  Zn  Zn93  1  0.49337063  0.49562773  0.00072400  1
  Zn  Zn94  1  0.24973829  0.87663602  0.13077706  1
  Zn  Zn95  1  0.26752939  0.24971025  -0.01359641  1
  Zn  Zn96  1  0.50028962  0.00051993  0.00118933  1
  Zn  Zn97  1  0.75403255  0.63103445  0.36668384  1
  Zn  Zn98  1  0.88008942  0.12138798  0.24869093  1
  Zn  Zn99  1  0.62082263  0.37749120  0.24779836  1
  Zn  Zn100  1  0.74796835  0.62492325  0.87547913  1
  Zn  Zn101  1  0.87414422  0.75039511  0.62558930  1
  Zn  Zn102  1  0.74665547  0.75414796  -0.00056808  1
  Zn  Zn103  1  0.12969058  0.87498794  0.25110595  1
  Zn  Zn104  1  0.01268265  0.14372508  0.63163597  1
  Zn  Zn105  1  0.62470746  0.74677280  0.87397384  1
  Zn  Zn106  1  0.00485648  0.49125396  -0.00478087  1
  Zn  Zn107  1  0.18756700  0.18965604  0.18492025  1
  Zn  Zn108  1  0.18798955  0.18896769  0.68193565  1
  Zn  Zn109  1  0.18629150  0.68723976  0.18819043  1
  Zn  Zn110  1  0.18820908  0.69105153  0.68923035  1
  Zn  Zn111  1  0.69074377  0.18230869  0.18914421  1
  Zn  Zn112  1  0.68863248  0.18704974  0.68780007  1
  Zn  Zn113  1  0.68794945  0.68486268  0.18404968  1
  Zn  Zn114  1  0.69065065  0.68590672  0.68299618  1
  Zn  Zn115  1  0.31468422  0.31017315  0.30747692  1
  Zn  Zn116  1  0.30336461  0.31510786  0.81285827  1
  Zn  Zn117  1  0.31255764  0.81436581  0.31204123  1
  Zn  Zn118  1  0.30916943  0.81380894  0.81067601  1
  Zn  Zn119  1  0.81206981  0.31482254  0.31306547  1
  Zn  Zn120  1  0.81150169  0.31074261  0.81333080  1
  Zn  Zn121  1  0.81629326  0.81595771  0.31232970  1
  Zn  Zn122  1  0.80975738  0.81435920  0.81792557  1
  Zn  Zn123  1  0.18887489  0.43250900  0.43966430  1
  Zn  Zn124  1  0.18386194  0.43622277  0.92948511  1
  Zn  Zn125  1  0.19033413  0.93802487  0.43342715  1
  Zn  Zn126  1  0.18629065  0.94581378  0.93744915  1
  Zn  Zn127  1  0.69379298  0.44240337  0.43697638  1
  Zn  Zn128  1  0.70656282  0.40406536  0.92059072  1
  Zn  Zn129  1  0.68778676  0.93768210  0.43395532  1
  Zn  Zn130  1  0.68510956  0.93841307  0.93802464  1
  Zn  Zn131  1  0.31528994  0.06063633  0.07073949  1
  Zn  Zn132  1  0.31276054  0.06474477  0.56493890  1
  Zn  Zn133  1  0.30754283  0.56136795  0.06149679  1
  Zn  Zn134  1  0.31721853  0.56253970  0.55839367  1
  Zn  Zn135  1  0.80884130  0.06106558  0.06610620  1
  Zn  Zn136  1  0.80947058  0.06061469  0.56032492  1
  Zn  Zn137  1  0.81273173  0.55865679  0.05796555  1
  Zn  Zn138  1  0.81330281  0.56366654  0.56098326  1
  Zn  Zn139  1  0.43998800  0.43126088  0.18713630  1
  Zn  Zn140  1  0.43574563  0.44073879  0.68444522  1
  Zn  Zn141  1  0.43823912  0.93807017  0.19044995  1
  Zn  Zn142  1  0.43484474  0.93939451  0.68877913  1
  Zn  Zn143  1  0.94076869  0.43386953  0.18899603  1
  Zn  Zn144  1  0.94037753  0.43963900  0.68577559  1
  Zn  Zn145  1  0.93913996  0.93461531  0.19011449  1
  Zn  Zn146  1  0.93256682  0.94225234  0.69170251  1
  Zn  Zn147  1  0.06835388  0.06542066  0.32131784  1
  Zn  Zn148  1  0.04594060  0.10041950  0.83084062  1
  Zn  Zn149  1  0.06192794  0.55928031  0.31169461  1
  Zn  Zn150  1  0.06395515  0.56030824  0.81062333  1
  Zn  Zn151  1  0.56313738  0.05987294  0.31279026  1
  Zn  Zn152  1  0.55639108  0.05890471  0.81590731  1
  Zn  Zn153  1  0.56335141  0.55904199  0.30607280  1
  Zn  Zn154  1  0.56017742  0.55927190  0.81303792  1
  Zn  Zn155  1  0.44155780  0.19130965  0.43873934  1
  Zn  Zn156  1  0.44614329  0.18721179  0.94274210  1
  Zn  Zn157  1  0.43610451  0.68524012  0.43732425  1
  Zn  Zn158  1  0.43860543  0.68564309  0.93820556  1
  Zn  Zn159  1  0.96036602  0.20843632  0.47354590  1
  Zn  Zn160  1  0.94357375  0.19559818  0.93824402  1
  Zn  Zn161  1  0.93660050  0.68687221  0.43982003  1
  Zn  Zn162  1  0.93606525  0.68866469  0.93695739  1
  Zn  Zn163  1  0.06171452  0.30671411  0.06782078  1
  Zn  Zn164  1  0.06661651  0.31728220  0.57082979  1
  Zn  Zn165  1  0.05910389  0.81837372  0.06482655  1
  Zn  Zn166  1  0.06295933  0.80603519  0.56214144  1
  Zn  Zn167  1  0.56178391  0.30863712  0.06412822  1
  Zn  Zn168  1  0.56086714  0.31400321  0.56237896  1
  Zn  Zn169  1  0.55937022  0.81249261  0.06298241  1
  Zn  Zn170  1  0.56329136  0.81053355  0.56161363  1
  O  O171  1  0.12973777  0.11071793  0.11715919  1
  O  O172  1  0.12569823  0.12814139  0.60800460  1
  O  O173  1  0.11880543  0.61868684  0.11894948  1
  O  O174  1  0.11752259  0.63520372  0.61608713  1
  O  O175  1  0.62030649  0.11500640  0.12009117  1
  O  O176  1  0.61935544  0.12113036  0.61556928  1
  O  O177  1  0.61802445  0.61796418  0.11846587  1
  O  O178  1  0.61826789  0.62015009  0.61710993  1
  O  O179  1  0.37234807  0.37464240  0.38662813  1
  O  O180  1  0.38336178  0.38578720  0.86499799  1
  O  O181  1  0.38283097  0.88151786  0.38257497  1
  O  O182  1  0.37883991  0.87827221  0.88040430  1
  O  O183  1  0.88109211  0.38673170  0.37846525  1
  O  O184  1  0.87570284  0.38051265  0.88522693  1
  O  O185  1  0.88481035  0.88248776  0.38290304  1
  O  O186  1  0.88426540  0.88461358  0.88145505  1
  O  O187  1  0.25962914  -0.00181947  0.36378749  1
  O  O188  1  0.26519496  -0.00772466  0.86558690  1
  O  O189  1  0.25459610  0.51136734  0.37956745  1
  O  O190  1  0.25552184  0.50782866  0.86629762  1
  O  O191  1  0.76266838  0.00092453  0.37198710  1
  O  O192  1  0.75704948  -0.00618188  0.86674145  1
  O  O193  1  0.75774969  0.50280400  0.36340212  1
  O  O194  1  0.76226083  0.49950317  0.86471339  1
  O  O195  1  0.23655398  0.49385968  0.12137073  1
  O  O196  1  0.25161167  0.51140679  0.63577931  1
  O  O197  1  0.24562591  0.99731849  0.13888287  1
  O  O198  1  0.25954748  0.98956516  0.63551216  1
  O  O199  1  0.74582035  0.49453802  0.12935801  1
  O  O200  1  0.73624630  0.50757095  0.62879582  1
  O  O201  1  0.74153815  0.99943885  0.13697841  1
  O  O202  1  0.74153092  0.99239132  0.63105239  1
  O  O203  1  0.00776766  0.36643142  0.25754158  1
  O  O204  1  0.00656247  0.37353696  0.74692696  1
  O  O205  1  0.00361258  0.86810254  0.26379902  1
  O  O206  1  -0.00060646  0.87450843  0.75912340  1
  O  O207  1  0.50793153  0.36823474  0.24709400  1
  O  O208  1  0.50302517  0.36947352  0.75234906  1
  O  O209  1  0.50718722  0.87222024  0.25853198  1
  O  O210  1  0.50815986  0.87972516  0.75696316  1
  O  O211  1  0.51159407  0.12879176  0.23598135  1
  O  O212  1  0.49231747  0.13125348  0.74554409  1
  O  O213  1  0.49309264  0.62809286  0.24245431  1
  O  O214  1  0.49023958  0.61895352  0.73947137  1
  O  O215  1  1.00060790  0.13827421  0.26098722  1
  O  O216  1  0.97933421  0.11118475  0.73799491  1
  O  O217  1  1.00444713  0.63289111  0.23993860  1
  O  O218  1  0.99440216  0.63161135  0.74527447  1
  O  O219  1  0.37990168  0.24443239  0.01691725  1
  O  O220  1  0.37169710  0.25565043  0.50478998  1
  O  O221  1  0.36853233  0.75497775  0.00620165  1
  O  O222  1  0.36937280  0.75520972  0.50625558  1
  O  O223  1  0.88088849  0.25354117  0.01375752  1
  O  O224  1  0.86143797  0.26956853  0.48836355  1
  O  O225  1  0.87661941  0.75964916  0.00765805  1
  O  O226  1  0.86815920  0.75762659  0.50329248  1
  O  O227  1  0.14243860  0.24587068  0.50110519  1
  O  O228  1  0.12424047  0.23131582  1.00576489  1
  O  O229  1  0.13145230  0.73987424  0.49263810  1
  O  O230  1  0.12787321  0.74639843  0.99675263  1
  O  O231  1  0.62985020  0.24609685  0.49184733  1
  O  O232  1  0.62208445  0.23156990  1.00231282  1
  O  O233  1  0.63429651  0.74114321  0.50267024  1
  O  O234  1  0.62591650  0.74101588  1.00173614  1
  O  O235  1  0.49655636  0.23860113  0.12815456  1
  O  O236  1  0.49344043  0.24432173  0.63026590  1
  O  O237  1  0.48645466  0.74297545  0.12477303  1
  O  O238  1  0.49451688  0.73749804  0.62020024  1
  O  O239  1  0.98625586  0.25218531  0.13842346  1
  O  O240  1  0.98826705  0.24156661  0.58197604  1
  O  O241  1  0.99531003  0.74348301  0.13274268  1
  O  O242  1  0.99646179  0.74305962  0.63391738  1
  O  O243  1  -0.00614617  0.26478230  0.37127183  1
  O  O244  1  0.02497650  0.20991187  0.86684974  1
  O  O245  1  0.00312116  0.75372054  0.36917251  1
  O  O246  1  0.00234875  0.76167746  0.87095139  1
  O  O247  1  0.52086941  0.24402684  0.37570763  1
  O  O248  1  0.50500819  0.25829681  0.86706804  1
  O  O249  1  0.49564478  0.76312773  0.37575856  1
  O  O250  1  0.50043100  0.76243697  0.87716114  1
  O  O251  1  0.24552060  0.13361273  0.50207606  1
  O  O252  1  0.24419826  0.12691706  1.00896524  1
  O  O253  1  0.24568558  0.63032792  0.49350128  1
  O  O254  1  0.23777068  0.63132334  0.99438549  1
  O  O255  1  0.74297409  0.13354858  0.49841761  1
  O  O256  1  0.73274991  0.11828022  1.00349896  1
  O  O257  1  0.74205443  0.63436830  0.49886397  1
  O  O258  1  0.73643682  0.62416339  0.99982847  1
  O  O259  1  0.24060123  0.37357017  0.01032990  1
  O  O260  1  0.25773244  0.36188698  0.49902576  1
  O  O261  1  0.26012022  0.87163052  0.00063111  1
  O  O262  1  0.25583738  0.87155908  0.50670271  1
  O  O263  1  0.76795471  0.38316043  0.01805741  1
  O  O264  1  0.76090627  0.37262673  0.49846124  1
  O  O265  1  0.76499698  0.87641225  -0.00349937  1
  O  O266  1  0.75254359  0.87009476  0.50515988  1
  O  O267  1  0.11979273  0.48927196  0.23963567  1
  O  O268  1  0.13693665  0.49856295  0.74888472  1
  O  O269  1  0.13385725  1.00018884  0.24893509  1
  O  O270  1  0.13934488  1.00538538  0.75779108  1
  O  O271  1  0.63269264  0.49947319  0.23491399  1
  O  O272  1  0.63188296  0.49980068  0.73985419  1
  O  O273  1  0.63318375  0.99191742  0.24552547  1
  O  O274  1  0.62921048  0.99470827  0.74648068  1
  O  O275  1  0.36365190  -0.00222293  0.25743995  1
  O  O276  1  0.37034618  0.01002056  0.75741381  1
  O  O277  1  0.37871290  0.51305208  0.24811443  1
  O  O278  1  0.36635332  0.51156616  0.75361405  1
  O  O279  1  0.87069534  -0.00174339  0.25923413  1
  O  O280  1  0.86294268  0.00513735  0.76038324  1
  O  O281  1  0.86800060  0.49599503  0.25592680  1
  O  O282  1  0.86894663  0.50557068  0.75287942  1
  O  O283  1  0.11548601  0.38248272  0.36591234  1
  O  O284  1  0.12624111  0.38031327  0.85081672  1
  O  O285  1  0.11752860  0.86539526  0.37698111  1
  O  O286  1  0.11112043  0.87611607  0.87745811  1
  O  O287  1  0.62898931  0.36631680  0.37602584  1
  O  O288  1  0.60878227  0.39454841  0.85350478  1
  O  O289  1  0.61469947  0.88088204  0.36459780  1
  O  O290  1  0.61471788  0.87530530  0.86706106  1
  O  O291  1  0.39112331  0.12768839  0.12625843  1
  O  O292  1  0.38319285  0.13207237  0.63275177  1
  O  O293  1  0.37620715  0.63007249  0.12950244  1
  O  O294  1  0.38319580  0.63026308  0.62986205  1
  O  O295  1  0.87161517  0.13699045  0.12782300  1
  O  O296  1  0.86869295  0.12124481  0.63628806  1
  O  O297  1  0.88924081  0.63122371  0.11475939  1
  O  O298  1  0.88018268  0.62762899  0.63686238  1
  O  O299  1  0.25795968  0.25845406  0.12073161  1
  O  O300  1  0.26527720  0.24657517  0.61464856  1
  O  O301  1  0.25922256  0.75084548  0.11921461  1
  O  O302  1  0.25721697  0.75829876  0.61954298  1
  O  O303  1  0.76421416  0.25696431  0.13470968  1
  O  O304  1  0.74124380  0.25171766  0.61030060  1
  O  O305  1  0.76668023  0.74434184  0.12350988  1
  O  O306  1  0.75145743  0.75890620  0.61510225  1
  O  O307  1  0.25567995  0.24836578  0.38689372  1
  O  O308  1  0.24060419  0.25260918  0.87797467  1
  O  O309  1  0.24566725  0.74320393  0.38111397  1
  O  O310  1  0.24166024  0.74590362  0.88008312  1
  O  O311  1  0.73891858  0.24919163  0.38326348  1
  O  O312  1  0.72837348  0.29461377  0.88407782  1
  O  O313  1  0.75725657  0.74976836  0.38698974  1
  O  O314  1  0.74490103  0.74541763  0.87996434  1
  O  O315  1  0.00433474  0.11238398  0.00537565  1
  O  O316  1  0.01370354  0.10807868  0.50004133  1
  O  O317  1  0.01124794  0.62748835  0.00594046  1
  O  O318  1  0.00963335  0.62687692  0.50855810  1
  O  O319  1  0.50957058  0.11893857  0.01554964  1
  O  O320  1  0.50806086  0.11978424  0.50657996  1
  O  O321  1  0.50915244  0.62156783  0.00594005  1
  O  O322  1  0.50750817  0.62062651  0.50524614  1
  O  O323  1  0.49368053  0.38547537  0.50122241  1
  O  O324  1  0.50757719  0.37531063  0.98408689  1
  O  O325  1  0.49733716  0.88129668  0.49460918  1
  O  O326  1  0.48680043  0.87639286  0.99362329  1
  O  O327  1  0.98948013  0.38080749  0.49136076  1
  O  O328  1  0.98918151  0.37410811  1.00714331  1
  O  O329  1  0.99840152  0.87665861  0.49221148  1
  O  O330  1  0.99090554  0.88538017  0.99407370  1
  O  O331  1  0.49888049  0.50768304  0.38705991  1
  O  O332  1  0.48685784  0.49378168  0.87463734  1
  O  O333  1  0.49404157  0.99097711  0.37939878  1
  O  O334  1  0.48667836  0.98722155  0.87739060  1
  O  O335  1  0.99257548  0.49230230  0.37538799  1
  O  O336  1  0.98653075  0.50621248  0.87487136  1
  O  O337  1  0.99675563  0.99010695  0.38203786  1
  O  O338  1  0.99022892  0.99889168  0.88516030  1
  O  O339  1  0.00834940  -0.00422791  0.12165728  1
  O  O340  1  -0.00030838  -0.00766757  0.61321173  1
  O  O341  1  0.00873841  0.50740782  0.12287312  1
  O  O342  1  -0.00379255  0.51803915  0.62193665  1
  O  O343  1  0.50622369  0.00932614  0.12772974  1
  O  O344  1  0.50444653  0.00592790  0.61941670  1
  O  O345  1  0.50717788  0.50384604  0.12016460  1
  O  O346  1  0.50803408  0.51150468  0.61532205  1
  O  O347  1  0.23669819  0.36931096  0.24247132  1
  O  O348  1  0.25413614  0.39289583  0.74230136  1
  O  O349  1  0.24741705  0.88426274  0.25002981  1
  O  O350  1  0.24736017  0.88436688  0.74160304  1
  O  O351  1  0.74750485  0.38569213  0.23910586  1
  O  O352  1  0.74181029  0.38926447  0.74482516  1
  O  O353  1  0.74234646  0.88574273  0.25820952  1
  O  O354  1  0.74243060  0.88406212  0.74504821  1
  O  O355  1  0.24686585  0.11157947  0.24840458  1
  O  O356  1  0.26316942  0.11985578  0.74258923  1
  O  O357  1  0.25760703  0.63001748  0.25935529  1
  O  O358  1  0.25437278  0.62001427  0.75556423  1
  O  O359  1  0.75457457  0.11038524  0.25654592  1
  O  O360  1  0.75400539  0.11216750  0.74736197  1
  O  O361  1  0.74754654  0.61236259  0.24933586  1
  O  O362  1  0.75747002  0.61558233  0.74934540  1
  O  O363  1  0.38492516  0.11158950  0.37909639  1
  O  O364  1  0.38497251  0.11703937  0.86677022  1
  O  O365  1  0.36713282  0.62453472  0.36576641  1
  O  O366  1  0.36992933  0.62153809  0.86648028  1
  O  O367  1  0.87870852  0.11170403  0.37913006  1
  O  O368  1  0.87429501  0.11590286  0.87033275  1
  O  O369  1  0.87481811  0.61015320  0.38103562  1
  O  O370  1  0.87396405  0.61977939  0.86351833  1
  O  O371  1  0.12933084  0.38176396  0.13088547  1
  O  O372  1  0.12192811  0.38592978  0.63939784  1
  O  O373  1  0.12731939  0.88744725  0.12808633  1
  O  O374  1  0.13790177  0.86943050  0.62554123  1
  O  O375  1  0.63582974  0.37949296  0.12061299  1
  O  O376  1  0.61602628  0.38704344  0.63579616  1
  O  O377  1  0.61562983  0.88768381  0.13319388  1
  O  O378  1  0.62750872  0.88064211  0.63198111  1
  O  O379  1  0.11463195  0.25908366  0.24221602  1
  O  O380  1  0.12879161  0.26537463  0.74177568  1
  O  O381  1  0.11392978  0.75089089  0.25572428  1
  O  O382  1  0.11711885  0.75614682  0.75917198  1
  O  O383  1  0.63250975  0.24988938  0.26619758  1
  O  O384  1  0.61911875  0.25881840  0.74951052  1
  O  O385  1  0.62537234  0.76388026  0.24126385  1
  O  O386  1  0.62974680  0.76289718  0.74818968  1
  O  O387  1  0.37706270  0.24853541  0.23487065  1
  O  O388  1  0.37763192  0.24534609  0.74284244  1
  O  O389  1  0.37627127  0.74165701  0.24146528  1
  O  O390  1  0.36751214  0.73629815  0.74431324  1
  O  O391  1  0.88216332  0.24776463  0.24368717  1
  O  O392  1  0.86531667  0.23211774  0.75272109  1
  O  O393  1  0.88768455  0.75536325  0.24293593  1
  O  O394  1  0.88011258  0.74323245  0.75140574  1
  O  O395  1  0.38463252  0.49200823  0.49804422  1
  O  O396  1  0.37285168  0.50764444  0.98309488  1
  O  O397  1  0.38031580  0.99531642  0.49445152  1
  O  O398  1  0.37411974  0.99228178  0.99413296  1
  O  O399  1  0.87339375  0.49167127  0.49150350  1
  O  O400  1  0.88052017  0.49207652  0.99112132  1
  O  O401  1  0.88407938  0.99371535  0.49561151  1
  O  O402  1  0.87982066  0.99718637  0.99762964  1
  O  O403  1  0.11833280  0.00333770  0.01337705  1
  O  O404  1  0.12394234  0.00600059  0.49927649  1
  O  O405  1  0.12263723  0.50904244  0.00410614  1
  O  O406  1  0.12517434  0.51362125  0.49565936  1
  O  O407  1  0.62188156  0.00262096  0.01019854  1
  O  O408  1  0.62140478  0.00755775  0.50509890  1
  O  O409  1  0.62516610  0.50532008  0.01112299  1
  O  O410  1  0.62058628  0.50641959  0.50461684  1
  O  O411  1  0.36190630  0.37007793  0.12625658  1
  O  O412  1  0.38243286  0.36663805  0.61189873  1
  O  O413  1  0.37543984  0.86710216  0.11776786  1
  O  O414  1  0.37051883  0.86910043  0.61979042  1
  O  O415  1  0.87159247  0.36543293  0.12198951  1
  O  O416  1  0.87587573  0.38430331  0.60836269  1
  O  O417  1  0.88314627  0.86461235  0.11630334  1
  O  O418  1  0.86594595  0.87596305  0.61970134  1
  O  O419  1  0.12560417  0.12706212  0.39751769  1
  O  O420  1  0.13722800  0.10107034  0.90155552  1
  O  O421  1  0.13221338  0.62845266  0.37938384  1
  O  O422  1  0.12669331  0.63174520  0.88283188  1
  O  O423  1  0.62709037  0.12425526  0.38808147  1
  O  O424  1  0.61692270  0.12064569  0.89196516  1
  O  O425  1  0.62758900  0.62134336  0.38484408  1
  O  O426  1  0.62327073  0.62467062  0.88375379  1
