# generated using pymatgen
data_V85Zn86O256
_symmetry_space_group_name_H-M   'P 1'
_cell_length_a   16.94221129
_cell_length_b   16.94728445
_cell_length_c   16.93338809
_cell_angle_alpha   90.02393493
_cell_angle_beta   89.96811317
_cell_angle_gamma   90.02524126
_symmetry_Int_Tables_number   1
_chemical_formula_structural   V85Zn86O256
_chemical_formula_sum   'V85 Zn86 O256'
_cell_volume   4861.98850066
_cell_formula_units_Z   1
loop_
 _symmetry_equiv_pos_site_id
 _symmetry_equiv_pos_as_xyz
  1  'x, y, z'
loop_
 _atom_site_type_symbol
 _atom_site_label
 _atom_site_symmetry_multiplicity
 _atom_site_fract_x
 _atom_site_fract_y
 _atom_site_fract_z
 _atom_site_occupancy
  V  V0  1  0.74824821  0.75212665  -0.00001326  1
  V  V1  1  0.37799889  0.37693874  -0.00120824  1
  V  V2  1  0.37506685  0.50318528  0.86415308  1
  V  V3  1  0.24960491  0.12759253  0.38057363  1
  V  V4  1  0.25499789  0.50231243  0.25102357  1
  V  V5  1  0.37793329  0.50182813  0.38466442  1
  V  V6  1  0.00319786  0.12404630  0.12479182  1
  V  V7  1  0.62389098  0.00368296  0.62308367  1
  V  V8  1  0.25099620  -0.00315610  0.24508835  1
  V  V9  1  0.75009596  0.62529099  0.87263925  1
  V  V10  1  0.63045338  0.23999461  0.87200464  1
  V  V11  1  0.25361554  0.37555315  0.12392019  1
  V  V12  1  0.00008129  0.00037983  -0.00215199  1
  V  V13  1  0.87644494  0.38355645  0.51141576  1
  V  V14  1  0.62020751  0.60628277  0.50710835  1
  V  V15  1  0.87585243  0.87474111  -0.00200966  1
  V  V16  1  0.24932012  0.12262422  0.86905738  1
  V  V17  1  0.38323737  0.62963112  0.24962741  1
  V  V18  1  0.62851037  0.86073959  0.25599310  1
  V  V19  1  0.75019718  0.01341701  0.75518565  1
  V  V20  1  0.75033406  0.24090011  -0.00230123  1
  V  V21  1  0.00191898  0.87801766  0.37522542  1
  V  V22  1  0.00087065  0.74918737  0.74822187  1
  V  V23  1  0.12750232  0.25084620  0.38773048  1
  V  V24  1  0.62454997  0.50061951  0.12334503  1
  V  V25  1  0.74428889  0.13240382  0.37195307  1
  V  V26  1  0.87297179  0.74897571  0.62504864  1
  V  V27  1  0.62430198  0.87544554  0.75222434  1
  V  V28  1  0.00117624  0.00491148  0.51232917  1
  V  V29  1  0.50065204  0.50444083  -0.00271550  1
  V  V30  1  0.38022197  0.76413454  0.12725144  1
  V  V31  1  0.62035397  0.74613142  0.87242244  1
  V  V32  1  0.87669472  0.25244393  0.12631882  1
  V  V33  1  0.73653122  0.75114568  0.49822497  1
  V  V34  1  0.87518399  0.62332112  0.74928964  1
  V  V35  1  0.00016360  0.87605981  0.87278873  1
  V  V36  1  0.49781447  -0.00511940  0.49618057  1
  V  V37  1  0.63328591  -0.00215209  0.13018421  1
  V  V38  1  0.62648159  0.37079659  0.25474524  1
  V  V39  1  0.12205579  0.49389955  0.61701274  1
  V  V40  1  0.49743617  0.88047456  0.88913500  1
  V  V41  1  0.87595314  0.75001032  0.12267746  1
  V  V42  1  0.36696841  0.36742778  0.50110747  1
  V  V43  1  0.12903040  0.37218544  0.25242774  1
  V  V44  1  0.87400826  0.87447445  0.49967117  1
  V  V45  1  0.87803996  0.37503846  0.00095968  1
  V  V46  1  0.74857643  0.87528776  0.62598006  1
  V  V47  1  0.74414918  0.62764090  0.37529877  1
  V  V48  1  0.50225655  0.37415849  0.38211731  1
  V  V49  1  0.37288498  0.11746614  0.74813225  1
  V  V50  1  0.25629332  0.75106867  0.50656343  1
  V  V51  1  0.12842537  0.50111052  0.12500280  1
  V  V52  1  0.75003346  0.49981462  0.25091231  1
  V  V53  1  -0.00286831  0.24467705  0.75397698  1
  V  V54  1  0.49717752  0.85585165  0.37218340  1
  V  V55  1  0.37598558  0.12572649  0.25084595  1
  V  V56  1  0.12249049  0.12250097  0.51119278  1
  V  V57  1  0.50182410  0.24886096  0.74692031  1
  V  V58  1  0.50207523  0.11772981  0.11926815  1
  V  V59  1  0.50545646  0.24752296  0.25288586  1
  V  V60  1  0.86801003  -0.00006308  0.37179998  1
  V  V61  1  0.00253237  0.62402045  0.12411881  1
  V  V62  1  -0.00060499  0.62000651  0.61320920  1
  V  V63  1  0.12833536  0.75021915  0.87283368  1
  V  V64  1  0.50954569  0.37194465  0.87275070  1
  V  V65  1  0.36960558  0.24862877  0.62082989  1
  V  V66  1  0.00444737  0.24851708  0.25342719  1
  V  V67  1  0.86871666  0.01198800  0.87319873  1
  V  V68  1  0.37563004  -0.00488149  0.37872016  1
  V  V69  1  0.00165652  0.75144563  0.24873137  1
  V  V70  1  0.00512904  0.49713830  -0.00627014  1
  V  V71  1  0.12692984  0.88882669  0.73914624  1
  V  V72  1  0.87310519  0.12095145  0.24976385  1
  V  V73  1  0.48196641  0.75354550  0.74305158  1
  V  V74  1  0.25471795  0.76386530  0.00660359  1
  V  V75  1  0.12996687  0.87486637  0.24462036  1
  V  V76  1  0.25868940  0.63006631  0.86856167  1
  V  V77  1  0.87332071  0.23448558  0.62830978  1
  V  V78  1  0.74077510  0.48940932  0.74827935  1
  V  V79  1  0.87859216  0.49381501  0.87287409  1
  V  V80  1  0.25183626  0.25092854  -0.00306041  1
  V  V81  1  0.12655048  0.12503714  -0.00117236  1
  V  V82  1  0.37713291  -0.00086105  0.89012937  1
  V  V83  1  0.87444549  0.62470584  0.25026619  1
  V  V84  1  0.26047923  0.88725796  0.62039099  1
  Zn  Zn85  1  0.62588979  0.11288297  -0.00315923  1
  Zn  Zn86  1  0.62222929  0.12353379  0.48824388  1
  Zn  Zn87  1  0.37994026  0.24917779  0.12443485  1
  Zn  Zn88  1  0.12495107  0.74829883  0.37746144  1
  Zn  Zn89  1  0.11466413  0.26241249  0.87804282  1
  Zn  Zn90  1  0.25057993  0.37519147  0.62918445  1
  Zn  Zn91  1  0.49677491  0.12107289  0.62080485  1
  Zn  Zn92  1  0.13055508  0.62735629  0.00042708  1
  Zn  Zn93  1  0.24692663  0.50164717  0.74706255  1
  Zn  Zn94  1  0.12306172  0.62644229  0.49542015  1
  Zn  Zn95  1  -0.00023174  0.38011770  0.38414318  1
  Zn  Zn96  1  0.75134639  0.37462263  0.12507973  1
  Zn  Zn97  1  0.48856525  0.61940473  0.62935397  1
  Zn  Zn98  1  0.50069892  0.63051648  0.12805277  1
  Zn  Zn99  1  0.24770048  0.62986762  0.37611078  1
  Zn  Zn100  1  0.62428906  0.62602770  0.00001323  1
  Zn  Zn101  1  0.88058512  0.50083899  0.38448492  1
  Zn  Zn102  1  0.12009082  0.37917606  0.76159514  1
  Zn  Zn103  1  0.75492230  0.87849171  0.13529574  1
  Zn  Zn104  1  0.74632759  0.25332757  0.50041047  1
  Zn  Zn105  1  0.13153104  -0.00483549  0.12039764  1
  Zn  Zn106  1  0.71947392  0.37576708  0.62388694  1
  Zn  Zn107  1  0.19075838  0.18600166  0.18758914  1
  Zn  Zn108  1  0.18513222  0.19376164  0.69138002  1
  Zn  Zn109  1  0.19184340  0.68850548  0.18903388  1
  Zn  Zn110  1  0.18758300  0.68969909  0.68327802  1
  Zn  Zn111  1  0.69034736  0.18658596  0.18709978  1
  Zn  Zn112  1  0.68721959  0.19188471  0.68430761  1
  Zn  Zn113  1  0.68650154  0.68642709  0.18496550  1
  Zn  Zn114  1  0.68316102  0.68383185  0.68641027  1
  Zn  Zn115  1  0.31502075  0.30999902  0.31403019  1
  Zn  Zn116  1  0.31254604  0.31490632  0.80774017  1
  Zn  Zn117  1  0.31237312  0.81016965  0.31719648  1
  Zn  Zn118  1  0.30675212  0.82450850  0.81167861  1
  Zn  Zn119  1  0.81752496  0.31477506  0.31599395  1
  Zn  Zn120  1  0.81605140  0.30979585  0.81148501  1
  Zn  Zn121  1  0.81163701  0.81023509  0.31385158  1
  Zn  Zn122  1  0.81085433  0.81634793  0.81254394  1
  Zn  Zn123  1  0.18910220  0.43912130  0.44019696  1
  Zn  Zn124  1  0.19019581  0.43942421  0.93329168  1
  Zn  Zn125  1  0.18639393  0.93824185  0.43886522  1
  Zn  Zn126  1  0.18871889  0.93958573  0.93107180  1
  Zn  Zn127  1  0.69396034  0.43411497  0.43614822  1
  Zn  Zn128  1  0.69098531  0.43415738  0.93557500  1
  Zn  Zn129  1  0.68477393  0.93685782  0.43265038  1
  Zn  Zn130  1  0.68543446  0.93722482  0.94100080  1
  Zn  Zn131  1  0.31361764  0.06415630  0.06437263  1
  Zn  Zn132  1  0.30976774  0.06005278  0.56131564  1
  Zn  Zn133  1  0.31463392  0.57058486  0.05848185  1
  Zn  Zn134  1  0.31134467  0.56418720  0.56671457  1
  Zn  Zn135  1  0.81222046  0.06093706  0.06469287  1
  Zn  Zn136  1  0.80908724  0.05910150  0.55793538  1
  Zn  Zn137  1  0.81232038  0.56311850  0.06129874  1
  Zn  Zn138  1  0.80465752  0.55990819  0.56695908  1
  Zn  Zn139  1  0.44032218  0.43836441  0.18850187  1
  Zn  Zn140  1  0.50819997  0.41540079  0.65670977  1
  Zn  Zn141  1  0.44457943  0.93786369  0.19445979  1
  Zn  Zn142  1  0.43815621  0.93776603  0.69215960  1
  Zn  Zn143  1  0.94271778  0.43961290  0.19635491  1
  Zn  Zn144  1  0.94007730  0.43336178  0.68802918  1
  Zn  Zn145  1  0.94064759  0.93863675  0.18557794  1
  Zn  Zn146  1  0.93494998  0.93938041  0.69086982  1
  Zn  Zn147  1  0.06402232  0.06106486  0.31775852  1
  Zn  Zn148  1  0.05760570  0.06909986  0.81119864  1
  Zn  Zn149  1  0.06271756  0.56040475  0.31553200  1
  Zn  Zn150  1  0.06607656  0.56400302  0.80767160  1
  Zn  Zn151  1  0.56267361  0.05404747  0.30467143  1
  Zn  Zn152  1  0.55944673  0.06347497  0.81217272  1
  Zn  Zn153  1  0.56157702  0.56227770  0.31849393  1
  Zn  Zn154  1  0.54104403  0.54891435  0.78277676  1
  Zn  Zn155  1  0.44074697  0.18543231  0.43644879  1
  Zn  Zn156  1  0.43879330  0.18676490  0.93726434  1
  Zn  Zn157  1  0.42155939  0.67542978  0.46846771  1
  Zn  Zn158  1  0.43596736  0.69177433  0.93780606  1
  Zn  Zn159  1  0.93603018  0.19132643  0.44268539  1
  Zn  Zn160  1  0.93710276  0.18822121  0.93581553  1
  Zn  Zn161  1  0.93132381  0.69114227  0.43513011  1
  Zn  Zn162  1  0.93977961  0.68467410  0.93635691  1
  Zn  Zn163  1  0.06406121  0.31402420  0.06157325  1
  Zn  Zn164  1  0.05176128  0.31150407  0.56981635  1
  Zn  Zn165  1  0.06598487  0.81276364  0.06086420  1
  Zn  Zn166  1  0.06414366  0.81075642  0.56092945  1
  Zn  Zn167  1  0.56577116  0.31090551  0.06468055  1
  Zn  Zn168  1  0.56513215  0.29617829  0.55353463  1
  Zn  Zn169  1  0.56346685  0.81597196  0.06640264  1
  Zn  Zn170  1  0.55704596  0.81491545  0.56215464  1
  O  O171  1  0.12312374  0.12371801  0.11297025  1
  O  O172  1  0.13526827  0.13152748  0.60935467  1
  O  O173  1  0.12017583  0.61927203  0.12492507  1
  O  O174  1  0.11375302  0.61804794  0.62337214  1
  O  O175  1  0.62139510  0.11209713  0.12917991  1
  O  O176  1  0.62298511  0.11013890  0.62655656  1
  O  O177  1  0.62082471  0.61466168  0.12172586  1
  O  O178  1  0.61791814  0.62901932  0.61036204  1
  O  O179  1  0.38176406  0.37809973  0.38029911  1
  O  O180  1  0.38261057  0.38008667  0.88606430  1
  O  O181  1  0.38905755  0.88356345  0.36554738  1
  O  O182  1  0.38033221  0.89219454  0.87138863  1
  O  O183  1  0.87447738  0.37521418  0.39263996  1
  O  O184  1  0.87479461  0.38738537  0.88317845  1
  O  O185  1  0.88056841  0.88184577  0.37772041  1
  O  O186  1  0.88203804  0.87841637  0.88208324  1
  O  O187  1  0.25710155  0.00460689  0.36737662  1
  O  O188  1  0.26343876  0.00963753  0.87812069  1
  O  O189  1  0.25940902  0.49799482  0.36537659  1
  O  O190  1  0.26003974  0.51377589  0.88049916  1
  O  O191  1  0.76387809  0.00397698  0.37506782  1
  O  O192  1  0.75652554  -0.00777268  0.86753574  1
  O  O193  1  0.75579554  0.50685920  0.36472886  1
  O  O194  1  0.76240187  0.50610780  0.87409565  1
  O  O195  1  0.24909263  0.49624208  0.12957771  1
  O  O196  1  0.23720259  0.50070208  0.62518010  1
  O  O197  1  0.25067882  1.00540637  0.14019666  1
  O  O198  1  0.24491291  0.98679964  0.62006570  1
  O  O199  1  0.73965874  0.49961159  0.12837257  1
  O  O200  1  0.74532139  0.49781276  0.64394692  1
  O  O201  1  0.73991241  0.99756256  0.12835539  1
  O  O202  1  0.74339015  0.99337937  0.63136330  1
  O  O203  1  0.01070215  0.35735473  0.24255067  1
  O  O204  1  0.00390109  0.35582925  0.73921858  1
  O  O205  1  0.00438150  0.87060680  0.25638001  1
  O  O206  1  0.00617786  0.86930443  0.75497719  1
  O  O207  1  0.50763166  0.36690120  0.25432091  1
  O  O208  1  0.49049248  0.35611860  0.76282162  1
  O  O209  1  0.51013599  0.87150134  0.26428963  1
  O  O210  1  0.50981313  0.87048539  0.75856943  1
  O  O211  1  0.49729490  0.13133603  0.24448170  1
  O  O212  1  0.49060672  0.13262766  0.74874279  1
  O  O213  1  0.48689147  0.61972910  0.25060495  1
  O  O214  1  0.50036466  0.65430930  0.75754812  1
  O  O215  1  0.99767110  0.13280518  0.24684856  1
  O  O216  1  1.00366875  0.14199927  0.74533963  1
  O  O217  1  0.99577051  0.63256873  0.24040806  1
  O  O218  1  0.99214512  0.63151772  0.74327080  1
  O  O219  1  0.37003391  0.25853103  0.00161920  1
  O  O220  1  0.38003502  0.25357682  0.50777724  1
  O  O221  1  0.36406178  0.75027061  0.01238530  1
  O  O222  1  0.35326212  0.76779610  0.49102877  1
  O  O223  1  0.87157548  0.25739592  0.00391937  1
  O  O224  1  0.86952787  0.25590777  0.51290233  1
  O  O225  1  0.86985964  0.75479196  0.00167844  1
  O  O226  1  0.86571930  0.75727865  0.50700401  1
  O  O227  1  0.11604008  0.24557289  0.49088983  1
  O  O228  1  0.13302126  0.24316898  0.99852469  1
  O  O229  1  0.13080202  0.74803974  0.49639693  1
  O  O230  1  0.13604504  0.75075940  0.99243058  1
  O  O231  1  0.63319518  0.23475845  0.49439812  1
  O  O232  1  0.63620392  0.24965089  0.99502129  1
  O  O233  1  0.63531440  0.75109614  0.50285758  1
  O  O234  1  0.63290509  0.75091862  0.99392178  1
  O  O235  1  0.50176985  0.24330329  0.13654406  1
  O  O236  1  0.48882935  0.24086624  0.63317735  1
  O  O237  1  0.48433849  0.74822400  0.11737769  1
  O  O238  1  0.49959743  0.75716902  0.64065247  1
  O  O239  1  0.99734015  0.24201740  0.13029577  1
  O  O240  1  0.98132756  0.24527438  0.63066081  1
  O  O241  1  0.99567306  0.74376834  0.12663018  1
  O  O242  1  0.99196393  0.74356049  0.62994158  1
  O  O243  1  0.00819356  0.25163752  0.36720447  1
  O  O244  1  -0.00482320  0.24844176  0.86120851  1
  O  O245  1  -0.00300799  0.76325162  0.36889299  1
  O  O246  1  0.00888644  0.75469847  0.87091436  1
  O  O247  1  0.49684470  0.25602495  0.36041809  1
  O  O248  1  0.50735776  0.25442925  0.87164350  1
  O  O249  1  0.48879257  0.76020323  0.38590392  1
  O  O250  1  0.50494788  0.76121166  0.87147454  1
  O  O251  1  0.24205523  0.11804113  0.48576179  1
  O  O252  1  0.24528777  0.13227999  0.99497585  1
  O  O253  1  0.24634828  0.64068171  0.49920548  1
  O  O254  1  0.24886630  0.63809754  0.98829315  1
  O  O255  1  0.75129382  0.12116981  0.47991592  1
  O  O256  1  0.74965358  0.13765526  1.00445449  1
  O  O257  1  0.74175155  0.63142521  0.49557940  1
  O  O258  1  0.75016049  0.63643017  0.99255109  1
  O  O259  1  0.25951328  0.36951467  0.00339053  1
  O  O260  1  0.26351738  0.37365489  0.50303650  1
  O  O261  1  0.24674433  0.86267492  -0.00352282  1
  O  O262  1  0.23888245  0.87021682  0.51405302  1
  O  O263  1  0.76412754  0.36971656  0.00277813  1
  O  O264  1  0.75830393  0.37273483  0.50688032  1
  O  O265  1  0.75662049  0.86299424  0.00085410  1
  O  O266  1  0.75317639  0.86958899  0.50338570  1
  O  O267  1  0.13959152  0.49379658  0.24433238  1
  O  O268  1  0.12593540  0.49945643  0.73547424  1
  O  O269  1  0.13359841  0.99437383  0.24970748  1
  O  O270  1  0.11908839  0.98609804  0.75853968  1
  O  O271  1  0.63387237  0.49632795  0.24347899  1
  O  O272  1  0.64593422  0.50207738  0.77402442  1
  O  O273  1  0.62375608  0.98432872  0.23774602  1
  O  O274  1  0.62770781  0.99284802  0.74543368  1
  O  O275  1  0.37013896  0.00561046  0.25924814  1
  O  O276  1  0.37899985  0.01426058  0.75811742  1
  O  O277  1  0.36703150  0.50410362  0.25360769  1
  O  O278  1  0.36717861  0.49689483  0.76628592  1
  O  O279  1  0.88379754  0.01232664  0.25611036  1
  O  O280  1  0.86270253  -0.00660402  0.76126503  1
  O  O281  1  0.85788815  0.50752656  0.23741837  1
  O  O282  1  0.87129598  0.50350148  0.75815693  1
  O  O283  1  0.12475399  0.36745666  0.37099368  1
  O  O284  1  0.12057734  0.37603904  0.87816280  1
  O  O285  1  0.11378837  0.87807283  0.36467163  1
  O  O286  1  0.12195531  0.86615902  0.86611122  1
  O  O287  1  0.61796377  0.38312298  0.36245890  1
  O  O288  1  0.61337813  0.36508608  0.88188736  1
  O  O289  1  0.61499739  0.87464869  0.36407648  1
  O  O290  1  0.61885195  0.86867396  0.86967742  1
  O  O291  1  0.38505255  0.12496887  0.13265916  1
  O  O292  1  0.37300654  0.12803983  0.63171287  1
  O  O293  1  0.37784887  0.63238480  0.13374284  1
  O  O294  1  0.39224484  0.63724026  0.57582709  1
  O  O295  1  0.88182560  0.12974561  0.13263098  1
  O  O296  1  0.86443252  0.13596842  0.62224499  1
  O  O297  1  0.88157045  0.63057507  0.12875371  1
  O  O298  1  0.87896584  0.62784221  0.63092148  1
  O  O299  1  0.25353733  0.25473261  0.11356720  1
  O  O300  1  0.26584368  0.25410558  0.63187809  1
  O  O301  1  0.25719324  0.74886055  0.11257479  1
  O  O302  1  0.24295079  0.76247406  0.61375495  1
  O  O303  1  0.75881686  0.25263992  0.11796410  1
  O  O304  1  0.76008257  0.25757288  0.62802979  1
  O  O305  1  0.75733768  0.75031296  0.11569832  1
  O  O306  1  0.75357713  0.75514240  0.61966710  1
  O  O307  1  0.23981875  0.24004967  0.36956157  1
  O  O308  1  0.25359506  0.24285993  0.88717310  1
  O  O309  1  0.24393567  0.75268481  0.38693497  1
  O  O310  1  0.24661912  0.74992342  0.88198798  1
  O  O311  1  0.75540134  0.23433560  0.37200945  1
  O  O312  1  0.74107480  0.25670786  0.88290761  1
  O  O313  1  0.75668513  0.73966125  0.38662048  1
  O  O314  1  0.74293308  0.74688752  0.88047642  1
  O  O315  1  0.00879807  0.12172460  0.00296429  1
  O  O316  1  0.00820760  0.11562285  0.49296693  1
  O  O317  1  0.00293295  0.61728259  0.00889652  1
  O  O318  1  -0.00528800  0.62968898  0.51071823  1
  O  O319  1  0.50421591  0.13325798  0.01646842  1
  O  O320  1  0.50195177  0.10922697  0.49884063  1
  O  O321  1  0.50162492  0.61270563  -0.00210245  1
  O  O322  1  0.52378570  0.62200042  0.48313800  1
  O  O323  1  0.49384589  0.36702042  0.48434582  1
  O  O324  1  0.49561569  0.38247234  0.99514102  1
  O  O325  1  0.50752441  0.88572413  0.48489650  1
  O  O326  1  0.50329054  0.87385927  0.98792372  1
  O  O327  1  0.98236430  0.37251181  0.50064801  1
  O  O328  1  0.98880664  0.38447723  1.00642170  1
  O  O329  1  0.99453971  0.88108544  0.49190925  1
  O  O330  1  0.99699358  0.88057272  0.99310599  1
  O  O331  1  0.48778381  0.48636800  0.36464209  1
  O  O332  1  0.49533434  0.49105299  0.87845910  1
  O  O333  1  0.49204818  0.99702690  0.37860026  1
  O  O334  1  0.48802774  0.99538494  0.87372809  1
  O  O335  1  0.98521674  0.48527151  0.33860337  1
  O  O336  1  0.99472596  0.51007453  0.88761242  1
  O  O337  1  0.98950882  0.99091925  0.37790740  1
  O  O338  1  0.99134390  0.99616281  0.87959948  1
  O  O339  1  0.00321521  0.00783140  0.11575618  1
  O  O340  1  -0.00872523  -0.00233880  0.61127551  1
  O  O341  1  0.00674121  0.50540602  0.11861043  1
  O  O342  1  0.01020041  0.50833872  0.62790319  1
  O  O343  1  0.51113121  0.00858466  0.13193959  1
  O  O344  1  0.50616584  -0.00365833  0.61569406  1
  O  O345  1  0.50828549  0.50045926  0.11548980  1
  O  O346  1  0.49987130  0.52043769  0.68009923  1
  O  O347  1  0.24896806  0.38035043  0.24357985  1
  O  O348  1  0.24351429  0.38013113  0.74762773  1
  O  O349  1  0.24066713  0.88400952  0.25757435  1
  O  O350  1  0.23448221  0.87259335  0.73592052  1
  O  O351  1  0.74437959  0.38201694  0.24999533  1
  O  O352  1  0.75303640  0.38729161  0.75189801  1
  O  O353  1  0.73552608  0.86931986  0.25304861  1
  O  O354  1  0.73745600  0.87941757  0.74592877  1
  O  O355  1  0.25452077  0.11798443  0.25944752  1
  O  O356  1  0.25487331  0.13159404  0.76358326  1
  O  O357  1  0.25999759  0.61616448  0.25152996  1
  O  O358  1  0.24520063  0.62830063  0.76431589  1
  O  O359  1  0.76378221  0.12764071  0.25722653  1
  O  O360  1  0.74198430  0.11167252  0.75025321  1
  O  O361  1  0.75202490  0.62013582  0.25622467  1
  O  O362  1  0.75753214  0.61951263  0.75486586  1
  O  O363  1  0.36767769  0.11866990  0.37011372  1
  O  O364  1  0.36998984  0.11734626  0.87169486  1
  O  O365  1  0.37214935  0.61533095  0.37093058  1
  O  O366  1  0.36971301  0.61735635  0.88020095  1
  O  O367  1  0.87076459  0.11882946  0.36760287  1
  O  O368  1  0.87270712  0.11094370  0.88176148  1
  O  O369  1  0.86623376  0.62173309  0.36746138  1
  O  O370  1  0.87157629  0.61606778  0.86929807  1
  O  O371  1  0.13432386  0.38019817  0.13025739  1
  O  O372  1  0.12513022  0.38722381  0.61916665  1
  O  O373  1  0.11891946  0.87796682  0.13949760  1
  O  O374  1  0.11867694  0.87783458  0.63783824  1
  O  O375  1  0.62620062  0.38519050  0.13532527  1
  O  O376  1  0.60552947  0.36736582  0.62885042  1
  O  O377  1  0.62735981  0.88096978  0.13577306  1
  O  O378  1  0.62782053  0.88474675  0.63254107  1
  O  O379  1  0.12099235  0.25119239  0.25733144  1
  O  O380  1  0.11304826  0.25296402  0.75533178  1
  O  O381  1  0.11969477  0.75791724  0.25129725  1
  O  O382  1  0.11885096  0.75736513  0.75643631  1
  O  O383  1  0.62032358  0.26044477  0.24485127  1
  O  O384  1  0.61519594  0.24235381  0.75986296  1
  O  O385  1  0.62220748  0.76167319  0.24260967  1
  O  O386  1  0.62520621  0.75977678  0.75803824  1
  O  O387  1  0.38340270  0.24279196  0.24660276  1
  O  O388  1  0.38137764  0.23849870  0.74649236  1
  O  O389  1  0.36515807  0.74196532  0.23644778  1
  O  O390  1  0.38348100  0.76201958  0.75405740  1
  O  O391  1  0.88544350  0.24268059  0.24714254  1
  O  O392  1  0.88127499  0.25107538  0.73903128  1
  O  O393  1  0.88087618  0.74433260  0.24325696  1
  O  O394  1  0.87895079  0.74522635  0.74550124  1
  O  O395  1  0.37173540  0.48785502  0.48770295  1
  O  O396  1  0.38402188  0.49381152  0.99588546  1
  O  O397  1  0.38101073  1.00155758  0.48642456  1
  O  O398  1  0.37630292  1.00501486  0.98912078  1
  O  O399  1  0.86935912  0.48899162  0.50288130  1
  O  O400  1  0.88251007  0.49423172  0.99507355  1
  O  O401  1  0.88026325  0.99329583  0.49096216  1
  O  O402  1  0.87835509  0.99276478  0.99512885  1
  O  O403  1  0.12099789  0.00722186  -0.00080460  1
  O  O404  1  0.11195780  0.01003374  0.49186810  1
  O  O405  1  0.11855799  0.50320729  0.00662362  1
  O  O406  1  0.12562599  0.50520969  0.51136076  1
  O  O407  1  0.62791049  -0.00289050  0.01951455  1
  O  O408  1  0.61938113  0.00156711  0.50633861  1
  O  O409  1  0.61911925  0.49862930  0.00541224  1
  O  O410  1  0.63275542  0.50748375  0.50208403  1
  O  O411  1  0.37311337  0.37522592  0.11359532  1
  O  O412  1  0.38685130  0.36559446  0.61146503  1
  O  O413  1  0.37843678  0.86305020  0.13417317  1
  O  O414  1  0.35967632  0.88270642  0.62960150  1
  O  O415  1  0.87629621  0.36910901  0.11985922  1
  O  O416  1  0.87204552  0.37145922  0.61589675  1
  O  O417  1  0.87485993  0.86948098  0.11768492  1
  O  O418  1  0.86718433  0.87001429  0.62074234  1
  O  O419  1  0.13207232  0.13289437  0.37982022  1
  O  O420  1  0.13310571  0.12631754  0.88552241  1
  O  O421  1  0.12741906  0.62696323  0.37581063  1
  O  O422  1  0.12953934  0.63933569  0.87566321  1
  O  O423  1  0.64310111  0.11320217  0.36428859  1
  O  O424  1  0.61863225  0.13529074  0.88161593  1
  O  O425  1  0.63988237  0.61939964  0.38063979  1
  O  O426  1  0.62917660  0.63979212  0.87647146  1
