# generated using pymatgen
data_V85Zn86O256
_symmetry_space_group_name_H-M   'P 1'
_cell_length_a   16.94058477
_cell_length_b   16.96905854
_cell_length_c   16.95376817
_cell_angle_alpha   90.06864276
_cell_angle_beta   89.90487429
_cell_angle_gamma   90.02698734
_symmetry_Int_Tables_number   1
_chemical_formula_structural   V85Zn86O256
_chemical_formula_sum   'V85 Zn86 O256'
_cell_volume   4873.61734970
_cell_formula_units_Z   1
loop_
 _symmetry_equiv_pos_site_id
 _symmetry_equiv_pos_as_xyz
  1  'x, y, z'
loop_
 _atom_site_type_symbol
 _atom_site_label
 _atom_site_symmetry_multiplicity
 _atom_site_fract_x
 _atom_site_fract_y
 _atom_site_fract_z
 _atom_site_occupancy
  V  V0  1  0.88349565  0.62361300  0.74220956  1
  V  V1  1  0.74458413  0.87827517  0.12383956  1
  V  V2  1  0.62152508  0.00177358  0.12992818  1
  V  V3  1  0.88348260  0.13671641  0.24840699  1
  V  V4  1  0.50435724  0.87348026  0.37097200  1
  V  V5  1  0.11941635  0.49269387  0.62363890  1
  V  V6  1  0.87605834  0.37247577  0.50192945  1
  V  V7  1  0.49840912  0.12521127  0.62922452  1
  V  V8  1  0.62002316  0.24893653  0.37481569  1
  V  V9  1  0.75543558  0.36925241  0.12345394  1
  V  V10  1  0.75163149  -0.00252991  0.74244016  1
  V  V11  1  0.37587981  0.37752960  -0.01115497  1
  V  V12  1  0.24077113  0.62872580  0.38503882  1
  V  V13  1  -0.00576992  0.12953211  0.11259393  1
  V  V14  1  0.36786939  0.74496281  0.63567462  1
  V  V15  1  0.01028312  0.00885470  0.50502527  1
  V  V16  1  0.88333079  0.50011561  0.87833547  1
  V  V17  1  0.36240609  0.75245197  0.12604116  1
  V  V18  1  0.87609348  0.50253796  0.38037885  1
  V  V19  1  0.37846251  0.00173937  0.87783123  1
  V  V20  1  0.62525851  0.49904538  0.62532764  1
  V  V21  1  0.87860462  0.00339485  0.87593870  1
  V  V22  1  0.37281970  0.62405081  0.24652837  1
  V  V23  1  0.00787212  0.24676133  0.74430753  1
  V  V24  1  0.12779974  0.73557491  0.87779455  1
  V  V25  1  0.37983737  0.25270418  0.62867130  1
  V  V26  1  0.61143653  0.37170829  0.75331017  1
  V  V27  1  0.50107216  0.62169675  0.12251387  1
  V  V28  1  0.49996971  0.24747856  0.23741554  1
  V  V29  1  0.75256299  -0.00174198  0.24835549  1
  V  V30  1  0.24385530  0.25080007  0.49942039  1
  V  V31  1  0.13231669  0.87330016  0.24765131  1
  V  V32  1  0.74930756  0.76498579  0.50206171  1
  V  V33  1  0.89762864  0.59604160  0.21422883  1
  V  V34  1  0.50068258  0.00263131  0.00456244  1
  V  V35  1  0.87495584  -0.00642982  0.38166652  1
  V  V36  1  0.25162188  -0.00181371  0.75002525  1
  V  V37  1  0.62490548  0.37292819  0.24861194  1
  V  V38  1  0.24507828  0.50045492  0.23752837  1
  V  V39  1  0.62596937  0.75122903  0.37254662  1
  V  V40  1  0.75502178  0.75001635  0.00125633  1
  V  V41  1  0.62895124  0.87370960  0.74285445  1
  V  V42  1  0.11463943  0.59146069  0.03713678  1
  V  V43  1  0.88041152  0.12499307  0.74086668  1
  V  V44  1  0.61407631  0.25251562  0.87209929  1
  V  V45  1  0.88371104  0.88166492  0.00039973  1
  V  V46  1  0.36192080  0.87677302  0.00501387  1
  V  V47  1  0.36086969  0.25034881  0.11934298  1
  V  V48  1  0.12274399  0.37443495  0.24185860  1
  V  V49  1  0.62486524  0.12470744  0.00278175  1
  V  V50  1  0.00461838  0.37426318  0.87055497  1
  V  V51  1  0.75091849  0.36930121  0.62850053  1
  V  V52  1  0.88092565  0.75618979  0.12618349  1
  V  V53  1  0.62707239  0.62535861  0.50045497  1
  V  V54  1  0.74783921  0.49964901  0.25085308  1
  V  V55  1  0.24952037  0.51621903  0.75775372  1
  V  V56  1  0.13495644  0.12084189  0.00168721  1
  V  V57  1  0.24888033  0.37573640  0.63637102  1
  V  V58  1  0.00121806  0.37147236  0.37165113  1
  V  V59  1  0.75407501  0.24814574  -0.00108787  1
  V  V60  1  0.37425261  -0.00071983  0.37383169  1
  V  V61  1  0.62123858  0.12503840  0.50082971  1
  V  V62  1  0.12168838  0.24600608  0.37023764  1
  V  V63  1  0.62913309  0.62135163  0.00089609  1
  V  V64  1  0.75253662  0.49650909  0.75079527  1
  V  V65  1  0.13307543  0.25378622  0.88031680  1
  V  V66  1  0.75701359  0.62383249  0.87634092  1
  V  V67  1  0.05786588  0.67895927  0.56580550  1
  V  V68  1  0.50183871  0.87415590  0.87582801  1
  V  V69  1  0.36729172  0.86438320  0.49914093  1
  V  V70  1  0.37883928  0.12427834  0.24564740  1
  V  V71  1  0.88247486  0.36949032  -0.00086570  1
  V  V72  1  0.37928828  0.13020872  0.75458449  1
  V  V73  1  0.86568873  0.75799830  0.62293858  1
  V  V74  1  0.74756788  0.12510973  0.37246324  1
  V  V75  1  -0.00213362  0.75357217  0.25297394  1
  V  V76  1  0.24799811  0.12408144  0.37423994  1
  V  V77  1  0.50761366  0.75212362  0.24585208  1
  V  V78  1  0.49392362  -0.00237756  0.50267381  1
  V  V79  1  0.62891353  0.75045266  0.87530089  1
  V  V80  1  0.37018857  0.50073908  0.37324844  1
  V  V81  1  0.37335353  0.37577143  0.49922331  1
  V  V82  1  0.49943087  0.50097884  0.49921044  1
  V  V83  1  0.00533359  0.87747844  0.87334564  1
  V  V84  1  0.75161114  0.62539675  0.37363670  1
  Zn  Zn85  1  0.12591587  0.87663789  0.74907597  1
  Zn  Zn86  1  0.12312034  0.74794195  0.38538691  1
  Zn  Zn87  1  0.75077189  0.12583424  0.87206453  1
  Zn  Zn88  1  0.49712925  0.74285924  0.75296044  1
  Zn  Zn89  1  0.25637220  0.13025780  0.87977101  1
  Zn  Zn90  1  0.50560171  0.48598115  -0.01554442  1
  Zn  Zn91  1  0.74889533  0.24785506  0.50146424  1
  Zn  Zn92  1  0.11609069  0.01579027  0.63308035  1
  Zn  Zn93  1  0.24387055  0.87544958  0.62054669  1
  Zn  Zn94  1  -0.00094060  0.87449605  0.37960569  1
  Zn  Zn95  1  0.88452667  0.24592694  0.62131611  1
  Zn  Zn96  1  0.49356525  0.62469295  0.63050450  1
  Zn  Zn97  1  0.00535889  0.50368277  0.50114071  1
  Zn  Zn98  1  0.12329354  -0.00557063  0.12078295  1
  Zn  Zn99  1  0.24132815  0.37843860  0.11557589  1
  Zn  Zn100  1  0.00182069  0.74980963  0.74838042  1
  Zn  Zn101  1  0.39125251  0.53716588  0.85373261  1
  Zn  Zn102  1  0.24768367  0.73514915  -0.00572841  1
  Zn  Zn103  1  0.25113096  -0.00577666  0.24302099  1
  Zn  Zn104  1  0.62665340  -0.00439046  0.62308858  1
  Zn  Zn105  1  0.49727570  0.37469100  0.37123848  1
  Zn  Zn106  1  0.62687867  0.49722558  0.12202338  1
  Zn  Zn107  1  0.18428254  0.18305964  0.18990858  1
  Zn  Zn108  1  0.18838321  0.18673979  0.69331974  1
  Zn  Zn109  1  0.18165719  0.68147073  0.18867335  1
  Zn  Zn110  1  0.19148855  0.69432067  0.69486358  1
  Zn  Zn111  1  0.69000819  0.18514600  0.18474798  1
  Zn  Zn112  1  0.68789179  0.18557612  0.68989108  1
  Zn  Zn113  1  0.69331334  0.68555191  0.18672303  1
  Zn  Zn114  1  0.68857032  0.68466057  0.68932604  1
  Zn  Zn115  1  0.30931576  0.31403219  0.30777615  1
  Zn  Zn116  1  0.31508072  0.31373181  0.81297046  1
  Zn  Zn117  1  0.31340955  0.80674857  0.31426644  1
  Zn  Zn118  1  0.30987748  0.81322925  0.81698015  1
  Zn  Zn119  1  0.80984831  0.31241374  0.31627221  1
  Zn  Zn120  1  0.81340217  0.30778669  0.81359078  1
  Zn  Zn121  1  0.81017260  0.81428585  0.30818730  1
  Zn  Zn122  1  0.81577071  0.81338897  0.81087373  1
  Zn  Zn123  1  0.18646755  0.43900850  0.43835361  1
  Zn  Zn124  1  0.19023443  0.43727028  0.94148263  1
  Zn  Zn125  1  0.18437446  0.93711703  0.42981436  1
  Zn  Zn126  1  0.18799203  0.94455432  0.93517277  1
  Zn  Zn127  1  0.68748034  0.43361426  0.43844321  1
  Zn  Zn128  1  0.68946047  0.43550656  0.93549194  1
  Zn  Zn129  1  0.68263818  0.94033980  0.43479808  1
  Zn  Zn130  1  0.69243366  0.93881242  0.93472922  1
  Zn  Zn131  1  0.30927415  0.06175069  0.06937629  1
  Zn  Zn132  1  0.27784933  0.08268766  0.58021553  1
  Zn  Zn133  1  0.31878274  0.57365936  0.02748690  1
  Zn  Zn134  1  0.30795084  0.56212748  0.56524665  1
  Zn  Zn135  1  0.81474427  0.06503763  0.06226612  1
  Zn  Zn136  1  0.80883688  0.06371558  0.56258688  1
  Zn  Zn137  1  0.82517262  0.55504092  0.06436491  1
  Zn  Zn138  1  0.81126559  0.56402812  0.56264079  1
  Zn  Zn139  1  0.43633827  0.43645428  0.18218905  1
  Zn  Zn140  1  0.43404676  0.44300287  0.68904451  1
  Zn  Zn141  1  0.43700891  0.93564580  0.18735661  1
  Zn  Zn142  1  0.43346294  0.93546805  0.68772393  1
  Zn  Zn143  1  0.93558565  0.42524806  0.18714680  1
  Zn  Zn144  1  0.94003599  0.43321877  0.69070544  1
  Zn  Zn145  1  0.94344901  0.94379991  0.18978152  1
  Zn  Zn146  1  0.94032172  0.93870501  0.68651525  1
  Zn  Zn147  1  0.06051136  0.06045302  0.31184087  1
  Zn  Zn148  1  0.06269459  0.06606450  0.81710815  1
  Zn  Zn149  1  0.06374268  0.56056237  0.30971299  1
  Zn  Zn150  1  0.06479053  0.55858351  0.80761563  1
  Zn  Zn151  1  0.55969317  0.06201585  0.31014013  1
  Zn  Zn152  1  0.56472518  0.06281903  0.81344993  1
  Zn  Zn153  1  0.56120060  0.56389844  0.31245384  1
  Zn  Zn154  1  0.56538084  0.56311372  0.81182226  1
  Zn  Zn155  1  0.43434977  0.18742591  0.43744283  1
  Zn  Zn156  1  0.43981450  0.18838778  0.94521883  1
  Zn  Zn157  1  0.43639620  0.68441829  0.43703075  1
  Zn  Zn158  1  0.43940478  0.69014244  0.94052416  1
  Zn  Zn159  1  0.93642865  0.18647279  0.43364030  1
  Zn  Zn160  1  0.93994846  0.18749158  0.93196713  1
  Zn  Zn161  1  0.92968207  0.69241983  0.43391554  1
  Zn  Zn162  1  0.95004996  0.68589261  0.94270359  1
  Zn  Zn163  1  0.05810983  0.30317723  0.06253197  1
  Zn  Zn164  1  0.06425786  0.31377958  0.55947559  1
  Zn  Zn165  1  0.06350128  0.81057518  0.06255716  1
  Zn  Zn166  1  0.05610904  0.84368442  0.56359098  1
  Zn  Zn167  1  0.56369700  0.31157372  0.06157203  1
  Zn  Zn168  1  0.56041857  0.31408264  0.56226849  1
  Zn  Zn169  1  0.56259079  0.81295721  0.06112022  1
  Zn  Zn170  1  0.55615244  0.80858789  0.56284947  1
  O  O171  1  0.11729241  0.13021484  0.11178590  1
  O  O172  1  0.16955939  0.11347477  0.61295025  1
  O  O173  1  0.11216332  0.60725886  0.13773559  1
  O  O174  1  0.12185221  0.62383158  0.62434777  1
  O  O175  1  0.62924186  0.11689443  0.11113792  1
  O  O176  1  0.61391541  0.12484685  0.62082261  1
  O  O177  1  0.62300759  0.62306619  0.11769889  1
  O  O178  1  0.63120916  0.61421188  0.61595550  1
  O  O179  1  0.37360133  0.38726427  0.37704190  1
  O  O180  1  0.37731554  0.37016546  0.88878984  1
  O  O181  1  0.38296478  0.87522305  0.38285740  1
  O  O182  1  0.38473970  0.87878435  0.88512243  1
  O  O183  1  0.87957661  0.38016068  0.38206265  1
  O  O184  1  0.88250793  0.37971945  0.87949881  1
  O  O185  1  0.87074529  0.89182915  0.36872291  1
  O  O186  1  0.88375170  0.88061791  0.88149232  1
  O  O187  1  0.25671786  0.00854967  0.36976125  1
  O  O188  1  0.26191567  0.00580231  0.86842750  1
  O  O189  1  0.25581774  0.50672049  0.36824228  1
  O  O190  1  0.24297711  0.49449100  0.85680173  1
  O  O191  1  0.75266527  0.00494139  0.36575974  1
  O  O192  1  0.76215808  0.00073643  0.86454782  1
  O  O193  1  0.75494162  0.50206014  0.37026193  1
  O  O194  1  0.75975797  0.50332835  0.86885038  1
  O  O195  1  0.25929506  0.49938235  0.13779666  1
  O  O196  1  0.24351340  0.49320876  0.63151250  1
  O  O197  1  0.23764523  1.00556693  0.13163616  1
  O  O198  1  0.27597571  0.98957587  0.64602391  1
  O  O199  1  0.75141192  0.48980780  0.13477979  1
  O  O200  1  0.74639558  0.48741901  0.62891589  1
  O  O201  1  0.74483465  0.99629733  0.12938164  1
  O  O202  1  0.74644829  1.00095129  0.63714647  1
  O  O203  1  0.00521256  0.37845608  0.26228878  1
  O  O204  1  -0.00292853  0.36417937  0.76346078  1
  O  O205  1  0.00467550  0.86774302  0.25614918  1
  O  O206  1  0.00030041  0.87156554  0.75930137  1
  O  O207  1  0.50747912  0.36710697  0.24994594  1
  O  O208  1  0.51306586  0.37659445  0.74010082  1
  O  O209  1  0.49529955  0.86392160  0.25870987  1
  O  O210  1  0.50638506  0.87470629  0.76401857  1
  O  O211  1  0.48723760  0.13233371  0.25369475  1
  O  O212  1  0.49338663  0.11910257  0.73815852  1
  O  O213  1  0.49410362  0.63181296  0.24325510  1
  O  O214  1  0.51109466  0.63059114  0.74258173  1
  O  O215  1  0.98580072  0.12653840  0.25143060  1
  O  O216  1  0.99260616  0.13316405  0.75267484  1
  O  O217  1  0.98695457  0.63146442  0.25774762  1
  O  O218  1  0.98665674  0.62711096  0.75361090  1
  O  O219  1  0.37740634  0.25535611  0.01455948  1
  O  O220  1  0.36766649  0.25773838  0.50455643  1
  O  O221  1  0.36928890  0.76108511  0.00975715  1
  O  O222  1  0.37910185  0.76176237  0.50207478  1
  O  O223  1  0.86541567  0.25650236  -0.00955388  1
  O  O224  1  0.87262675  0.26043667  0.50005844  1
  O  O225  1  0.87334089  0.75817183  0.00655100  1
  O  O226  1  0.86348333  0.74528939  0.51290446  1
  O  O227  1  0.13812034  0.25568252  0.48994909  1
  O  O228  1  0.12041695  0.23959655  0.98721540  1
  O  O229  1  0.10964508  0.74703876  0.50962717  1
  O  O230  1  0.12675647  0.75953555  0.98317195  1
  O  O231  1  0.62175204  0.24443058  0.49055160  1
  O  O232  1  0.62963458  0.24313116  0.99215259  1
  O  O233  1  0.62963378  0.74462358  0.49476575  1
  O  O234  1  0.63512367  0.74353776  0.99593715  1
  O  O235  1  0.49600022  0.24826922  0.13538669  1
  O  O236  1  0.48745986  0.24134585  0.61688190  1
  O  O237  1  0.49931132  0.74184142  0.13096365  1
  O  O238  1  0.48467842  0.74799815  0.62743335  1
  O  O239  1  0.99993329  0.22949770  0.13015280  1
  O  O240  1  1.00409242  0.25684223  0.63886851  1
  O  O241  1  0.98839040  0.75458180  0.13271065  1
  O  O242  1  0.99559398  0.74539267  0.62093052  1
  O  O243  1  0.00978925  0.25845257  0.38039909  1
  O  O244  1  0.00897253  0.25554793  0.86642281  1
  O  O245  1  -0.00124235  0.75289907  0.36779163  1
  O  O246  1  0.00876747  0.76005171  0.87371728  1
  O  O247  1  0.50810192  0.24995085  0.36670608  1
  O  O248  1  0.51556849  0.24658991  0.87963495  1
  O  O249  1  0.50414045  0.75422966  0.36688716  1
  O  O250  1  0.50777249  0.75834311  0.87739694  1
  O  O251  1  0.26425326  0.13850390  0.48080968  1
  O  O252  1  0.23848308  0.12696413  0.99897667  1
  O  O253  1  0.25226813  0.61889020  0.48288980  1
  O  O254  1  0.21674815  0.62471889  1.01754194  1
  O  O255  1  0.73911819  0.12736842  0.49317294  1
  O  O256  1  0.74408594  0.13136724  0.99710829  1
  O  O257  1  0.74302026  0.63009932  0.49161302  1
  O  O258  1  0.74514504  0.62684113  0.99804037  1
  O  O259  1  0.26698341  0.37537816  0.00337649  1
  O  O260  1  0.25630257  0.36932858  0.50595016  1
  O  O261  1  0.26109817  0.87892283  -0.00369627  1
  O  O262  1  0.26535257  0.88185956  0.49706454  1
  O  O263  1  0.75759154  0.36797156  0.00534260  1
  O  O264  1  0.75757804  0.37211253  0.50836875  1
  O  O265  1  0.76073749  0.87171732  0.00592276  1
  O  O266  1  0.74201391  0.86396301  0.49586829  1
  O  O267  1  0.13372097  0.48730977  0.25631211  1
  O  O268  1  0.13586145  0.50493946  0.73405455  1
  O  O269  1  0.12497668  0.98188989  0.25702144  1
  O  O270  1  0.13976618  1.00745175  0.75334768  1
  O  O271  1  0.63584705  0.49514489  0.25176307  1
  O  O272  1  0.63480510  0.48933453  0.74464251  1
  O  O273  1  0.63196722  1.00790456  0.23682118  1
  O  O274  1  0.63367317  0.99234850  0.75103211  1
  O  O275  1  0.37552421  0.00738026  0.25432292  1
  O  O276  1  0.37766667  0.00784973  0.76163148  1
  O  O277  1  0.37063527  0.50461335  0.25681931  1
  O  O278  1  0.35772997  0.50071186  0.74866218  1
  O  O279  1  0.86756319  0.00862922  0.25798889  1
  O  O280  1  0.86989872  0.00584148  0.75328199  1
  O  O281  1  0.86386811  0.49473536  0.26586704  1
  O  O282  1  0.87193173  0.50474027  0.75678005  1
  O  O283  1  0.11719655  0.36913113  0.37014661  1
  O  O284  1  0.11805333  0.36211447  0.88320927  1
  O  O285  1  0.12155622  0.86506960  0.36592991  1
  O  O286  1  0.11121959  0.88258657  0.87513833  1
  O  O287  1  0.62372920  0.36524830  0.36758151  1
  O  O288  1  0.62867546  0.36188163  0.86797905  1
  O  O289  1  0.61174184  0.86892701  0.37620035  1
  O  O290  1  0.61948584  0.87029855  0.87161519  1
  O  O291  1  0.37319105  0.13911339  0.13198275  1
  O  O292  1  0.37914385  0.13406497  0.63207816  1
  O  O293  1  0.38548649  0.63406746  0.12339412  1
  O  O294  1  0.37254848  0.64249275  0.61676407  1
  O  O295  1  0.88382555  0.12117615  0.13527156  1
  O  O296  1  0.86921345  0.12850880  0.63651670  1
  O  O297  1  0.85296868  0.65080762  0.12636822  1
  O  O298  1  0.86921548  0.63281306  0.63421961  1
  O  O299  1  0.25938091  0.25137964  0.12952671  1
  O  O300  1  0.25963521  0.25783539  0.61728253  1
  O  O301  1  0.26050632  0.74445830  0.12878173  1
  O  O302  1  0.26230347  0.75738361  0.62729072  1
  O  O303  1  0.74392896  0.25588080  0.11035134  1
  O  O304  1  0.75021643  0.26062744  0.62436217  1
  O  O305  1  0.75312691  0.76458087  0.12201465  1
  O  O306  1  0.75745359  0.74900195  0.61736005  1
  O  O307  1  0.24477520  0.24655986  0.38048175  1
  O  O308  1  0.23623602  0.24968407  0.87054284  1
  O  O309  1  0.24855480  0.73269920  0.37376980  1
  O  O310  1  0.23301279  0.75355751  0.87674588  1
  O  O311  1  0.73528191  0.24410617  0.37505530  1
  O  O312  1  0.74123331  0.24852355  0.88575566  1
  O  O313  1  0.74594672  0.74655768  0.37851987  1
  O  O314  1  0.75105037  0.74423165  0.88288944  1
  O  O315  1  0.00363088  0.12712382  0.00824077  1
  O  O316  1  -0.01132284  0.10751177  0.49459275  1
  O  O317  1  0.02327532  0.62574617  0.00372377  1
  O  O318  1  -0.00160034  0.62389963  0.50318688  1
  O  O319  1  0.50856030  0.11054104  -0.00157719  1
  O  O320  1  0.49956273  0.11667813  0.50807638  1
  O  O321  1  0.51786335  0.62862313  0.00846268  1
  O  O322  1  0.50769881  0.61696442  0.50126152  1
  O  O323  1  0.49325387  0.38391381  0.49531231  1
  O  O324  1  0.48460958  0.37213110  1.01025291  1
  O  O325  1  0.49315787  0.87990321  0.49201590  1
  O  O326  1  0.49808780  0.88414998  0.99172586  1
  O  O327  1  0.99243331  0.37792838  0.49041068  1
  O  O328  1  0.98803559  0.36508314  0.99181319  1
  O  O329  1  0.98940170  0.89918019  0.49303674  1
  O  O330  1  0.98845266  0.87422234  0.99529173  1
  O  O331  1  0.49160304  0.50056087  0.38322417  1
  O  O332  1  0.49664703  0.50168238  0.87315087  1
  O  O333  1  0.49569639  0.99082215  0.37891821  1
  O  O334  1  0.49858642  0.99327879  0.88388241  1
  O  O335  1  0.99129422  0.49362025  0.37883892  1
  O  O336  1  0.99408330  0.48872807  0.86776135  1
  O  O337  1  0.98452842  1.00154751  0.37853705  1
  O  O338  1  0.98629086  0.99401027  0.86889911  1
  O  O339  1  0.00767011  0.02169558  0.13514861  1
  O  O340  1  -0.00050016  0.00318124  0.61169723  1
  O  O341  1  -0.06982884  0.52809603  0.13794901  1
  O  O342  1  0.01437848  0.49313767  0.62532250  1
  O  O343  1  0.51116847  -0.00706254  0.11790557  1
  O  O344  1  0.49856929  0.00636644  0.61730472  1
  O  O345  1  0.50487768  0.51458670  0.12884288  1
  O  O346  1  0.50342168  0.50132106  0.61251832  1
  O  O347  1  0.23972511  0.38349206  0.24760211  1
  O  O348  1  0.25262511  0.37527403  0.73776142  1
  O  O349  1  0.23614535  0.86962374  0.25528252  1
  O  O350  1  0.24773555  0.88607575  0.75436510  1
  O  O351  1  0.74659186  0.37818851  0.24277186  1
  O  O352  1  0.74709891  0.37708548  0.74340931  1
  O  O353  1  0.75215682  0.88926950  0.23913098  1
  O  O354  1  0.74056270  0.88369266  0.75697508  1
  O  O355  1  0.26231207  0.12787857  0.25998436  1
  O  O356  1  0.26818565  0.11985643  0.75636581  1
  O  O357  1  0.25605646  0.61744077  0.25709339  1
  O  O358  1  0.25071660  0.61524367  0.75157409  1
  O  O359  1  0.75721316  0.11524714  0.25011248  1
  O  O360  1  0.75674047  0.11642092  0.75284172  1
  O  O361  1  0.76160209  0.61272207  0.25254196  1
  O  O362  1  0.75984884  0.61764119  0.75799525  1
  O  O363  1  0.37171631  0.11931414  0.36600116  1
  O  O364  1  0.38007040  0.12368379  0.87014758  1
  O  O365  1  0.36902993  0.61504057  0.36927370  1
  O  O366  1  0.35772193  0.61815231  0.92361691  1
  O  O367  1  0.86606590  0.11939520  0.36385467  1
  O  O368  1  0.87398836  0.11746632  0.86507376  1
  O  O369  1  0.86816870  0.61157983  0.37823825  1
  O  O370  1  0.87566429  0.61703930  0.87342566  1
  O  O371  1  0.12102218  0.36494261  0.13797049  1
  O  O372  1  0.13443396  0.38429313  0.62182672  1
  O  O373  1  0.11653247  0.87479078  0.14257514  1
  O  O374  1  0.12971642  0.89381910  0.63142306  1
  O  O375  1  0.63687139  0.37550210  0.12984673  1
  O  O376  1  0.63214656  0.37794586  0.63058962  1
  O  O377  1  0.63681840  0.88553022  0.11636818  1
  O  O378  1  0.61560401  0.87454210  0.64003986  1
  O  O379  1  0.13182255  0.25861733  0.26351886  1
  O  O380  1  0.11899697  0.24113697  0.76549416  1
  O  O381  1  0.11151787  0.75576536  0.24943431  1
  O  O382  1  0.12132607  0.75510620  0.76314488  1
  O  O383  1  0.61792314  0.25007827  0.25410316  1
  O  O384  1  0.62933661  0.25510436  0.76428261  1
  O  O385  1  0.61536301  0.74334241  0.25420227  1
  O  O386  1  0.63047279  0.75812067  0.75933554  1
  O  O387  1  0.38144038  0.24420578  0.24397360  1
  O  O388  1  0.37447380  0.24323270  0.74091418  1
  O  O389  1  0.38488513  0.74352566  0.24354773  1
  O  O390  1  0.37609892  0.75641998  0.73908432  1
  O  O391  1  0.86626820  0.23465197  0.25333459  1
  O  O392  1  0.88452212  0.24070476  0.74976407  1
  O  O393  1  0.88429887  0.75230646  0.24276051  1
  O  O394  1  0.87468653  0.74100138  0.73916236  1
  O  O395  1  0.38034141  0.49687878  0.49390912  1
  O  O396  1  0.38404469  0.48017930  1.01236028  1
  O  O397  1  0.38632715  0.98934707  0.49268069  1
  O  O398  1  0.38363355  0.99659577  0.99968820  1
  O  O399  1  0.87508247  0.48945169  0.49526296  1
  O  O400  1  0.87058090  0.48653380  0.98413574  1
  O  O401  1  0.86563273  1.00501371  0.48231269  1
  O  O402  1  0.86842066  0.99295970  0.98948005  1
  O  O403  1  0.12261602  0.01738608  -0.00225838  1
  O  O404  1  0.11241593  0.00239754  0.49405823  1
  O  O405  1  0.12091745  0.49305703  0.01378886  1
  O  O406  1  0.12593556  0.50058239  0.51643551  1
  O  O407  1  0.62206943  0.00625592  0.00532100  1
  O  O408  1  0.61154543  0.00516732  0.50115734  1
  O  O409  1  0.62501663  0.50686489  0.00135440  1
  O  O410  1  0.61710057  0.50218007  0.50288875  1
  O  O411  1  0.37125783  0.35754950  0.13018885  1
  O  O412  1  0.37015114  0.36933063  0.62008944  1
  O  O413  1  0.38263161  0.86423794  0.11609425  1
  O  O414  1  0.37770119  0.86417891  0.61131499  1
  O  O415  1  0.86423690  0.36965138  0.11497346  1
  O  O416  1  0.86932165  0.37251300  0.61831958  1
  O  O417  1  0.86916283  0.87463562  0.11896882  1
  O  O418  1  0.87772822  0.85613921  0.63228092  1
  O  O419  1  0.13461580  0.13342705  0.36640153  1
  O  O420  1  0.12583310  0.13392286  0.88812146  1
  O  O421  1  0.13603964  0.62682590  0.37267110  1
  O  O422  1  0.11972653  0.63654546  0.87311477  1
  O  O423  1  0.62687943  0.13023439  0.37847002  1
  O  O424  1  0.62750226  0.13351464  0.88376766  1
  O  O425  1  0.63107953  0.63101939  0.37927347  1
  O  O426  1  0.63695860  0.63075389  0.88366292  1
