# generated using pymatgen
data_V85Zn86O256
_symmetry_space_group_name_H-M   'P 1'
_cell_length_a   16.95292849
_cell_length_b   16.96657927
_cell_length_c   16.97294367
_cell_angle_alpha   90.04603114
_cell_angle_beta   90.06214352
_cell_angle_gamma   89.94950505
_symmetry_Int_Tables_number   1
_chemical_formula_structural   V85Zn86O256
_chemical_formula_sum   'V85 Zn86 O256'
_cell_volume   4881.97585074
_cell_formula_units_Z   1
loop_
 _symmetry_equiv_pos_site_id
 _symmetry_equiv_pos_as_xyz
  1  'x, y, z'
loop_
 _atom_site_type_symbol
 _atom_site_label
 _atom_site_symmetry_multiplicity
 _atom_site_fract_x
 _atom_site_fract_y
 _atom_site_fract_z
 _atom_site_occupancy
  V  V0  1  0.12781746  0.37974149  0.75208692  1
  V  V1  1  0.37692491  0.24942494  0.62475219  1
  V  V2  1  0.86615926  0.13099437  0.24966648  1
  V  V3  1  0.37571256  0.62630188  0.25102733  1
  V  V4  1  -0.00645436  0.13248379  0.12590317  1
  V  V5  1  0.62589970  0.00009517  0.61011171  1
  V  V6  1  0.25154997  0.87753235  0.62565073  1
  V  V7  1  0.37666585  0.12351378  0.74993426  1
  V  V8  1  0.87473012  0.87547296  0.49710430  1
  V  V9  1  0.37989759  0.62788134  0.74897471  1
  V  V10  1  0.23981623  0.62881329  0.37796679  1
  V  V11  1  0.12164949  0.24777258  0.37251552  1
  V  V12  1  0.87309077  0.12648660  0.74949747  1
  V  V13  1  0.88607856  0.74065930  0.62535193  1
  V  V14  1  0.63920615  0.37261588  0.74339878  1
  V  V15  1  0.62528470  0.88281396  0.75079423  1
  V  V16  1  0.12399562  0.62653568  0.00671444  1
  V  V17  1  -0.05913536  0.43389335  0.82823993  1
  V  V18  1  0.12349344  0.00240445  0.12602205  1
  V  V19  1  0.86757250  0.50222451  0.36494814  1
  V  V20  1  0.12272629  0.00208335  0.62724274  1
  V  V21  1  0.24872516  0.00195974  0.25050300  1
  V  V22  1  0.24915628  0.12606837  0.37353140  1
  V  V23  1  0.73976303  -0.00820322  0.24502477  1
  V  V24  1  0.24817090  0.87180404  0.11873132  1
  V  V25  1  0.49870828  0.49810234  0.50082278  1
  V  V26  1  0.87892891  0.37316908  0.01048083  1
  V  V27  1  0.74665414  0.23119943  0.50716619  1
  V  V28  1  0.12555442  0.37520498  0.24717747  1
  V  V29  1  0.63609730  0.50405034  0.13532008  1
  V  V30  1  0.88300376  0.72955888  0.12761559  1
  V  V31  1  0.50433916  0.50299605  0.00346130  1
  V  V32  1  0.12077648  0.87303563  0.75166276  1
  V  V33  1  0.37690885  0.37442628  0.49995787  1
  V  V34  1  0.24591653  0.37884239  0.62357846  1
  V  V35  1  0.37571094  0.74828110  0.62332172  1
  V  V36  1  0.49972784  0.62364040  0.62601701  1
  V  V37  1  0.38058699  0.12919138  0.24917955  1
  V  V38  1  0.12291967  0.12600246  0.50017005  1
  V  V39  1  0.50343435  0.24748503  0.74713860  1
  V  V40  1  0.37634763  0.50179616  0.37641876  1
  V  V41  1  0.38074525  0.50153057  0.87351559  1
  V  V42  1  0.62652339  0.23465496  0.37381665  1
  V  V43  1  0.87836100  0.87577183  0.01023035  1
  V  V44  1  0.87327498  -0.00779528  0.86995719  1
  V  V45  1  0.25582711  0.63165397  0.88348154  1
  V  V46  1  0.50466225  0.10653402  0.12343535  1
  V  V47  1  0.13190796  0.75377506  0.88121937  1
  V  V48  1  0.62309326  0.10711331  0.00292781  1
  V  V49  1  0.75341703  0.87485516  0.63522254  1
  V  V50  1  0.23821980  0.74812642  0.49748677  1
  V  V51  1  -0.00562119  0.37404706  0.37738183  1
  V  V52  1  0.37967555  0.00284243  0.88399327  1
  V  V53  1  0.50159284  0.87921079  0.88446955  1
  V  V54  1  0.25085714  0.50210621  0.74810350  1
  V  V55  1  0.11590145  0.25484315  0.87605385  1
  V  V56  1  0.62678957  0.62269504  0.50120341  1
  V  V57  1  0.12216831  0.87314118  0.25755011  1
  V  V58  1  -0.00128516  0.87070707  0.87556743  1
  V  V59  1  0.12299909  0.12724878  0.00092987  1
  V  V60  1  -0.00198787  0.00178332  0.49882989  1
  V  V61  1  0.01230462  0.50988856  0.49872148  1
  V  V62  1  0.38050914  0.88052023  0.49498157  1
  V  V63  1  0.49794577  0.76094294  0.25146096  1
  V  V64  1  0.75014037  0.62566665  0.35491916  1
  V  V65  1  0.25008057  0.12718190  0.87381277  1
  V  V66  1  0.86161759  0.37248047  0.50781650  1
  V  V67  1  0.64120892  0.49281242  0.62418927  1
  V  V68  1  -0.00443290  0.13514458  0.62609099  1
  V  V69  1  0.75243949  0.24740095  0.01179138  1
  V  V70  1  0.74910845  0.11557962  0.87296391  1
  V  V71  1  0.50324530  0.11706748  0.61381005  1
  V  V72  1  0.25122171  0.25328524  0.00218724  1
  V  V73  1  0.00182676  0.73689602  0.25221458  1
  V  V74  1  0.86957832  0.00380823  0.37175217  1
  V  V75  1  0.37721092  0.37557370  -0.00007839  1
  V  V76  1  0.62738067  0.74741609  0.87257959  1
  V  V77  1  0.75113699  0.74708272  0.49935547  1
  V  V78  1  0.38984197  0.25314670  0.12633586  1
  V  V79  1  0.62580355  0.24654714  0.87847825  1
  V  V80  1  0.50258879  0.37345072  0.87291841  1
  V  V81  1  -0.00318501  0.50084816  0.00849821  1
  V  V82  1  0.37142950  0.74823303  0.11624953  1
  V  V83  1  0.75273498  0.74717615  -0.00126251  1
  V  V84  1  0.62079728  0.75437610  0.37528788  1
  Zn  Zn85  1  0.00261282  0.87058087  0.37514176  1
  Zn  Zn86  1  -0.00460735  0.25484901  0.75008640  1
  Zn  Zn87  1  0.02624672  0.62715854  0.63082640  1
  Zn  Zn88  1  -0.01001614  0.25363063  0.24668780  1
  Zn  Zn89  1  0.88276790  0.60925828  0.74931166  1
  Zn  Zn90  1  0.25096826  0.49973297  0.24779820  1
  Zn  Zn91  1  0.73388974  0.87565633  0.12699178  1
  Zn  Zn92  1  0.25012492  0.24917484  0.50027051  1
  Zn  Zn93  1  0.49987259  0.36257722  0.36456499  1
  Zn  Zn94  1  0.63133148  0.62343252  -0.00087084  1
  Zn  Zn95  1  0.25237398  0.37604410  0.12902282  1
  Zn  Zn96  1  0.37599941  0.87745616  0.00272906  1
  Zn  Zn97  1  0.50203643  0.75321745  0.75034184  1
  Zn  Zn98  1  0.77344618  0.59443490  0.87223758  1
  Zn  Zn99  1  0.25025193  0.00097351  0.75248487  1
  Zn  Zn100  1  0.75505594  0.37538376  0.13708932  1
  Zn  Zn101  1  0.12655379  0.50585522  0.12783823  1
  Zn  Zn102  1  0.62449159  0.36924945  0.25404213  1
  Zn  Zn103  1  0.51254951  0.88924349  0.37772563  1
  Zn  Zn104  1  -0.00100069  0.00207317  0.00001057  1
  Zn  Zn105  1  0.38047920  0.00690902  0.38017541  1
  Zn  Zn106  1  0.50297733  0.62628241  0.12634003  1
  Zn  Zn107  1  0.18827504  0.19128664  0.18646463  1
  Zn  Zn108  1  0.18639026  0.19290355  0.68846994  1
  Zn  Zn109  1  0.18833380  0.69032271  0.19200973  1
  Zn  Zn110  1  0.19269976  0.69463479  0.69585382  1
  Zn  Zn111  1  0.68344945  0.18166517  0.19206768  1
  Zn  Zn112  1  0.69037563  0.18368930  0.68449118  1
  Zn  Zn113  1  0.67504354  0.71269785  0.17572508  1
  Zn  Zn114  1  0.69042760  0.68436564  0.68828567  1
  Zn  Zn115  1  0.31358715  0.31068863  0.31215130  1
  Zn  Zn116  1  0.31257996  0.31120223  0.81279657  1
  Zn  Zn117  1  0.30969562  0.81168570  0.31086370  1
  Zn  Zn118  1  0.31329337  0.81539712  0.81333565  1
  Zn  Zn119  1  0.79941728  0.31195237  0.31635087  1
  Zn  Zn120  1  0.80814153  0.30189843  0.81521324  1
  Zn  Zn121  1  0.81552746  0.80967901  0.30989604  1
  Zn  Zn122  1  0.81559760  0.74530667  0.80788473  1
  Zn  Zn123  1  0.19165422  0.43286927  0.42881683  1
  Zn  Zn124  1  0.18799335  0.44172515  0.93648010  1
  Zn  Zn125  1  0.19111173  0.93973958  0.43868274  1
  Zn  Zn126  1  0.18949358  0.94247327  0.93912049  1
  Zn  Zn127  1  0.68700371  0.43341058  0.42843375  1
  Zn  Zn128  1  0.69044516  0.43196579  0.94530842  1
  Zn  Zn129  1  0.69423887  0.93772362  0.43546228  1
  Zn  Zn130  1  0.69489454  0.92904097  0.93617509  1
  Zn  Zn131  1  0.31166948  0.06515043  0.06439406  1
  Zn  Zn132  1  0.31145651  0.06300416  0.56305356  1
  Zn  Zn133  1  0.31166576  0.55920754  0.06484049  1
  Zn  Zn134  1  0.19237010  0.56041711  0.55846943  1
  Zn  Zn135  1  0.81004949  0.05807571  0.06475886  1
  Zn  Zn136  1  0.81171416  0.05826196  0.56830844  1
  Zn  Zn137  1  0.81441950  0.56136504  0.05801433  1
  Zn  Zn138  1  0.81719743  0.56125139  0.55234209  1
  Zn  Zn139  1  0.44496365  0.43787433  0.18995207  1
  Zn  Zn140  1  0.44141710  0.43655545  0.68673436  1
  Zn  Zn141  1  0.43300239  0.93803451  0.19246902  1
  Zn  Zn142  1  0.43996399  0.93882674  0.69178004  1
  Zn  Zn143  1  0.93964214  0.43919302  0.18776546  1
  Zn  Zn144  1  0.94010114  0.44219020  0.66659160  1
  Zn  Zn145  1  0.94046837  0.94104705  0.19020909  1
  Zn  Zn146  1  0.93782969  0.93821967  0.68788197  1
  Zn  Zn147  1  0.05519897  0.06194556  0.31101971  1
  Zn  Zn148  1  0.06030869  0.06102337  0.81295078  1
  Zn  Zn149  1  0.06087101  0.55773218  0.31366705  1
  Zn  Zn150  1  0.06776706  0.57188359  0.80967753  1
  Zn  Zn151  1  0.56094308  0.06586880  0.31501708  1
  Zn  Zn152  1  0.56293678  0.05966680  0.80888941  1
  Zn  Zn153  1  0.56077323  0.56757901  0.31423550  1
  Zn  Zn154  1  0.60181135  0.54066887  0.82921908  1
  Zn  Zn155  1  0.43989740  0.18666482  0.43663710  1
  Zn  Zn156  1  0.44154994  0.18420911  0.94190366  1
  Zn  Zn157  1  0.43444592  0.68904859  0.43979568  1
  Zn  Zn158  1  0.44356064  0.68997143  0.93683598  1
  Zn  Zn159  1  0.92979723  0.18944113  0.43620887  1
  Zn  Zn160  1  0.93351003  0.18678954  0.93889808  1
  Zn  Zn161  1  0.93663949  0.68564949  0.43190176  1
  Zn  Zn162  1  0.94490522  0.68867264  0.93874999  1
  Zn  Zn163  1  0.05848574  0.31471938  0.06154148  1
  Zn  Zn164  1  0.06201255  0.31541636  0.56044844  1
  Zn  Zn165  1  0.06238950  0.81136825  0.06502984  1
  Zn  Zn166  1  0.06251220  0.81551694  0.56106651  1
  Zn  Zn167  1  0.56818631  0.31605917  0.06464117  1
  Zn  Zn168  1  0.56717653  0.30902387  0.55669015  1
  Zn  Zn169  1  0.56212730  0.81276643  0.06314558  1
  Zn  Zn170  1  0.56297719  0.81281592  0.56297136  1
  O  O171  1  0.11939202  0.12189112  0.12037552  1
  O  O172  1  0.11866636  0.12245824  0.62050516  1
  O  O173  1  0.13552353  0.62871227  0.10949741  1
  O  O174  1  0.13867621  0.63180531  0.62390700  1
  O  O175  1  0.61150590  0.12444351  0.11875190  1
  O  O176  1  0.61936561  0.10709142  0.63019250  1
  O  O177  1  0.62360183  0.61752123  0.11944238  1
  O  O178  1  0.62069193  0.61384594  0.62188769  1
  O  O179  1  0.37673862  0.38102898  0.38243607  1
  O  O180  1  0.38296703  0.37936312  0.87900924  1
  O  O181  1  0.36867184  0.87438255  0.39078250  1
  O  O182  1  0.38244548  0.88426232  0.87724982  1
  O  O183  1  0.87931796  0.38400366  0.38044157  1
  O  O184  1  0.87711975  0.37311138  0.88026595  1
  O  O185  1  0.87444609  0.87968445  0.38608250  1
  O  O186  1  0.88518259  0.87883687  0.88429427  1
  O  O187  1  0.25427643  0.01037266  0.36921368  1
  O  O188  1  0.25753347  0.01026774  0.87346179  1
  O  O189  1  0.26159465  0.50995272  0.37453447  1
  O  O190  1  0.26222893  0.50783517  0.86850825  1
  O  O191  1  0.76282067  -0.00336472  0.36587722  1
  O  O192  1  0.75941247  0.00484640  0.87714067  1
  O  O193  1  0.76009556  0.50921496  0.37783079  1
  O  O194  1  0.70760959  0.50681265  0.86623180  1
  O  O195  1  0.24522588  0.49372964  0.12888766  1
  O  O196  1  0.25018895  0.48611029  0.63084632  1
  O  O197  1  0.24210822  0.99710396  0.13115673  1
  O  O198  1  0.24357342  0.99003533  0.62605499  1
  O  O199  1  0.73847052  0.50235581  0.12068431  1
  O  O200  1  0.73908244  0.50479240  0.62120900  1
  O  O201  1  0.75024615  0.99304585  0.13849347  1
  O  O202  1  0.73752913  0.98890383  0.62292297  1
  O  O203  1  0.00440816  0.37248384  0.26124029  1
  O  O204  1  0.00170284  0.38027272  0.75647586  1
  O  O205  1  0.00885835  0.87045096  0.25177668  1
  O  O206  1  0.01366113  0.88184302  0.75732558  1
  O  O207  1  0.50803647  0.37303429  0.25190470  1
  O  O208  1  0.50579392  0.36488323  0.75469449  1
  O  O209  1  0.49192902  0.86385804  0.25690166  1
  O  O210  1  0.50830704  0.87372045  0.76016848  1
  O  O211  1  0.49223323  0.12327268  0.23467292  1
  O  O212  1  0.49437393  0.12974593  0.74329119  1
  O  O213  1  0.48514166  0.63260811  0.25253005  1
  O  O214  1  0.48695238  0.62681321  0.74530009  1
  O  O215  1  0.98762409  0.12761129  0.24263446  1
  O  O216  1  0.99349610  0.12560279  0.74241800  1
  O  O217  1  1.00786448  0.63801272  0.25088048  1
  O  O218  1  0.99564001  0.61495243  0.73947184  1
  O  O219  1  0.36976632  0.25466278  0.00488247  1
  O  O220  1  0.37316374  0.25811361  0.50603699  1
  O  O221  1  0.37867919  0.75068842  0.01337140  1
  O  O222  1  0.36633765  0.75892611  0.50892780  1
  O  O223  1  0.86429208  0.25868765  -0.00581578  1
  O  O224  1  0.86094214  0.26408621  0.48954879  1
  O  O225  1  0.87664369  0.75639084  0.01081696  1
  O  O226  1  0.86945811  0.75653888  0.50282428  1
  O  O227  1  0.12520803  0.24562323  0.48797613  1
  O  O228  1  0.13248992  0.24855061  0.99442282  1
  O  O229  1  0.13935823  0.76023226  0.49814170  1
  O  O230  1  0.12222352  0.74417831  0.98985195  1
  O  O231  1  0.63958827  0.24702282  0.49671161  1
  O  O232  1  0.63033044  0.24271148  0.99211941  1
  O  O233  1  0.63255381  0.74306970  0.49788446  1
  O  O234  1  0.63664167  0.74811751  0.99128534  1
  O  O235  1  0.49113404  0.24436317  0.11625968  1
  O  O236  1  0.49678645  0.24100150  0.62837656  1
  O  O237  1  0.48734814  0.74603101  0.13530402  1
  O  O238  1  0.49293824  0.74345869  0.62634996  1
  O  O239  1  1.00341487  0.23667716  0.12734982  1
  O  O240  1  1.00411129  0.23828646  0.62692042  1
  O  O241  1  0.98968817  0.75252666  0.13382475  1
  O  O242  1  0.98865153  0.74284446  0.60780261  1
  O  O243  1  0.00484432  0.25752350  0.37413879  1
  O  O244  1  0.01348482  0.24474651  0.87517345  1
  O  O245  1  -0.00790847  0.75293476  0.35749913  1
  O  O246  1  0.01252848  0.76548586  0.87765836  1
  O  O247  1  0.51895702  0.24901627  0.38957341  1
  O  O248  1  0.51082796  0.24917740  0.87065989  1
  O  O249  1  0.50526179  0.75288288  0.37274362  1
  O  O250  1  0.50662854  0.76220865  0.87255394  1
  O  O251  1  0.24199673  0.12618177  0.49298038  1
  O  O252  1  0.24567837  0.13741055  0.99597083  1
  O  O253  1  0.25234867  0.63258449  0.48634003  1
  O  O254  1  0.24623757  0.61817599  0.98698151  1
  O  O255  1  0.76144425  0.13282422  0.49905395  1
  O  O256  1  0.74508817  0.12830497  0.99293873  1
  O  O257  1  0.74625071  0.63557210  0.49615874  1
  O  O258  1  0.75408905  0.63588966  0.99049325  1
  O  O259  1  0.25612203  0.36511939  -0.00167662  1
  O  O260  1  0.25962291  0.37485889  0.50565361  1
  O  O261  1  0.25074906  0.88044365  0.01525710  1
  O  O262  1  0.25679252  0.87005829  0.50832996  1
  O  O263  1  0.75870122  0.36435756  0.00541419  1
  O  O264  1  0.76113113  0.38040094  0.50157366  1
  O  O265  1  0.76046296  0.86479847  0.00707658  1
  O  O266  1  0.75724831  0.86506013  0.50644603  1
  O  O267  1  0.12640388  0.48946178  0.24913491  1
  O  O268  1  0.13562281  0.48726466  0.76098556  1
  O  O269  1  0.12851741  0.99589437  0.24419679  1
  O  O270  1  0.12860455  0.99417057  0.74420569  1
  O  O271  1  0.61921921  0.50761559  0.23577774  1
  O  O272  1  0.61481029  0.48619437  0.72919803  1
  O  O273  1  0.64223870  1.00324895  0.25687559  1
  O  O274  1  0.62711445  0.98603911  0.74549881  1
  O  O275  1  0.36471820  0.01484058  0.24755185  1
  O  O276  1  0.37269395  0.00856413  0.75928871  1
  O  O277  1  0.37528908  0.50831517  0.25911235  1
  O  O278  1  0.37254508  0.50789540  0.75380242  1
  O  O279  1  0.87177387  0.00747415  0.25713741  1
  O  O280  1  0.88036722  0.00669532  0.76361337  1
  O  O281  1  0.88183551  0.49900551  0.26660071  1
  O  O282  1  0.88300398  0.48534117  0.76034143  1
  O  O283  1  0.11798737  0.36679196  0.36665636  1
  O  O284  1  0.13415707  0.36492298  0.86635828  1
  O  O285  1  0.12730746  0.88156260  0.36100460  1
  O  O286  1  0.12369498  0.87303672  0.87135679  1
  O  O287  1  0.61805561  0.36493555  0.37731333  1
  O  O288  1  0.62001682  0.36196783  0.86809691  1
  O  O289  1  0.62688066  0.85889802  0.38436190  1
  O  O290  1  0.61899250  0.87085740  0.86887083  1
  O  O291  1  0.38594381  0.13088608  0.12781317  1
  O  O292  1  0.37995755  0.12732845  0.63247102  1
  O  O293  1  0.37228018  0.63198103  0.13443669  1
  O  O294  1  0.37739525  0.63952285  0.63255346  1
  O  O295  1  0.88178730  0.11833528  0.13698404  1
  O  O296  1  0.88349839  0.11562680  0.63799981  1
  O  O297  1  0.88247729  0.63157226  0.12138179  1
  O  O298  1  0.87362942  0.63671666  0.62208682  1
  O  O299  1  0.25994048  0.25181243  0.11517389  1
  O  O300  1  0.25786274  0.26077611  0.62408126  1
  O  O301  1  0.25869470  0.76102796  0.13307532  1
  O  O302  1  0.25845093  0.76226949  0.62001998  1
  O  O303  1  0.74210039  0.24582999  0.11341873  1
  O  O304  1  0.74803191  0.24466723  0.60852262  1
  O  O305  1  0.77267602  0.74661014  0.11534452  1
  O  O306  1  0.75955511  0.75596588  0.61417197  1
  O  O307  1  0.24039817  0.24247618  0.37640468  1
  O  O308  1  0.24457705  0.24447809  0.88230430  1
  O  O309  1  0.25575618  0.73715568  0.38274338  1
  O  O310  1  0.24690632  0.74356664  0.87594265  1
  O  O311  1  0.73722421  0.25224855  0.39164008  1
  O  O312  1  0.73834282  0.23854965  0.88381962  1
  O  O313  1  0.74516927  0.74454235  0.38153770  1
  O  O314  1  0.73903207  0.76569324  0.88704997  1
  O  O315  1  0.00385739  0.12410027  0.00753025  1
  O  O316  1  0.00112010  0.12220115  0.50687034  1
  O  O317  1  0.01261840  0.61460619  -0.00654364  1
  O  O318  1  0.00052227  0.61076917  0.49338594  1
  O  O319  1  0.50864985  0.12292549  0.01255744  1
  O  O320  1  0.48982786  0.12020775  0.51583930  1
  O  O321  1  0.49980691  0.61196332  -0.00035967  1
  O  O322  1  0.50480086  0.61796647  0.50600449  1
  O  O323  1  0.48866458  0.38127824  0.50260866  1
  O  O324  1  0.49735184  0.38328769  0.99348840  1
  O  O325  1  0.48318005  0.86854128  0.49941608  1
  O  O326  1  0.49931731  0.87316729  0.98913378  1
  O  O327  1  0.99683484  0.38074085  0.48851017  1
  O  O328  1  0.99152124  0.38240549  0.99846436  1
  O  O329  1  0.99223879  0.88255866  0.49716453  1
  O  O330  1  0.99590888  0.87845245  0.99403230  1
  O  O331  1  0.49183777  0.50399879  0.38716405  1
  O  O332  1  0.50095104  0.49355976  0.88137051  1
  O  O333  1  0.49179984  0.99829023  0.36875206  1
  O  O334  1  0.49148672  0.99291389  0.87108306  1
  O  O335  1  0.99172144  0.49390866  0.38239079  1
  O  O336  1  1.00108708  0.49663327  0.88121925  1
  O  O337  1  0.98869996  0.99669701  0.38146830  1
  O  O338  1  0.99473158  0.98984405  0.87848886  1
  O  O339  1  0.00908760  0.01146696  0.12434119  1
  O  O340  1  0.00553117  0.00821921  0.61864887  1
  O  O341  1  0.00697148  0.49719524  0.11281250  1
  O  O342  1  0.00722469  0.50445887  0.60307772  1
  O  O343  1  0.49582799  0.00805980  0.12470290  1
  O  O344  1  0.51462225  0.00325260  0.63021568  1
  O  O345  1  0.50469795  0.50565196  0.11611619  1
  O  O346  1  0.49967833  0.50562390  0.61276055  1
  O  O347  1  0.24031865  0.37596400  0.25212941  1
  O  O348  1  0.24519280  0.37859798  0.74302841  1
  O  O349  1  0.24379827  0.88208140  0.24272136  1
  O  O350  1  0.24254940  0.87787268  0.74177921  1
  O  O351  1  0.74063509  0.37536167  0.24810103  1
  O  O352  1  0.73800656  0.36568896  0.75136744  1
  O  O353  1  0.75754957  0.88818739  0.24933252  1
  O  O354  1  0.74431842  0.86557916  0.73567039  1
  O  O355  1  0.25453553  0.12201171  0.25482369  1
  O  O356  1  0.25819663  0.12770138  0.75565550  1
  O  O357  1  0.25980731  0.62671221  0.26126161  1
  O  O358  1  0.26330657  0.62290451  0.76086032  1
  O  O359  1  0.76238589  0.11186925  0.24319469  1
  O  O360  1  0.75663517  0.12769920  0.76427042  1
  O  O361  1  0.74290089  0.64066997  0.25823418  1
  O  O362  1  0.76766143  0.64365240  0.75783701  1
  O  O363  1  0.36786131  0.13002807  0.36526514  1
  O  O364  1  0.37254354  0.12116658  0.87042831  1
  O  O365  1  0.36937220  0.61795100  0.37092551  1
  O  O366  1  0.37292136  0.62389609  0.86902767  1
  O  O367  1  0.88001892  0.11607708  0.36072775  1
  O  O368  1  0.86766007  0.11394460  0.87247438  1
  O  O369  1  0.86422106  0.61170134  0.37921945  1
  O  O370  1  0.87182548  0.65142551  0.86360049  1
  O  O371  1  0.12455797  0.36852475  0.13995052  1
  O  O372  1  0.13384375  0.36763360  0.63613173  1
  O  O373  1  0.13021540  0.88225828  0.13284722  1
  O  O374  1  0.13081631  0.87845958  0.63359979  1
  O  O375  1  0.62809741  0.39271659  0.12436633  1
  O  O376  1  0.62254551  0.38456639  0.62867835  1
  O  O377  1  0.63657387  0.82143529  0.14246060  1
  O  O378  1  0.62995107  0.88143408  0.63012166  1
  O  O379  1  0.12144836  0.25349268  0.26110327  1
  O  O380  1  0.12094041  0.26172191  0.75840029  1
  O  O381  1  0.11103180  0.75925982  0.24320930  1
  O  O382  1  0.13156086  0.76258945  0.76673903  1
  O  O383  1  0.63057885  0.24484770  0.26830085  1
  O  O384  1  0.62099995  0.25170282  0.75528139  1
  O  O385  1  0.60657589  0.73320853  0.26822661  1
  O  O386  1  0.62443831  0.76132447  0.75489403  1
  O  O387  1  0.36930346  0.23813081  0.23909675  1
  O  O388  1  0.38225840  0.24365929  0.74476732  1
  O  O389  1  0.37954761  0.74388589  0.24564943  1
  O  O390  1  0.37551526  0.74650365  0.74132356  1
  O  O391  1  0.87063667  0.23430806  0.25755135  1
  O  O392  1  0.88022552  0.23248899  0.76024065  1
  O  O393  1  0.88683488  0.75222876  0.23554426  1
  O  O394  1  0.88603812  0.76706021  0.72217844  1
  O  O395  1  0.38330101  0.49075093  0.49085224  1
  O  O396  1  0.38281475  0.49390191  0.99355108  1
  O  O397  1  0.36845182  0.98365107  0.50163328  1
  O  O398  1  0.37031701  1.00157573  0.98759068  1
  O  O399  1  0.88515216  0.48908822  0.49205841  1
  O  O400  1  0.88390222  0.49040650  0.99773467  1
  O  O401  1  0.87701738  0.99325395  0.49316961  1
  O  O402  1  0.87506275  0.99187388  0.99056179  1
  O  O403  1  0.12471425  0.01053092  0.00777569  1
  O  O404  1  0.11945542  0.00638653  0.50586347  1
  O  O405  1  0.11874580  0.50854813  -0.00068335  1
  O  O406  1  0.11745376  0.49714851  0.49097334  1
  O  O407  1  0.63317569  0.00841260  -0.00428667  1
  O  O408  1  0.62561793  -0.00783596  0.51169083  1
  O  O409  1  0.61691948  0.50174357  0.01040149  1
  O  O410  1  0.61861077  0.50092122  0.50903901  1
  O  O411  1  0.37596076  0.36799780  0.11805719  1
  O  O412  1  0.36908476  0.37062616  0.61864391  1
  O  O413  1  0.36643306  0.86843429  0.12488418  1
  O  O414  1  0.36951433  0.87054269  0.62073154  1
  O  O415  1  0.87472353  0.37604926  0.11518303  1
  O  O416  1  0.88068585  0.36966409  0.60583734  1
  O  O417  1  0.88059062  0.87694037  0.11368763  1
  O  O418  1  0.87033006  0.87479406  0.61265424  1
  O  O419  1  0.12649948  0.13065921  0.37817807  1
  O  O420  1  0.13038547  0.13168611  0.88058367  1
  O  O421  1  0.14181938  0.62060353  0.36899432  1
  O  O422  1  0.13659154  0.63578578  0.88042746  1
  O  O423  1  0.62609204  0.13485822  0.37851507  1
  O  O424  1  0.63032220  0.12640891  0.88036563  1
  O  O425  1  0.63276071  0.62933562  0.38511286  1
  O  O426  1  0.61479306  0.64466218  0.87603168  1
