# generated using pymatgen
data_V85Zn86O256
_symmetry_space_group_name_H-M   'P 1'
_cell_length_a   16.93832731
_cell_length_b   16.93429585
_cell_length_c   16.93623577
_cell_angle_alpha   89.94165068
_cell_angle_beta   89.98695871
_cell_angle_gamma   89.99388359
_symmetry_Int_Tables_number   1
_chemical_formula_structural   V85Zn86O256
_chemical_formula_sum   'V85 Zn86 O256'
_cell_volume   4857.96426302
_cell_formula_units_Z   1
loop_
 _symmetry_equiv_pos_site_id
 _symmetry_equiv_pos_as_xyz
  1  'x, y, z'
loop_
 _atom_site_type_symbol
 _atom_site_label
 _atom_site_symmetry_multiplicity
 _atom_site_fract_x
 _atom_site_fract_y
 _atom_site_fract_z
 _atom_site_occupancy
  V  V0  1  0.62795594  0.87495540  0.25129075  1
  V  V1  1  0.12525736  0.00291472  0.62570010  1
  V  V2  1  0.75177749  0.24829505  -0.01100706  1
  V  V3  1  0.62642468  0.62039745  -0.00193861  1
  V  V4  1  0.63120782  0.12514536  -0.00688119  1
  V  V5  1  0.75334989  0.87673644  0.12739922  1
  V  V6  1  0.61988869  0.35693133  0.25265500  1
  V  V7  1  0.51824943  0.61787712  0.62166771  1
  V  V8  1  0.37088691  0.24195827  0.61738445  1
  V  V9  1  0.87607850  0.87929972  0.00602385  1
  V  V10  1  0.74869499  0.49919151  0.24638478  1
  V  V11  1  0.00155201  0.73762425  0.24933757  1
  V  V12  1  0.86533960  0.25319978  0.61897101  1
  V  V13  1  0.87511713  0.00031348  0.37662640  1
  V  V14  1  0.37372172  0.73571474  0.62861870  1
  V  V15  1  0.00074908  0.37629628  0.37337936  1
  V  V16  1  0.51320062  0.50100686  0.49456218  1
  V  V17  1  0.50177962  0.87296285  0.37858847  1
  V  V18  1  0.00677976  0.12851759  0.12456093  1
  V  V19  1  0.49844897  0.87313670  0.87465652  1
  V  V20  1  0.49951049  0.74970623  0.25297121  1
  V  V21  1  0.37410452  0.87484152  0.00216884  1
  V  V22  1  0.50219775  0.00081493  0.00083858  1
  V  V23  1  0.25087697  0.87243295  0.62552437  1
  V  V24  1  0.62601889  0.87390184  0.74966593  1
  V  V25  1  -0.00021329  0.00041037  0.50097958  1
  V  V26  1  0.24704491  0.49305531  0.25160180  1
  V  V27  1  0.24971208  0.25576173  -0.00421654  1
  V  V28  1  0.25370277  0.00356809  0.25242509  1
  V  V29  1  0.12339062  0.74888621  0.87540457  1
  V  V30  1  0.11909047  0.49917171  0.12808311  1
  V  V31  1  0.24646247  0.12529882  0.87938607  1
  V  V32  1  0.12461961  0.13346003  0.50187310  1
  V  V33  1  0.12976894  0.25670620  0.37471357  1
  V  V34  1  0.25073420  0.12809159  0.38186750  1
  V  V35  1  0.87343154  0.87048047  0.50232277  1
  V  V36  1  0.12402570  0.62321220  0.00252223  1
  V  V37  1  0.49895367  0.62081658  0.12511110  1
  V  V38  1  0.23607058  0.62556267  0.37904882  1
  V  V39  1  0.74696968  0.00391385  0.75435176  1
  V  V40  1  0.62847789  0.74579253  0.87688898  1
  V  V41  1  -0.00607312  0.38168391  0.87010928  1
  V  V42  1  0.75353884  0.87065484  0.63087505  1
  V  V43  1  0.00298674  0.87983941  0.87665503  1
  V  V44  1  0.37334166  0.62307569  0.25615796  1
  V  V45  1  -0.00942146  0.74679333  0.74491456  1
  V  V46  1  0.37501501  0.25477066  0.12034474  1
  V  V47  1  0.37375551  0.00239904  0.87459801  1
  V  V48  1  -0.00029792  0.25223077  0.74454374  1
  V  V49  1  0.25032273  0.37779354  0.12045826  1
  V  V50  1  0.50291342  0.00506761  0.50741838  1
  V  V51  1  0.24794449  0.87532822  0.12797146  1
  V  V52  1  0.50340628  0.25026850  0.73707333  1
  V  V53  1  0.12631618  0.87664939  0.74998928  1
  V  V54  1  0.50462443  0.36732344  0.87946842  1
  V  V55  1  0.75283623  0.62653040  0.36825967  1
  V  V56  1  0.37545715  -0.00286242  0.37731358  1
  V  V57  1  0.49669711  0.74071490  0.75060532  1
  V  V58  1  0.86881296  0.12922273  0.75257898  1
  V  V59  1  0.87495369  0.50477256  0.37200868  1
  V  V60  1  0.87559188  0.25404826  0.12144286  1
  V  V61  1  0.12925488  0.00843251  0.12455550  1
  V  V62  1  0.00486494  0.00898991  0.00135720  1
  V  V63  1  0.74281382  0.13753582  0.39122110  1
  V  V64  1  0.62309651  0.01143415  0.62240378  1
  V  V65  1  0.86416395  0.37472292  0.49827389  1
  V  V66  1  -0.00529872  0.49875034  -0.00275554  1
  V  V67  1  0.87200443  0.00328591  0.87423028  1
  V  V68  1  0.12709763  0.38031752  0.74567223  1
  V  V69  1  0.87321081  0.12687844  0.25186900  1
  V  V70  1  0.75192450  0.73989230  0.50811740  1
  V  V71  1  0.00728535  0.25344277  0.24935386  1
  V  V72  1  0.37280447  0.75062499  0.12722254  1
  V  V73  1  0.12396597  0.24854533  0.87718020  1
  V  V74  1  0.37602491  0.49077785  0.87932547  1
  V  V75  1  0.25817625  0.62581404  0.86924309  1
  V  V76  1  0.37658371  0.86851119  0.50324384  1
  V  V77  1  -0.00708112  0.62301510  0.61547859  1
  V  V78  1  0.50041545  0.12920534  0.12772187  1
  V  V79  1  0.39060598  0.14760586  0.26539752  1
  V  V80  1  0.74346584  0.49512843  0.75674739  1
  V  V81  1  0.62755922  0.74573532  0.38290872  1
  V  V82  1  0.23652563  0.74564779  0.49705024  1
  V  V83  1  0.25535444  0.37150631  0.61484074  1
  V  V84  1  0.26151086  0.50297820  0.74658876  1
  Zn  Zn85  1  0.24830284  0.74934393  0.00093038  1
  Zn  Zn86  1  0.12575321  0.86856333  0.26116895  1
  Zn  Zn87  1  0.86883952  0.60825771  0.77939119  1
  Zn  Zn88  1  0.62213177  0.49547676  0.12578511  1
  Zn  Zn89  1  -0.00127569  0.12662651  0.62492928  1
  Zn  Zn90  1  0.49971194  0.33419579  0.36559481  1
  Zn  Zn91  1  0.63156679  0.24841694  0.86576229  1
  Zn  Zn92  1  0.37632790  0.12580383  0.74839588  1
  Zn  Zn93  1  0.62660785  0.00077264  0.12592318  1
  Zn  Zn94  1  0.38002081  0.37746255  0.49692747  1
  Zn  Zn95  1  0.86953605  0.37761296  -0.00647232  1
  Zn  Zn96  1  0.37991764  0.49266364  0.37669568  1
  Zn  Zn97  1  0.74428663  0.37239426  0.12228411  1
  Zn  Zn98  1  0.72928696  0.38210619  0.62145818  1
  Zn  Zn99  1  0.00328673  0.50399513  0.49645951  1
  Zn  Zn100  1  0.25103943  0.00334659  0.74964133  1
  Zn  Zn101  1  0.00887300  0.86537888  0.37723678  1
  Zn  Zn102  1  0.49440520  0.49201096  0.00268986  1
  Zn  Zn103  1  0.12905931  0.51118115  0.61834124  1
  Zn  Zn104  1  0.74966907  0.74655210  0.00503699  1
  Zn  Zn105  1  0.87590541  0.72976765  0.13759920  1
  Zn  Zn106  1  0.74978960  0.00246378  0.25399411  1
  Zn  Zn107  1  0.19489485  0.18943975  0.19193392  1
  Zn  Zn108  1  0.19066220  0.18872277  0.69137916  1
  Zn  Zn109  1  0.18275384  0.68514370  0.19005413  1
  Zn  Zn110  1  0.18250163  0.68655292  0.68596537  1
  Zn  Zn111  1  0.69084816  0.18561259  0.18200893  1
  Zn  Zn112  1  0.68556781  0.19215638  0.68195325  1
  Zn  Zn113  1  0.68749885  0.68869973  0.18720502  1
  Zn  Zn114  1  0.69434064  0.68186744  0.69394910  1
  Zn  Zn115  1  0.31399991  0.31498951  0.31486975  1
  Zn  Zn116  1  0.31759608  0.31526625  0.80510323  1
  Zn  Zn117  1  0.30753593  0.81028837  0.31509254  1
  Zn  Zn118  1  0.31241012  0.81140124  0.81181822  1
  Zn  Zn119  1  0.81037717  0.31439796  0.31035898  1
  Zn  Zn120  1  0.80922087  0.32105787  0.80692303  1
  Zn  Zn121  1  0.81925042  0.81146585  0.31324670  1
  Zn  Zn122  1  0.83563291  0.78080768  0.84265723  1
  Zn  Zn123  1  0.18471376  0.44253100  0.43841988  1
  Zn  Zn124  1  0.18517739  0.43756431  0.93484324  1
  Zn  Zn125  1  0.18828904  0.93918645  0.44160669  1
  Zn  Zn126  1  0.18781050  0.93938819  0.94217158  1
  Zn  Zn127  1  0.68322024  0.43643319  0.43267411  1
  Zn  Zn128  1  0.68269310  0.43579669  0.93758394  1
  Zn  Zn129  1  0.69094973  0.93890687  0.43980804  1
  Zn  Zn130  1  0.68710747  0.93527954  0.93628852  1
  Zn  Zn131  1  0.31446971  0.06980057  0.06210006  1
  Zn  Zn132  1  0.31144478  0.05967200  0.56012917  1
  Zn  Zn133  1  0.31055808  0.56367529  0.06080076  1
  Zn  Zn134  1  0.31595743  0.55788989  0.55895483  1
  Zn  Zn135  1  0.81253861  0.06322516  0.06644115  1
  Zn  Zn136  1  0.81114983  0.06255516  0.56670905  1
  Zn  Zn137  1  0.80791862  0.55858912  0.06219405  1
  Zn  Zn138  1  0.81587878  0.56020243  0.57131155  1
  Zn  Zn139  1  0.43652869  0.43345066  0.19247304  1
  Zn  Zn140  1  0.56788319  0.42515573  0.68303379  1
  Zn  Zn141  1  0.43752565  0.94237280  0.19104307  1
  Zn  Zn142  1  0.43812571  0.93308521  0.68898814  1
  Zn  Zn143  1  0.93666829  0.43850346  0.18875757  1
  Zn  Zn144  1  0.92493079  0.44515551  0.68521663  1
  Zn  Zn145  1  0.94273229  0.93402815  0.19264335  1
  Zn  Zn146  1  0.93633236  0.93736444  0.68765531  1
  Zn  Zn147  1  0.06319805  0.05979912  0.31285833  1
  Zn  Zn148  1  0.06174545  0.06695020  0.81107619  1
  Zn  Zn149  1  0.06036902  0.56407331  0.30831261  1
  Zn  Zn150  1  0.06583360  0.56465147  0.80944271  1
  Zn  Zn151  1  0.56526931  0.06120315  0.31731815  1
  Zn  Zn152  1  0.56014303  0.06825081  0.80892192  1
  Zn  Zn153  1  0.56795267  0.56171468  0.31344477  1
  Zn  Zn154  1  0.56427025  0.55874706  0.81201530  1
  Zn  Zn155  1  0.44832209  0.18962016  0.44057285  1
  Zn  Zn156  1  0.43680773  0.18851576  0.93877164  1
  Zn  Zn157  1  0.43623721  0.68214869  0.44132438  1
  Zn  Zn158  1  0.43788799  0.68560442  0.93985409  1
  Zn  Zn159  1  0.93618957  0.18840344  0.43734611  1
  Zn  Zn160  1  0.93813685  0.18889357  0.93351273  1
  Zn  Zn161  1  0.93668490  0.69010097  0.43212520  1
  Zn  Zn162  1  0.91553640  0.66465021  0.97013926  1
  Zn  Zn163  1  0.06655282  0.31731752  0.06056797  1
  Zn  Zn164  1  0.06077742  0.32001057  0.55999302  1
  Zn  Zn165  1  0.06144012  0.81265215  0.06887401  1
  Zn  Zn166  1  0.05906472  0.81296815  0.56450941  1
  Zn  Zn167  1  0.56341130  0.31142060  0.06212468  1
  Zn  Zn168  1  0.56633801  0.30124118  0.53755419  1
  Zn  Zn169  1  0.56237804  0.81051719  0.06513851  1
  Zn  Zn170  1  0.56596208  0.81147368  0.56659543  1
  O  O171  1  0.12110675  0.12036226  0.13011042  1
  O  O172  1  0.12615426  0.12343642  0.61811759  1
  O  O173  1  0.13394184  0.61297391  0.11316522  1
  O  O174  1  0.10220403  0.62434692  0.63712827  1
  O  O175  1  0.61708432  0.12214705  0.11577155  1
  O  O176  1  0.62912818  0.11096935  0.62345544  1
  O  O177  1  0.61334724  0.62556177  0.12018033  1
  O  O178  1  0.61466017  0.63731874  0.62143234  1
  O  O179  1  0.38700254  0.37260276  0.37703594  1
  O  O180  1  0.38346946  0.38192988  0.87235256  1
  O  O181  1  0.37892473  0.87650893  0.38377588  1
  O  O182  1  0.37798673  0.88164361  0.88154005  1
  O  O183  1  0.88004401  0.38224448  0.37886253  1
  O  O184  1  0.89179798  0.36564283  0.87519886  1
  O  O185  1  0.87518395  0.88547239  0.38619543  1
  O  O186  1  0.88495038  0.88481670  0.88287645  1
  O  O187  1  0.25547799  0.00761665  0.37193217  1
  O  O188  1  0.25631907  0.00789421  0.87790229  1
  O  O189  1  0.25216784  0.50845859  0.36792901  1
  O  O190  1  0.25361450  0.50667209  0.86963327  1
  O  O191  1  0.76307901  0.00668489  0.37557929  1
  O  O192  1  0.75384289  -0.00498751  0.86132145  1
  O  O193  1  0.75506873  0.50893659  0.36944462  1
  O  O194  1  0.74212205  0.49109209  0.85955497  1
  O  O195  1  0.24581601  0.49454837  0.12995303  1
  O  O196  1  0.25112198  0.49047422  0.63092242  1
  O  O197  1  0.24735208  0.99852061  0.12870403  1
  O  O198  1  0.24364352  0.99121898  0.62689468  1
  O  O199  1  0.74804489  0.49514391  0.13270800  1
  O  O200  1  0.75481549  0.49346258  0.63587635  1
  O  O201  1  0.74670616  0.99092227  0.13182661  1
  O  O202  1  0.74309655  0.99315476  0.63468507  1
  O  O203  1  -0.00430171  0.36545396  0.26156330  1
  O  O204  1  0.00729671  0.37159255  0.75219605  1
  O  O205  1  0.00658642  0.87240764  0.25818528  1
  O  O206  1  0.01244963  0.87350422  0.75260652  1
  O  O207  1  0.51379021  0.37390488  0.25246890  1
  O  O208  1  0.50069485  0.35767738  0.75941038  1
  O  O209  1  0.50593789  0.86942321  0.25725431  1
  O  O210  1  0.50647953  0.86354382  0.75493532  1
  O  O211  1  0.49744088  0.10474756  0.23234849  1
  O  O212  1  0.49123913  0.14199929  0.75640638  1
  O  O213  1  0.49288719  0.63014150  0.24540958  1
  O  O214  1  0.50322138  0.63453985  0.73842839  1
  O  O215  1  0.99162408  0.13281487  0.24725017  1
  O  O216  1  0.99301524  0.13601525  0.74684939  1
  O  O217  1  1.00072936  0.63657150  0.24510375  1
  O  O218  1  0.99388541  0.63981557  0.75559309  1
  O  O219  1  0.36393399  0.24511697  0.01117954  1
  O  O220  1  0.37675202  0.25247892  0.51497237  1
  O  O221  1  0.37316060  0.75678134  0.00884788  1
  O  O222  1  0.36894756  0.75601374  0.50734295  1
  O  O223  1  0.87041778  0.24870483  0.00540756  1
  O  O224  1  0.88146410  0.25869313  0.50890030  1
  O  O225  1  0.87165406  0.77582814  -0.00080664  1
  O  O226  1  0.86748969  0.76336885  0.49618967  1
  O  O227  1  0.11802336  0.23996783  0.49187300  1
  O  O228  1  0.13050320  0.25558035  0.98385417  1
  O  O229  1  0.13800117  0.75343265  0.50706484  1
  O  O230  1  0.12386334  0.74398368  0.99305253  1
  O  O231  1  0.53874721  0.25777213  0.44199334  1
  O  O232  1  0.63532747  0.24156619  0.99892251  1
  O  O233  1  0.63761924  0.75770745  0.49164106  1
  O  O234  1  0.62015655  0.74254058  0.99345115  1
  O  O235  1  0.48843744  0.24096417  0.12044785  1
  O  O236  1  0.48432468  0.25068991  0.63271600  1
  O  O237  1  0.49283268  0.74141145  0.13280577  1
  O  O238  1  0.49306455  0.74410496  0.63137434  1
  O  O239  1  1.00005291  0.24785977  0.13015446  1
  O  O240  1  0.99680085  0.25214964  0.63597837  1
  O  O241  1  0.99278554  0.76122692  0.14048173  1
  O  O242  1  1.00560477  0.74312187  0.63932135  1
  O  O243  1  0.00635245  0.25476127  0.36651226  1
  O  O244  1  0.00785554  0.25532560  0.86397977  1
  O  O245  1  -0.00251672  0.74972978  0.35981381  1
  O  O246  1  0.01556071  0.76253511  0.86318538  1
  O  O247  1  0.44526200  0.21435075  0.32231130  1
  O  O248  1  0.49531135  0.25851485  0.86963135  1
  O  O249  1  0.50848054  0.75255334  0.37421720  1
  O  O250  1  0.50230660  0.75399842  0.86767446  1
  O  O251  1  0.23969546  0.12026292  0.48962386  1
  O  O252  1  0.25138920  0.13728724  0.98869696  1
  O  O253  1  0.25487179  0.63020965  0.48662315  1
  O  O254  1  0.23984337  0.62734331  0.99011098  1
  O  O255  1  0.75364644  0.12513600  0.49098076  1
  O  O256  1  0.74189075  0.13128204  1.00474040  1
  O  O257  1  0.76049206  0.63682644  0.49366752  1
  O  O258  1  0.73008545  0.62699795  1.00338965  1
  O  O259  1  0.24770012  0.36494608  0.00316362  1
  O  O260  1  0.25102967  0.37756395  0.51281866  1
  O  O261  1  0.25705604  0.87371687  0.00943729  1
  O  O262  1  0.25870857  0.86668951  0.50564991  1
  O  O263  1  0.75114640  0.36526746  0.00248359  1
  O  O264  1  0.76091056  0.37884495  0.49735107  1
  O  O265  1  0.75649576  0.88071377  0.01149566  1
  O  O266  1  0.75664210  0.86816548  0.50868250  1
  O  O267  1  0.13309791  0.50562820  0.23829086  1
  O  O268  1  0.13414627  0.49176590  0.74650490  1
  O  O269  1  0.13468296  1.00381500  0.23870952  1
  O  O270  1  0.12577596  0.99416674  0.74428681  1
  O  O271  1  0.63727308  0.49902657  0.24730436  1
  O  O272  1  0.63118773  0.49895029  0.74468104  1
  O  O273  1  0.62544350  0.98478683  0.25067957  1
  O  O274  1  0.62953141  0.99712614  0.74576074  1
  O  O275  1  0.37184718  0.00943973  0.26036722  1
  O  O276  1  0.37484554  -0.00156773  0.76323991  1
  O  O277  1  0.36643915  0.50788638  0.25275904  1
  O  O278  1  0.36153683  0.50249313  0.76439966  1
  O  O279  1  0.87736490  0.00958310  0.25994674  1
  O  O280  1  0.86764852  0.00839138  0.75282589  1
  O  O281  1  0.86118741  0.49259253  0.25790636  1
  O  O282  1  0.86172401  0.49660259  0.76021194  1
  O  O283  1  0.11874508  0.36331203  0.37763269  1
  O  O284  1  0.12085918  0.36823932  0.86143350  1
  O  O285  1  0.12225628  0.88372921  0.37488872  1
  O  O286  1  0.12387330  0.87194089  0.86998864  1
  O  O287  1  0.62514808  0.37557234  0.35559284  1
  O  O288  1  0.60869938  0.36769856  0.87673310  1
  O  O289  1  0.62417303  0.86639956  0.36939600  1
  O  O290  1  0.61394413  0.87001763  0.87043271  1
  O  O291  1  0.38281032  0.13276508  0.13549084  1
  O  O292  1  0.36137710  0.13785521  0.62726979  1
  O  O293  1  0.37713487  0.62986504  0.13574867  1
  O  O294  1  0.37955540  0.63438540  0.62397928  1
  O  O295  1  0.88481117  0.13423971  0.13186265  1
  O  O296  1  0.87712159  0.13341202  0.63474540  1
  O  O297  1  0.88368176  0.63653935  0.07642155  1
  O  O298  1  0.89102120  0.62726657  0.63471127  1
  O  O299  1  0.24642451  0.25833579  0.11144940  1
  O  O300  1  0.25813335  0.26096192  0.63072271  1
  O  O301  1  0.25442495  0.75953078  0.12675929  1
  O  O302  1  0.25631816  0.75191398  0.62049701  1
  O  O303  1  0.76203487  0.24917279  0.11428007  1
  O  O304  1  0.76327469  0.25544059  0.62732184  1
  O  O305  1  0.75447429  0.76279283  0.12539924  1
  O  O306  1  0.74574667  0.75779928  0.61927390  1
  O  O307  1  0.24031233  0.24222866  0.37090772  1
  O  O308  1  0.24543270  0.24706572  0.87750331  1
  O  O309  1  0.25124711  0.73570494  0.38252706  1
  O  O310  1  0.24032469  0.74493319  0.87465371  1
  O  O311  1  0.75759560  0.23593235  0.37394469  1
  O  O312  1  0.75221177  0.25232237  0.88452372  1
  O  O313  1  0.74674222  0.74349909  0.38094954  1
  O  O314  1  0.72971877  0.76427746  0.88379957  1
  O  O315  1  -0.00307965  0.11536602  0.00437313  1
  O  O316  1  0.00733363  0.11949961  0.50257968  1
  O  O317  1  0.01894444  0.61231097  -0.01389307  1
  O  O318  1  -0.00685192  0.62852664  0.51216089  1
  O  O319  1  0.50386445  0.11783335  0.00839624  1
  O  O320  1  0.48892583  0.10276935  0.50536920  1
  O  O321  1  0.50407567  0.62362643  0.01138172  1
  O  O322  1  0.49714987  0.62015360  0.51545647  1
  O  O323  1  0.49776337  0.39933293  0.50801692  1
  O  O324  1  0.49797569  0.37232637  0.98562272  1
  O  O325  1  0.49205478  0.87365282  0.49648650  1
  O  O326  1  0.49448884  0.88199525  0.99672130  1
  O  O327  1  0.99110763  0.37268661  0.48356445  1
  O  O328  1  1.00412819  0.38223029  0.98721261  1
  O  O329  1  0.99062575  0.88086897  0.50109854  1
  O  O330  1  0.99600029  0.88987393  0.99948164  1
  O  O331  1  0.49791058  0.51544691  0.38900627  1
  O  O332  1  0.49130653  0.48635905  0.87199556  1
  O  O333  1  0.49601657  0.99079054  0.38430099  1
  O  O334  1  0.49321345  0.99648377  0.88386353  1
  O  O335  1  0.99212325  0.49293533  0.36945493  1
  O  O336  1  1.01046619  0.49063930  0.88126666  1
  O  O337  1  0.98810018  1.00525242  0.38456271  1
  O  O338  1  0.99825323  0.99843527  0.88303517  1
  O  O339  1  0.00962547  0.00759107  0.12075005  1
  O  O340  1  0.00701602  0.00212982  0.61887079  1
  O  O341  1  0.01208132  0.48975043  0.11617202  1
  O  O342  1  -0.00129621  0.51358196  0.62549152  1
  O  O343  1  0.49932596  0.00277585  0.11135759  1
  O  O344  1  0.51104722  -0.01113322  0.62011626  1
  O  O345  1  0.49501258  0.51162724  0.12628153  1
  O  O346  1  0.50845698  0.51402926  0.62047552  1
  O  O347  1  0.25146680  0.38867500  0.24333367  1
  O  O348  1  0.24389190  0.38351992  0.74265130  1
  O  O349  1  0.25088079  0.88380485  0.24388942  1
  O  O350  1  0.23948404  0.87693898  0.74662053  1
  O  O351  1  0.74058859  0.38080422  0.24541944  1
  O  O352  1  0.74715276  0.38451277  0.74116784  1
  O  O353  1  0.74363275  0.87587908  0.24650416  1
  O  O354  1  0.74381520  0.88319295  0.74303437  1
  O  O355  1  0.26226117  0.12156787  0.26427638  1
  O  O356  1  0.25403457  0.12307199  0.76479533  1
  O  O357  1  0.25520887  0.61890870  0.25915624  1
  O  O358  1  0.24289775  0.61603601  0.75725576  1
  O  O359  1  0.76470565  0.12392730  0.24897367  1
  O  O360  1  0.75728963  0.11738580  0.74484636  1
  O  O361  1  0.74826981  0.61977784  0.26033684  1
  O  O362  1  0.75384287  0.60728635  0.74909784  1
  O  O363  1  0.36486356  0.11199081  0.38455875  1
  O  O364  1  0.36755340  0.11592720  0.87744861  1
  O  O365  1  0.36871433  0.62773407  0.36290147  1
  O  O366  1  0.36207487  0.62402158  0.87682764  1
  O  O367  1  0.86923140  0.12019917  0.36864516  1
  O  O368  1  0.87992963  0.11944627  0.86037626  1
  O  O369  1  0.86817889  0.61237756  0.37733268  1
  O  O370  1  0.87189484  0.67449704  0.87002118  1
  O  O371  1  0.13953771  0.38447992  0.12156783  1
  O  O372  1  0.13571528  0.36969372  0.63483562  1
  O  O373  1  0.13931139  0.88469030  0.12507786  1
  O  O374  1  0.13010766  0.88013928  0.63264727  1
  O  O375  1  0.62353088  0.37596197  0.13626094  1
  O  O376  1  0.62044810  0.34931609  0.61793206  1
  O  O377  1  0.63181341  0.87456832  0.13420488  1
  O  O378  1  0.63576736  0.87921192  0.63263035  1
  O  O379  1  0.11497437  0.24416094  0.25870650  1
  O  O380  1  0.11831478  0.25651355  0.75683104  1
  O  O381  1  0.11164283  0.75237407  0.24419465  1
  O  O382  1  0.12031603  0.76024200  0.75642066  1
  O  O383  1  0.62830408  0.25786070  0.24565541  1
  O  O384  1  0.60892462  0.23977023  0.75096177  1
  O  O385  1  0.61994524  0.75906348  0.25753154  1
  O  O386  1  0.61812197  0.75261838  0.75861643  1
  O  O387  1  0.34350154  0.24580565  0.22431979  1
  O  O388  1  0.38188545  0.24881630  0.73799797  1
  O  O389  1  0.37933102  0.74437166  0.24639161  1
  O  O390  1  0.38471222  0.75572865  0.74108748  1
  O  O391  1  0.88509742  0.24505948  0.24263028  1
  O  O392  1  0.88140972  0.24576592  0.74462780  1
  O  O393  1  0.88834772  0.75246400  0.24845718  1
  O  O394  1  0.89449837  0.77259638  0.74268126  1
  O  O395  1  0.38616598  0.49950432  0.49500380  1
  O  O396  1  0.37573983  0.50718967  0.98448116  1
  O  O397  1  0.37907913  0.98370260  0.49940032  1
  O  O398  1  0.38092570  0.99711087  0.99200899  1
  O  O399  1  0.88080085  0.49189854  0.48971380  1
  O  O400  1  0.89089990  0.49484048  1.00023681  1
  O  O401  1  0.87962718  0.99370670  0.49689301  1
  O  O402  1  0.88183982  0.99829925  0.99503132  1
  O  O403  1  0.11910009  -0.00019726  0.01385775  1
  O  O404  1  0.11973031  0.01181488  0.50741671  1
  O  O405  1  0.12142265  0.50473076  0.00682349  1
  O  O406  1  0.11487632  0.49214944  0.50754320  1
  O  O407  1  0.61691800  0.00489467  0.00066060  1
  O  O408  1  0.61537118  -0.01089545  0.51053726  1
  O  O409  1  0.61575317  0.50599028  0.00415130  1
  O  O410  1  0.61405875  0.50391962  0.49425952  1
  O  O411  1  0.36246078  0.36994105  0.12613949  1
  O  O412  1  0.35907521  0.36458380  0.62393531  1
  O  O413  1  0.36587295  0.87392359  0.12378241  1
  O  O414  1  0.36969006  0.86543786  0.61952409  1
  O  O415  1  0.87834600  0.36123776  0.12158119  1
  O  O416  1  0.88219924  0.36691556  0.61125244  1
  O  O417  1  0.86630852  0.88624666  0.11987066  1
  O  O418  1  0.86145739  0.88337358  0.61721430  1
  O  O419  1  0.13052988  0.13231650  0.38149752  1
  O  O420  1  0.13282651  0.13584928  0.87045840  1
  O  O421  1  0.13785495  0.62089451  0.37354388  1
  O  O422  1  0.13455010  0.63429429  0.87779101  1
  O  O423  1  0.64518756  0.11908788  0.37053624  1
  O  O424  1  0.61867164  0.12730348  0.88961574  1
  O  O425  1  0.63524610  0.63910090  0.37179965  1
  O  O426  1  0.61132300  0.63501362  0.88539235  1
