# generated using pymatgen
data_V85Zn86O256
_symmetry_space_group_name_H-M   'P 1'
_cell_length_a   16.93449112
_cell_length_b   16.93931291
_cell_length_c   16.93186306
_cell_angle_alpha   89.93273588
_cell_angle_beta   90.12021519
_cell_angle_gamma   90.01363239
_symmetry_Int_Tables_number   1
_chemical_formula_structural   V85Zn86O256
_chemical_formula_sum   'V85 Zn86 O256'
_cell_volume   4857.03710565
_cell_formula_units_Z   1
loop_
 _symmetry_equiv_pos_site_id
 _symmetry_equiv_pos_as_xyz
  1  'x, y, z'
loop_
 _atom_site_type_symbol
 _atom_site_label
 _atom_site_symmetry_multiplicity
 _atom_site_fract_x
 _atom_site_fract_y
 _atom_site_fract_z
 _atom_site_occupancy
  V  V0  1  0.25837771  0.51826430  0.76021366  1
  V  V1  1  0.50198621  0.49869636  0.00084618  1
  V  V2  1  0.14020722  0.62318194  -0.00279906  1
  V  V3  1  0.12839302  0.49580045  0.61832423  1
  V  V4  1  0.74323875  0.24833176  0.49571277  1
  V  V5  1  0.37866716  0.87799224  0.49790083  1
  V  V6  1  0.00277471  0.50318961  0.00041374  1
  V  V7  1  0.62614097  0.86915250  0.22927415  1
  V  V8  1  0.00065344  0.12918334  0.12966913  1
  V  V9  1  0.25182721  0.12786854  0.87386306  1
  V  V10  1  0.74295615  0.74901107  0.49296847  1
  V  V11  1  0.87737654  0.62595138  0.74810907  1
  V  V12  1  0.13278748  0.49836521  0.12939486  1
  V  V13  1  -0.00091956  0.00159625  0.00117951  1
  V  V14  1  0.38126170  -0.00016076  0.36752404  1
  V  V15  1  0.62444971  0.37655276  0.74908679  1
  V  V16  1  0.74290492  0.62462137  0.36939470  1
  V  V17  1  0.62225492  0.50232135  0.62175984  1
  V  V18  1  0.87603833  0.62230307  0.25524600  1
  V  V19  1  0.74932870  0.25279329  0.00419773  1
  V  V20  1  0.12886697  0.74629526  0.87489862  1
  V  V21  1  0.51264578  0.87070760  0.37914592  1
  V  V22  1  0.62309868  0.11870255  0.00559017  1
  V  V23  1  0.62502593  0.74930089  0.87236268  1
  V  V24  1  0.12392374  0.12699736  0.00171065  1
  V  V25  1  0.61755725  0.11793804  0.49485267  1
  V  V26  1  0.00152829  0.75043149  0.74979082  1
  V  V27  1  0.12344281  0.88440400  0.74490382  1
  V  V28  1  0.87229596  -0.00061077  0.87604098  1
  V  V29  1  0.87333084  0.75063591  0.62378855  1
  V  V30  1  0.37633205  0.74755091  0.13560949  1
  V  V31  1  0.74463253  0.12303772  0.37252901  1
  V  V32  1  0.00440896  0.11805819  0.62576206  1
  V  V33  1  0.12732871  0.12034626  0.50320382  1
  V  V34  1  0.49036005  0.63136640  0.62468655  1
  V  V35  1  0.87689682  0.12413874  0.25115840  1
  V  V36  1  0.74849407  0.75265112  0.00443127  1
  V  V37  1  0.12812466  0.87204685  0.25153528  1
  V  V38  1  0.87236128  0.24746328  0.62173447  1
  V  V39  1  0.74625709  0.12475579  0.87448951  1
  V  V40  1  0.74832304  0.37489935  0.62218293  1
  V  V41  1  0.43960298  0.68977734  0.81322230  1
  V  V42  1  0.12452511  0.25424457  0.87591498  1
  V  V43  1  0.00531719  0.62513639  0.61473393  1
  V  V44  1  0.62006996  0.86937995  0.74894271  1
  V  V45  1  0.74669480  -0.00187700  0.74938558  1
  V  V46  1  0.49474334  0.13579574  0.12901493  1
  V  V47  1  0.50426918  0.61995627  0.13341490  1
  V  V48  1  0.37726535  0.37495312  0.00647315  1
  V  V49  1  0.49109821  0.37775804  0.87304673  1
  V  V50  1  0.57605671  0.31208205  0.31784678  1
  V  V51  1  0.61739172  -0.00225623  0.62115317  1
  V  V52  1  0.63495398  0.48377789  0.12696939  1
  V  V53  1  0.26404597  0.36866675  0.63072460  1
  V  V54  1  0.75166735  0.62604181  0.87584445  1
  V  V55  1  0.00498014  0.87092286  0.37411380  1
  V  V56  1  0.62090921  0.25035785  0.87240580  1
  V  V57  1  0.49899233  -0.00529470  0.00735240  1
  V  V58  1  0.24641141  0.88287271  0.62047728  1
  V  V59  1  0.12649368  0.62613115  0.48764041  1
  V  V60  1  0.49335243  0.12859295  0.62148164  1
  V  V61  1  0.12393249  0.37381947  0.24996012  1
  V  V62  1  0.87335622  0.12434079  0.75116644  1
  V  V63  1  0.37267576  -0.00091478  0.87640966  1
  V  V64  1  0.26171027  0.62685762  0.35797719  1
  V  V65  1  0.74308533  -0.00377455  0.23549082  1
  V  V66  1  0.11308935  0.24580539  0.37259294  1
  V  V67  1  0.26054881  0.75588901  -0.00328600  1
  V  V68  1  -0.00147448  0.25794574  0.74822888  1
  V  V69  1  0.25620345  0.87833317  0.12123761  1
  V  V70  1  0.75070000  0.50160269  0.74837520  1
  V  V71  1  0.87779919  0.49994258  0.87206695  1
  V  V72  1  0.24692760  0.75067461  0.49540172  1
  V  V73  1  0.87184683  0.37802666  0.00229697  1
  V  V74  1  0.25482422  0.25254932  0.01032490  1
  V  V75  1  0.25350381  0.12815646  0.37191516  1
  V  V76  1  -0.00180514  0.39073954  0.37976346  1
  V  V77  1  0.49127231  0.49722655  0.49432742  1
  V  V78  1  0.75590498  0.48527874  0.25293163  1
  V  V79  1  0.87503480  0.25551269  0.12981775  1
  V  V80  1  -0.00046937  0.87527527  0.87638328  1
  V  V81  1  0.87734915  0.75034768  0.12768131  1
  V  V82  1  0.87512028  0.87574307  0.49662150  1
  V  V83  1  0.49360153  0.87604212  0.87280807  1
  V  V84  1  0.87120528  0.87597415  0.00738145  1
  Zn  Zn85  1  0.24839228  0.00473059  0.74425334  1
  Zn  Zn86  1  0.87499993  -0.00175627  0.37339777  1
  Zn  Zn87  1  0.12717602  0.00027527  0.12524849  1
  Zn  Zn88  1  0.26463846  0.24553811  0.50730555  1
  Zn  Zn89  1  0.25117374  0.00343507  0.24620520  1
  Zn  Zn90  1  0.37406410  0.37373679  0.49410511  1
  Zn  Zn91  1  0.00292191  0.74699787  0.25566183  1
  Zn  Zn92  1  0.12689348  0.38085589  0.75080344  1
  Zn  Zn93  1  0.62492738  0.62374870  0.00141658  1
  Zn  Zn94  1  0.37579366  0.75302362  0.63237756  1
  Zn  Zn95  1  0.36794426  0.15156233  0.23512025  1
  Zn  Zn96  1  0.38102966  0.49565383  0.35136441  1
  Zn  Zn97  1  0.00365976  -0.00264961  0.50193718  1
  Zn  Zn98  1  0.50696613  0.74032608  0.25785969  1
  Zn  Zn99  1  0.37385897  0.13090751  0.74610653  1
  Zn  Zn100  1  0.74662148  0.87372363  0.62253493  1
  Zn  Zn101  1  0.26393642  0.37892805  0.13578819  1
  Zn  Zn102  1  0.87553966  0.38630291  0.48998373  1
  Zn  Zn103  1  0.00272287  0.62468665  0.12759210  1
  Zn  Zn104  1  0.49105878  0.26033237  0.73218592  1
  Zn  Zn105  1  0.61863708  0.62822312  0.49230379  1
  Zn  Zn106  1  -0.00042651  0.37750728  0.87281132  1
  Zn  Zn107  1  0.18412452  0.19082588  0.19208667  1
  Zn  Zn108  1  0.18523104  0.18988194  0.68918960  1
  Zn  Zn109  1  0.18311259  0.69394796  0.18231422  1
  Zn  Zn110  1  0.18937718  0.69306201  0.68255713  1
  Zn  Zn111  1  0.68590826  0.18740891  0.18581343  1
  Zn  Zn112  1  0.68088987  0.18701384  0.68496647  1
  Zn  Zn113  1  0.68870913  0.68474483  0.18477659  1
  Zn  Zn114  1  0.68595013  0.68651800  0.68374545  1
  Zn  Zn115  1  0.30905173  0.32233116  0.31630472  1
  Zn  Zn116  1  0.31331629  0.31317468  0.80929850  1
  Zn  Zn117  1  0.31243936  0.81225097  0.31318315  1
  Zn  Zn118  1  0.30585545  0.81936088  0.81263121  1
  Zn  Zn119  1  0.81564084  0.30828842  0.31709381  1
  Zn  Zn120  1  0.81175913  0.31351349  0.81310535  1
  Zn  Zn121  1  0.80907496  0.81299518  0.31146452  1
  Zn  Zn122  1  0.81071181  0.81380632  0.81377901  1
  Zn  Zn123  1  0.20856449  0.43236063  0.43022622  1
  Zn  Zn124  1  0.19227191  0.43757260  0.93690571  1
  Zn  Zn125  1  0.18847713  0.94170143  0.43338200  1
  Zn  Zn126  1  0.18613768  0.93788294  0.93750373  1
  Zn  Zn127  1  0.68849168  0.44170221  0.43889426  1
  Zn  Zn128  1  0.68774362  0.43689776  0.93767067  1
  Zn  Zn129  1  0.69103248  0.93985572  0.43436735  1
  Zn  Zn130  1  0.68429083  0.93508139  0.93918930  1
  Zn  Zn131  1  0.31638305  0.06181880  0.05877125  1
  Zn  Zn132  1  0.31501838  0.05903740  0.55366649  1
  Zn  Zn133  1  0.31505363  0.56117124  0.18074190  1
  Zn  Zn134  1  0.30856129  0.56461882  0.56643925  1
  Zn  Zn135  1  0.81231770  0.06575918  0.06320500  1
  Zn  Zn136  1  0.80854584  0.06046388  0.56296687  1
  Zn  Zn137  1  0.81273054  0.56510864  0.06622607  1
  Zn  Zn138  1  0.81244879  0.56364017  0.55551665  1
  Zn  Zn139  1  0.45042717  0.42409912  0.18893607  1
  Zn  Zn140  1  0.43527018  0.44734596  0.69005518  1
  Zn  Zn141  1  0.43837373  0.93376078  0.18905661  1
  Zn  Zn142  1  0.43435977  0.94174462  0.68874951  1
  Zn  Zn143  1  0.94383920  0.43695516  0.19146132  1
  Zn  Zn144  1  0.92670985  0.44998461  0.65557150  1
  Zn  Zn145  1  0.93823507  0.94012074  0.18914870  1
  Zn  Zn146  1  0.93543139  0.93665550  0.68683489  1
  Zn  Zn147  1  0.06227132  0.05473864  0.31354908  1
  Zn  Zn148  1  0.06113576  0.06641092  0.81378355  1
  Zn  Zn149  1  0.06458443  0.56160428  0.31156748  1
  Zn  Zn150  1  0.06784758  0.56263599  0.80739418  1
  Zn  Zn151  1  0.56199245  0.05703534  0.30900652  1
  Zn  Zn152  1  0.55864539  0.06155389  0.80913278  1
  Zn  Zn153  1  0.56701617  0.55012701  0.30933981  1
  Zn  Zn154  1  0.56516597  0.55957021  0.81492971  1
  Zn  Zn155  1  0.42023237  0.21748754  0.38972109  1
  Zn  Zn156  1  0.43717426  0.18835666  0.93703950  1
  Zn  Zn157  1  0.43362827  0.68916322  0.43775057  1
  Zn  Zn158  1  0.37254177  0.61413711  0.99502599  1
  Zn  Zn159  1  0.93470292  0.18585849  0.43972942  1
  Zn  Zn160  1  0.93692236  0.18902933  0.93761662  1
  Zn  Zn161  1  0.93432255  0.68787300  0.43448952  1
  Zn  Zn162  1  0.94017520  0.68672531  0.93912610  1
  Zn  Zn163  1  0.05927066  0.31442964  0.06337471  1
  Zn  Zn164  1  0.06638591  0.30974128  0.55780443  1
  Zn  Zn165  1  0.06503766  0.81265257  0.06451764  1
  Zn  Zn166  1  0.06429837  0.81175297  0.56046495  1
  Zn  Zn167  1  0.56406962  0.31019378  0.06239518  1
  Zn  Zn168  1  0.52685716  0.28289981  0.51165349  1
  Zn  Zn169  1  0.55501435  0.80676792  0.05721302  1
  Zn  Zn170  1  0.56034476  0.81102956  0.56139292  1
  O  O171  1  0.11614821  0.12570393  0.12101685  1
  O  O172  1  0.11559967  0.13112371  0.61766596  1
  O  O173  1  0.12422875  0.61810820  0.11438925  1
  O  O174  1  0.12109122  0.62171089  0.61542517  1
  O  O175  1  0.61708044  0.12622863  0.11064611  1
  O  O176  1  0.62029864  0.11434572  0.61813858  1
  O  O177  1  0.61998058  0.61629503  0.12136200  1
  O  O178  1  0.61568056  0.61511077  0.62624180  1
  O  O179  1  0.32262235  0.40448996  0.39312124  1
  O  O180  1  0.38798189  0.37385886  0.88246275  1
  O  O181  1  0.38242277  0.88019593  0.37873479  1
  O  O182  1  0.38253297  0.88438250  0.86901034  1
  O  O183  1  0.89265796  0.37234979  0.37444480  1
  O  O184  1  0.87678634  0.38202123  0.88293873  1
  O  O185  1  0.87917044  0.87621193  0.38229860  1
  O  O186  1  0.88039414  0.87934655  0.88459080  1
  O  O187  1  0.25595311  0.01199109  0.37092622  1
  O  O188  1  0.25551949  0.00920925  0.87651983  1
  O  O189  1  0.23056799  0.53204443  0.37205564  1
  O  O190  1  0.24054827  0.50322581  0.85937340  1
  O  O191  1  0.75463382  0.00918661  0.36526901  1
  O  O192  1  0.75330385  0.00412544  0.86959130  1
  O  O193  1  0.75171582  0.50593298  0.36011866  1
  O  O194  1  0.75682243  0.50535584  0.86883277  1
  O  O195  1  0.23668409  0.49646164  0.11907049  1
  O  O196  1  0.24242797  0.49280675  0.63302366  1
  O  O197  1  0.25132315  0.99220192  0.12311426  1
  O  O198  1  0.25412834  0.98777153  0.62378706  1
  O  O199  1  0.74191059  0.50194522  0.13236644  1
  O  O200  1  0.73910423  0.50016432  0.63075500  1
  O  O201  1  0.74965313  1.00361628  0.13656733  1
  O  O202  1  0.74006907  0.99725808  0.63416753  1
  O  O203  1  0.00993807  0.37680763  0.26603102  1
  O  O204  1  -0.00283061  0.36300245  0.74827236  1
  O  O205  1  0.00651399  0.87547460  0.25658296  1
  O  O206  1  0.00461847  0.87004258  0.75419645  1
  O  O207  1  0.51592977  0.37557558  0.26637237  1
  O  O208  1  0.50619142  0.37899590  0.75620324  1
  O  O209  1  0.51618765  0.87347839  0.25569960  1
  O  O210  1  0.50809827  0.88148968  0.76037691  1
  O  O211  1  0.50082384  0.11499333  0.22996261  1
  O  O212  1  0.50438448  0.12740553  0.73090346  1
  O  O213  1  0.50709566  0.62220507  0.23898602  1
  O  O214  1  0.49603794  0.62794951  0.74930625  1
  O  O215  1  0.98851404  0.11615424  0.24199343  1
  O  O216  1  0.99487992  0.13451584  0.74460591  1
  O  O217  1  0.99193701  0.62729694  0.24878162  1
  O  O218  1  0.99638604  0.63261838  0.73995557  1
  O  O219  1  0.36462618  0.25999503  -0.00816681  1
  O  O220  1  0.37942711  0.25928428  0.48812291  1
  O  O221  1  0.36103300  0.74301548  0.00602598  1
  O  O222  1  0.36418781  0.76143878  0.49978683  1
  O  O223  1  0.86863623  0.25775484  0.00403166  1
  O  O224  1  0.86370008  0.24867445  0.50906477  1
  O  O225  1  0.87009003  0.75719191  0.00435122  1
  O  O226  1  0.86794494  0.75807077  0.50626030  1
  O  O227  1  0.12828753  0.23808130  0.48880487  1
  O  O228  1  0.12881684  0.24723270  0.99327823  1
  O  O229  1  0.13923478  0.74283342  0.50553048  1
  O  O230  1  0.13033706  0.74261052  0.99389671  1
  O  O231  1  0.64022235  0.23507644  0.50790774  1
  O  O232  1  0.63336988  0.24418531  0.99298380  1
  O  O233  1  0.63933301  0.74652052  0.50605077  1
  O  O234  1  0.63373537  0.74902018  0.99278702  1
  O  O235  1  0.50191968  0.23468209  0.12035083  1
  O  O236  1  0.50751240  0.23271181  0.61692434  1
  O  O237  1  0.49286457  0.73868051  0.12549814  1
  O  O238  1  0.49908050  0.73704354  0.62405818  1
  O  O239  1  0.99019993  0.23744906  0.11947851  1
  O  O240  1  0.99192565  0.24246538  0.63046355  1
  O  O241  1  0.98725110  0.74788472  0.12280032  1
  O  O242  1  0.99450361  0.74512642  0.62992391  1
  O  O243  1  0.01164145  0.24614476  0.37729528  1
  O  O244  1  0.00641366  0.25066847  0.86751037  1
  O  O245  1  -0.00637392  0.76567847  0.37410027  1
  O  O246  1  0.00546146  0.75639839  0.87009066  1
  O  O247  1  0.52661075  0.25957490  0.39667387  1
  O  O248  1  0.51263560  0.25848863  0.87915341  1
  O  O249  1  0.49490889  0.76456888  0.37203293  1
  O  O250  1  0.50378037  0.75630011  0.86714797  1
  O  O251  1  0.24384371  0.12693873  0.49414949  1
  O  O252  1  0.24534397  0.13322562  0.99179653  1
  O  O253  1  0.24475620  0.63419315  0.49484027  1
  O  O254  1  0.24232570  0.63396851  0.99684643  1
  O  O255  1  0.74470094  0.12681220  0.49094500  1
  O  O256  1  0.74242242  0.13037091  0.99338010  1
  O  O257  1  0.75097505  0.63101175  0.48881833  1
  O  O258  1  0.75191269  0.63358063  0.99216832  1
  O  O259  1  0.26066228  0.36946757  0.00082457  1
  O  O260  1  0.24271206  0.37163107  0.52506268  1
  O  O261  1  0.24404451  0.86744037  0.00873138  1
  O  O262  1  0.25365418  0.87040759  0.50207911  1
  O  O263  1  0.76289123  0.36767829  -0.00382840  1
  O  O264  1  0.75329848  0.36624155  0.50542671  1
  O  O265  1  0.75946793  0.86611627  -0.00572971  1
  O  O266  1  0.75703126  0.86656846  0.49939010  1
  O  O267  1  0.11954092  0.49167372  0.23916558  1
  O  O268  1  0.13427977  0.50084217  0.73703238  1
  O  O269  1  0.12805438  0.98799103  0.24479860  1
  O  O270  1  0.12403085  0.98765424  0.75800570  1
  O  O271  1  0.64239719  0.49847018  0.23736119  1
  O  O272  1  0.63125091  0.49637229  0.74408344  1
  O  O273  1  0.63660040  0.98832033  0.24880849  1
  O  O274  1  0.62870326  0.98980286  0.74536591  1
  O  O275  1  0.37261077  -0.00358834  0.26068439  1
  O  O276  1  0.37138140  0.00895988  0.76153170  1
  O  O277  1  0.37398990  0.48829753  0.23944172  1
  O  O278  1  0.35859826  0.50363619  0.75049606  1
  O  O279  1  0.86240978  0.00776594  0.24752665  1
  O  O280  1  0.86757743  0.00437055  0.75512640  1
  O  O281  1  0.86396783  0.50901042  0.23862464  1
  O  O282  1  0.87064101  0.50707891  0.74945351  1
  O  O283  1  0.11997940  0.36436748  0.37279859  1
  O  O284  1  0.12154545  0.36473728  0.87410373  1
  O  O285  1  0.11804736  0.87851346  0.36616497  1
  O  O286  1  0.11711237  0.86747553  0.86982149  1
  O  O287  1  0.64420458  0.36823876  0.36732921  1
  O  O288  1  0.62124760  0.36726280  0.86922080  1
  O  O289  1  0.61414545  0.87720982  0.37390072  1
  O  O290  1  0.61808440  0.86847861  0.86697720  1
  O  O291  1  0.38824152  0.12586353  0.12245529  1
  O  O292  1  0.39089394  0.11523699  0.62120272  1
  O  O293  1  0.38315525  0.63129165  0.11657191  1
  O  O294  1  0.38554540  0.63026977  0.62399366  1
  O  O295  1  0.88066158  0.13364107  0.12953824  1
  O  O296  1  0.87784873  0.13209865  0.63069707  1
  O  O297  1  0.87751638  0.63395188  0.13433093  1
  O  O298  1  0.88360195  0.63745092  0.62637874  1
  O  O299  1  0.24456468  0.25289359  0.11296596  1
  O  O300  1  0.24807858  0.26448951  0.62945761  1
  O  O301  1  0.25747122  0.75706619  0.11738496  1
  O  O302  1  0.25493200  0.76376162  0.61662624  1
  O  O303  1  0.75870659  0.24265473  0.11120479  1
  O  O304  1  0.75457282  0.25076599  0.61897153  1
  O  O305  1  0.76113988  0.74530912  0.11170247  1
  O  O306  1  0.75929924  0.74974195  0.61724697  1
  O  O307  1  0.23710865  0.23567425  0.37710760  1
  O  O308  1  0.24050272  0.24553688  0.88110287  1
  O  O309  1  0.25282162  0.73732240  0.38055624  1
  O  O310  1  0.23786207  0.75966238  0.88286963  1
  O  O311  1  0.75685180  0.23369924  0.38280754  1
  O  O312  1  0.74088551  0.24625013  0.88276991  1
  O  O313  1  0.75497867  0.73999262  0.38265208  1
  O  O314  1  0.74726057  0.74574486  0.88432028  1
  O  O315  1  0.00296037  0.12117018  0.00640442  1
  O  O316  1  0.00501478  0.12339812  0.50974325  1
  O  O317  1  0.00699774  0.61349581  0.00057281  1
  O  O318  1  0.00665959  0.63396765  0.50881822  1
  O  O319  1  0.50563746  0.11733141  0.00533085  1
  O  O320  1  0.51494495  0.12139644  0.50893093  1
  O  O321  1  0.50315552  0.61088901  0.01331768  1
  O  O322  1  0.50008185  0.61947141  0.50813589  1
  O  O323  1  0.49694004  0.39518881  0.50913381  1
  O  O324  1  0.49702668  0.37737899  0.99348025  1
  O  O325  1  0.49427957  0.87084626  0.48800871  1
  O  O326  1  0.50601581  0.88137354  0.98338226  1
  O  O327  1  0.99982516  0.36594428  0.48328243  1
  O  O328  1  0.99047974  0.38599294  0.99711968  1
  O  O329  1  0.99348373  0.87561702  0.49497158  1
  O  O330  1  0.99335628  0.88110462  0.99612925  1
  O  O331  1  0.49645997  0.50683707  0.38980253  1
  O  O332  1  0.51410676  0.48727334  0.88749594  1
  O  O333  1  0.49310703  0.98420696  0.37004085  1
  O  O334  1  0.49264941  0.99443527  0.87945073  1
  O  O335  1  1.00511087  0.48951795  0.38110135  1
  O  O336  1  0.99548617  0.50018610  0.87995673  1
  O  O337  1  0.99393218  0.98725988  0.37933578  1
  O  O338  1  0.99142442  0.99717096  0.88071977  1
  O  O339  1  -0.00163719  0.01228049  0.11764697  1
  O  O340  1  -0.00563830  0.01440627  0.62643546  1
  O  O341  1  0.00900069  0.50146327  0.11509638  1
  O  O342  1  0.01959700  0.51446467  0.63217646  1
  O  O343  1  0.49344084  0.00080964  0.10985069  1
  O  O344  1  0.51173449  0.00672873  0.62758605  1
  O  O345  1  0.51701241  0.49986215  0.12159057  1
  O  O346  1  0.50494678  0.51214710  0.62102029  1
  O  O347  1  0.23002998  0.36819101  0.24601290  1
  O  O348  1  0.24684456  0.38124982  0.74072639  1
  O  O349  1  0.24412192  0.87515423  0.24172385  1
  O  O350  1  0.24000555  0.87945525  0.73983611  1
  O  O351  1  0.76467661  0.38719573  0.24930961  1
  O  O352  1  0.74382458  0.38057363  0.74487541  1
  O  O353  1  0.73909403  0.88581870  0.25137002  1
  O  O354  1  0.74178531  0.88177670  0.74888730  1
  O  O355  1  0.25392873  0.12415559  0.25510271  1
  O  O356  1  0.24553406  0.12365057  0.76278695  1
  O  O357  1  0.25151073  0.63279075  0.25299743  1
  O  O358  1  0.24644178  0.61784392  0.74559566  1
  O  O359  1  0.75207926  0.11432081  0.25339197  1
  O  O360  1  0.75135644  0.11947337  0.75595045  1
  O  O361  1  0.75698887  0.61966840  0.25414702  1
  O  O362  1  0.75774081  0.62234170  0.75482733  1
  O  O363  1  0.36680685  0.11278087  0.37702217  1
  O  O364  1  0.36506481  0.11927362  0.87684631  1
  O  O365  1  0.36400229  0.61815204  0.37300836  1
  O  O366  1  0.38903852  0.63574900  0.87842662  1
  O  O367  1  0.86928326  0.12155075  0.36572498  1
  O  O368  1  0.86739461  0.11974934  0.87128811  1
  O  O369  1  0.86736749  0.62678265  0.36164659  1
  O  O370  1  0.87243280  0.61975235  0.86891660  1
  O  O371  1  0.11959530  0.38176108  0.13346876  1
  O  O372  1  0.12226957  0.38742905  0.62719719  1
  O  O373  1  0.13645918  0.87750505  0.12921125  1
  O  O374  1  0.13109812  0.87264417  0.63357553  1
  O  O375  1  0.62972973  0.38478426  0.12033705  1
  O  O376  1  0.63133399  0.38975595  0.63243027  1
  O  O377  1  0.62021015  0.87348924  0.13086340  1
  O  O378  1  0.62351194  0.87983948  0.63169142  1
  O  O379  1  0.12104077  0.25415298  0.26460556  1
  O  O380  1  0.11512937  0.25295130  0.75895848  1
  O  O381  1  0.11895251  0.76581589  0.24204794  1
  O  O382  1  0.12129585  0.75931167  0.75706174  1
  O  O383  1  0.62350557  0.24781717  0.25486282  1
  O  O384  1  0.62041918  0.25746640  0.75669883  1
  O  O385  1  0.62885038  0.76496990  0.24441464  1
  O  O386  1  0.63271787  0.76246672  0.75398196  1
  O  O387  1  0.38647368  0.25098083  0.28352142  1
  O  O388  1  0.38321470  0.24304378  0.75969004  1
  O  O389  1  0.38029412  0.75161759  0.23810679  1
  O  O390  1  0.37635659  0.74733107  0.75510210  1
  O  O391  1  0.86663445  0.23604304  0.23996892  1
  O  O392  1  0.87963888  0.24076487  0.74843133  1
  O  O393  1  0.87406186  0.74486119  0.24110933  1
  O  O394  1  0.87909987  0.74695917  0.74291899  1
  O  O395  1  0.38785250  0.50319684  0.50622858  1
  O  O396  1  0.39463844  0.49337570  1.00086698  1
  O  O397  1  0.37105468  0.98457060  0.48582674  1
  O  O398  1  0.38442715  1.00256567  0.98543197  1
  O  O399  1  0.88379018  0.48131957  0.54936808  1
  O  O400  1  0.88113235  0.49511451  0.99705769  1
  O  O401  1  0.87363684  0.98460754  0.50335447  1
  O  O402  1  0.87630019  0.99325602  0.99668362  1
  O  O403  1  0.11715625  0.00938111  0.00036006  1
  O  O404  1  0.12278073  0.01516637  0.49537181  1
  O  O405  1  0.12020442  0.50606635  0.00236429  1
  O  O406  1  0.13684464  0.50997498  0.51379186  1
  O  O407  1  0.61430851  0.00910391  -0.00894022  1
  O  O408  1  0.63422269  0.00514583  0.51105186  1
  O  O409  1  0.62359882  0.49897437  0.01095924  1
  O  O410  1  0.61603819  0.50473805  0.50721631  1
  O  O411  1  0.38027735  0.37120346  0.11069846  1
  O  O412  1  0.36527833  0.37840334  0.62585671  1
  O  O413  1  0.36522404  0.86598529  0.12651514  1
  O  O414  1  0.37110116  0.87487260  0.61622607  1
  O  O415  1  0.88396452  0.36263356  0.11876463  1
  O  O416  1  0.86431160  0.35329886  0.63830913  1
  O  O417  1  0.87874880  0.86971679  0.11400083  1
  O  O418  1  0.87423893  0.86367789  0.61936555  1
  O  O419  1  0.12784134  0.13025937  0.37811042  1
  O  O420  1  0.12958472  0.13538992  0.88098805  1
  O  O421  1  0.11750469  0.63282026  0.38659231  1
  O  O422  1  0.11701133  0.63885900  0.88186527  1
  O  O423  1  0.63205891  0.11293699  0.38286018  1
  O  O424  1  0.62574444  0.13257274  0.88050716  1
  O  O425  1  0.63807914  0.62005522  0.37279837  1
  O  O426  1  0.63243379  0.63245127  0.87679073  1
