# generated using pymatgen
data_V85Zn86O256
_symmetry_space_group_name_H-M   'P 1'
_cell_length_a   16.96517744
_cell_length_b   16.95640354
_cell_length_c   16.95923200
_cell_angle_alpha   89.99490218
_cell_angle_beta   90.02786438
_cell_angle_gamma   89.88004934
_symmetry_Int_Tables_number   1
_chemical_formula_structural   V85Zn86O256
_chemical_formula_sum   'V85 Zn86 O256'
_cell_volume   4878.62375961
_cell_formula_units_Z   1
loop_
 _symmetry_equiv_pos_site_id
 _symmetry_equiv_pos_as_xyz
  1  'x, y, z'
loop_
 _atom_site_type_symbol
 _atom_site_label
 _atom_site_symmetry_multiplicity
 _atom_site_fract_x
 _atom_site_fract_y
 _atom_site_fract_z
 _atom_site_occupancy
  V  V0  1  0.00357066  0.63395293  0.62812374  1
  V  V1  1  0.38246028  0.38003706  0.49512881  1
  V  V2  1  -0.00243845  0.50479905  -0.00030914  1
  V  V3  1  0.12256160  0.87871328  0.24510744  1
  V  V4  1  0.13362355  0.37221991  0.76689118  1
  V  V5  1  0.88177014  0.87289283  0.00519589  1
  V  V6  1  0.75145508  0.62689426  0.87815814  1
  V  V7  1  0.37470574  0.62275997  0.75343580  1
  V  V8  1  -0.04918556  0.32158955  0.32220137  1
  V  V9  1  -0.00205961  0.87577962  0.37412704  1
  V  V10  1  0.12744441  0.49974591  0.62836279  1
  V  V11  1  0.87820444  0.37360291  0.50786790  1
  V  V12  1  0.37234842  0.37249027  0.00315449  1
  V  V13  1  0.26533193  0.89127117  0.60569985  1
  V  V14  1  0.50030824  0.74852961  0.75188495  1
  V  V15  1  0.86972282  0.00952302  0.35816923  1
  V  V16  1  0.25762959  0.75118789  -0.00550402  1
  V  V17  1  0.37807665  0.88354542  0.00049451  1
  V  V18  1  0.37692560  0.75074490  0.62483758  1
  V  V19  1  0.25357002  0.37214354  0.62515214  1
  V  V20  1  0.62518391  0.75075760  0.87828729  1
  V  V21  1  0.87718283  0.50309707  0.37540711  1
  V  V22  1  0.61204439  -0.00401249  0.12035499  1
  V  V23  1  0.25874978  0.87298652  0.12274961  1
  V  V24  1  0.13329985  0.62620712  -0.00211347  1
  V  V25  1  0.61943316  0.75480919  0.37372825  1
  V  V26  1  0.62839056  0.50523943  0.12476398  1
  V  V27  1  0.24983602  0.11973817  0.37003354  1
  V  V28  1  0.37727378  0.50547723  0.87756707  1
  V  V29  1  0.12645195  0.26011957  0.37500117  1
  V  V30  1  0.88213909  0.63398290  0.75089327  1
  V  V31  1  0.12359275  0.87054358  0.74431016  1
  V  V32  1  0.12766773  0.74559406  0.86825962  1
  V  V33  1  0.74791753  0.36387257  0.11759990  1
  V  V34  1  0.48570945  0.62854362  0.12972406  1
  V  V35  1  0.50058700  0.88385149  0.87823793  1
  V  V36  1  0.73744083  0.12719110  0.37326869  1
  V  V37  1  0.62340360  0.88292696  0.25524959  1
  V  V38  1  0.11264972  -0.00152818  0.10968054  1
  V  V39  1  0.37697929  0.49884872  0.35865062  1
  V  V40  1  0.12432740  0.00113172  0.62693927  1
  V  V41  1  0.87809285  0.12749300  0.75454429  1
  V  V42  1  0.50396393  0.37616634  0.87915382  1
  V  V43  1  0.11656370  0.12858718  -0.00939299  1
  V  V44  1  0.49945338  0.61742107  0.62594372  1
  V  V45  1  0.89730698  0.33234220  0.03506236  1
  V  V46  1  -0.00402468  0.74938144  0.24746540  1
  V  V47  1  0.87255445  0.63105390  0.24579592  1
  V  V48  1  0.75260703  0.00086978  0.75074608  1
  V  V49  1  0.75018222  0.87924742  0.13007653  1
  V  V50  1  0.63208266  0.37692878  0.75437587  1
  V  V51  1  0.25205082  0.61879144  0.35285039  1
  V  V52  1  0.61842900  0.11957544  -0.00269916  1
  V  V53  1  -0.00228062  0.00075584  0.49943602  1
  V  V54  1  0.37797166  0.13446380  0.74098915  1
  V  V55  1  0.62620771  0.87624438  0.74959400  1
  V  V56  1  0.49609299  0.12926395  0.11941519  1
  V  V57  1  0.37172107  0.11796677  0.24661786  1
  V  V58  1  0.87702148  0.49763541  0.87664205  1
  V  V59  1  0.62024718  0.02126164  0.62099857  1
  V  V60  1  0.62765702  0.25053700  0.88260022  1
  V  V61  1  -0.00252071  0.63239954  0.12200655  1
  V  V62  1  0.75476681  0.75146581  0.00754782  1
  V  V63  1  0.00955342  0.24931517  0.75319372  1
  V  V64  1  0.48965387  0.75337118  0.24903972  1
  V  V65  1  0.26180572  0.24882011  0.50282623  1
  V  V66  1  0.25370640  0.50484702  0.75744124  1
  V  V67  1  0.61817391  0.37133435  0.25322508  1
  V  V68  1  0.25241110  0.74317013  0.49963978  1
  V  V69  1  0.87955012  -0.00147490  0.88154454  1
  V  V70  1  0.74844819  0.87645109  0.62381409  1
  V  V71  1  0.35769351  0.25050436  0.12233900  1
  V  V72  1  0.00300040  0.36896594  0.87824484  1
  V  V73  1  0.12828114  0.12774831  0.50050973  1
  V  V74  1  0.75278754  0.12647270  0.88404144  1
  V  V75  1  0.00296982  0.49590710  0.49898450  1
  V  V76  1  0.12691069  0.62045571  0.49867745  1
  V  V77  1  0.14833204  0.37848602  0.24715423  1
  V  V78  1  0.75381886  0.50214227  0.75051933  1
  V  V79  1  0.00028049  0.86973282  0.86973319  1
  V  V80  1  0.12324130  0.74760387  0.37219853  1
  V  V81  1  0.62476272  0.62165259  0.49948519  1
  V  V82  1  0.25360570  0.00065749  0.75500288  1
  V  V83  1  0.74973356  0.62259753  0.37498250  1
  V  V84  1  0.75262878  0.74969900  0.50097181  1
  Zn  Zn85  1  0.61210065  0.25094675  0.39098472  1
  Zn  Zn86  1  0.50206840  0.50437948  0.00336299  1
  Zn  Zn87  1  0.88025038  0.75539517  0.62783058  1
  Zn  Zn88  1  0.50361171  0.24183894  0.74037550  1
  Zn  Zn89  1  0.87702177  0.25132888  0.62976812  1
  Zn  Zn90  1  0.37931105  0.00668547  0.87682431  1
  Zn  Zn91  1  0.13372735  0.50240780  0.13771718  1
  Zn  Zn92  1  0.39056958  0.87523907  0.47211605  1
  Zn  Zn93  1  0.23973528  0.24997933  -0.00869190  1
  Zn  Zn94  1  0.62441449  0.62776187  0.00463401  1
  Zn  Zn95  1  0.00042619  0.12684738  0.62761046  1
  Zn  Zn96  1  0.51128601  -0.00268474  0.48170563  1
  Zn  Zn97  1  0.87385165  0.87815026  0.49911423  1
  Zn  Zn98  1  -0.06085012  0.17397093  0.19028026  1
  Zn  Zn99  1  0.75618621  0.37290837  0.63048744  1
  Zn  Zn100  1  0.25110749  0.13747311  0.87393669  1
  Zn  Zn101  1  0.62850017  0.50159683  0.62596863  1
  Zn  Zn102  1  0.49325664  0.25212026  0.25904924  1
  Zn  Zn103  1  0.75170293  0.49638347  0.25036333  1
  Zn  Zn104  1  0.50055008  0.50074533  0.48980410  1
  Zn  Zn105  1  0.74428283  0.24092856  0.50932766  1
  Zn  Zn106  1  0.24932026  -0.00369575  0.24944723  1
  Zn  Zn107  1  0.14507792  0.16927092  0.20233093  1
  Zn  Zn108  1  0.19379375  0.18739060  0.68954132  1
  Zn  Zn109  1  0.18421526  0.69316727  0.17974436  1
  Zn  Zn110  1  0.19254575  0.68828269  0.68572432  1
  Zn  Zn111  1  0.68782236  0.18253809  0.18713629  1
  Zn  Zn112  1  0.69401144  0.19330419  0.69492362  1
  Zn  Zn113  1  0.68513577  0.69073726  0.18954547  1
  Zn  Zn114  1  0.68913987  0.68763999  0.68783074  1
  Zn  Zn115  1  0.31584476  0.30692968  0.31366297  1
  Zn  Zn116  1  0.31539584  0.31299642  0.81910797  1
  Zn  Zn117  1  0.30485145  0.80550126  0.30826815  1
  Zn  Zn118  1  0.31170999  0.81686657  0.80950699  1
  Zn  Zn119  1  0.78024899  0.28723520  0.29232022  1
  Zn  Zn120  1  0.81826989  0.30837670  0.82652393  1
  Zn  Zn121  1  0.80993552  0.81521238  0.31530806  1
  Zn  Zn122  1  0.81161339  0.81246246  0.81434511  1
  Zn  Zn123  1  0.19390701  0.43803778  0.43463629  1
  Zn  Zn124  1  0.20316881  0.45667684  0.96482707  1
  Zn  Zn125  1  0.19350513  0.93645808  0.43674504  1
  Zn  Zn126  1  0.18691416  0.93466869  0.93475979  1
  Zn  Zn127  1  0.67703663  0.41420070  0.45157084  1
  Zn  Zn128  1  0.69392635  0.43638385  0.94608474  1
  Zn  Zn129  1  0.68719917  0.94276646  0.43847755  1
  Zn  Zn130  1  0.68992129  0.93823700  0.94035050  1
  Zn  Zn131  1  0.30272024  0.06181594  0.06232332  1
  Zn  Zn132  1  0.34074641  0.06470927  0.54648227  1
  Zn  Zn133  1  0.31254440  0.56183656  0.06342012  1
  Zn  Zn134  1  0.31521461  0.55732025  0.56330465  1
  Zn  Zn135  1  0.80655725  0.05554587  0.06844845  1
  Zn  Zn136  1  0.81175263  0.06511547  0.56279503  1
  Zn  Zn137  1  0.81145780  0.56123868  0.06473592  1
  Zn  Zn138  1  0.81634819  0.56258068  0.56470613  1
  Zn  Zn139  1  0.43754905  0.43761469  0.18210675  1
  Zn  Zn140  1  0.45304779  0.40867914  0.67508882  1
  Zn  Zn141  1  0.43488376  0.93836855  0.30783824  1
  Zn  Zn142  1  0.44068961  0.94123436  0.68790071  1
  Zn  Zn143  1  0.93793517  0.44763581  0.18410440  1
  Zn  Zn144  1  0.94406119  0.44143897  0.69066705  1
  Zn  Zn145  1  0.93637122  0.93758790  0.18462547  1
  Zn  Zn146  1  0.93825008  0.93736022  0.68888691  1
  Zn  Zn147  1  0.05648351  0.06471746  0.31170492  1
  Zn  Zn148  1  0.06101349  0.05901321  0.81912976  1
  Zn  Zn149  1  0.06260481  0.55743467  0.31142949  1
  Zn  Zn150  1  0.06468277  0.56134536  0.81406066  1
  Zn  Zn151  1  0.56231263  0.06823752  0.30470089  1
  Zn  Zn152  1  0.56233868  0.06458977  0.80550351  1
  Zn  Zn153  1  0.56175908  0.56261844  0.30728199  1
  Zn  Zn154  1  0.56362753  0.56190587  0.81620340  1
  Zn  Zn155  1  0.44435122  0.17230146  0.43542034  1
  Zn  Zn156  1  0.43580435  0.18844823  0.93100633  1
  Zn  Zn157  1  0.43475253  0.68370329  0.43322700  1
  Zn  Zn158  1  0.43963321  0.68940960  0.94096231  1
  Zn  Zn159  1  0.93414316  0.18291170  0.44409154  1
  Zn  Zn160  1  0.92644821  0.17040697  1.01990047  1
  Zn  Zn161  1  0.93836618  0.68600322  0.43930411  1
  Zn  Zn162  1  0.93908291  0.69199301  0.93540876  1
  Zn  Zn163  1  0.06807668  0.30967527  0.07148504  1
  Zn  Zn164  1  0.06667534  0.31288170  0.56920649  1
  Zn  Zn165  1  0.06367263  0.81100871  0.05912210  1
  Zn  Zn166  1  0.06867989  0.81351587  0.55833071  1
  Zn  Zn167  1  0.56165287  0.31000397  0.06311491  1
  Zn  Zn168  1  0.56528987  0.31023089  0.56930111  1
  Zn  Zn169  1  0.55892085  0.81149292  0.06493534  1
  Zn  Zn170  1  0.56129139  0.81427887  0.56112032  1
  O  O171  1  0.12986579  0.10436665  0.10762981  1
  O  O172  1  0.12641890  0.11880560  0.61581091  1
  O  O173  1  0.11634816  0.62479263  0.11357658  1
  O  O174  1  0.12070772  0.62034938  0.62046806  1
  O  O175  1  0.62106518  0.11958192  0.11601707  1
  O  O176  1  0.62875570  0.12049137  0.63105822  1
  O  O177  1  0.62178887  0.61834835  0.12543226  1
  O  O178  1  0.61890015  0.62398482  0.61784165  1
  O  O179  1  0.36334469  0.39090847  0.38080229  1
  O  O180  1  0.38897219  0.38527954  0.87741269  1
  O  O181  1  0.35573858  0.88411118  0.36672663  1
  O  O182  1  0.38529175  0.87741922  0.87997218  1
  O  O183  1  0.88541810  0.38102296  0.38031972  1
  O  O184  1  0.88585588  0.38972467  0.87164663  1
  O  O185  1  0.87873170  0.88865996  0.37704627  1
  O  O186  1  0.88170941  0.87846327  0.87849155  1
  O  O187  1  0.23716471  0.01561826  0.36967557  1
  O  O188  1  0.25197684  -0.00886271  0.86017445  1
  O  O189  1  0.25708505  0.51416391  0.37436125  1
  O  O190  1  0.26279679  0.49575837  0.86788609  1
  O  O191  1  0.76303567  0.01008135  0.37800727  1
  O  O192  1  0.75683957  0.00387364  0.86890277  1
  O  O193  1  0.76581763  0.50460469  0.37442781  1
  O  O194  1  0.75957199  0.50626428  0.87233848  1
  O  O195  1  0.22439090  0.49778237  0.07357297  1
  O  O196  1  0.24364979  0.49606822  0.63434108  1
  O  O197  1  0.23711955  0.98664213  0.12684777  1
  O  O198  1  0.23549468  0.99823993  0.63845193  1
  O  O199  1  0.74224650  0.49496050  0.12828803  1
  O  O200  1  0.75392543  0.50318036  0.64221383  1
  O  O201  1  0.73528990  0.98450396  0.12126916  1
  O  O202  1  0.74293836  0.99432276  0.62990957  1
  O  O203  1  0.00072939  0.37973245  0.25744614  1
  O  O204  1  0.01250388  0.37175880  0.75696346  1
  O  O205  1  0.00274771  0.86817072  0.25366091  1
  O  O206  1  0.01432139  0.87530312  0.75213643  1
  O  O207  1  0.51506181  0.37170212  0.23745787  1
  O  O208  1  0.52168553  0.39391286  0.77029098  1
  O  O209  1  0.50863583  0.85987218  0.24861097  1
  O  O210  1  0.50723419  0.86710973  0.75721480  1
  O  O211  1  0.48806819  0.12814326  0.23734678  1
  O  O212  1  0.48529585  0.12612944  0.74871572  1
  O  O213  1  0.50534464  0.63714039  0.23743024  1
  O  O214  1  0.49752562  0.62923444  0.74408862  1
  O  O215  1  1.03424471  0.14380864  0.23860594  1
  O  O216  1  0.99687781  0.13339744  0.75487779  1
  O  O217  1  0.99515325  0.62901651  0.24210524  1
  O  O218  1  0.99409602  0.61992922  0.74066336  1
  O  O219  1  0.38113313  0.25657392  0.00778353  1
  O  O220  1  0.36334043  0.26105574  0.49266087  1
  O  O221  1  0.36207181  0.75902230  -0.00944929  1
  O  O222  1  0.36621339  0.75281300  0.50176633  1
  O  O223  1  0.86675505  0.25934618  -0.02765323  1
  O  O224  1  0.87942644  0.26199599  0.50550278  1
  O  O225  1  0.86480158  0.75886661  -0.00553472  1
  O  O226  1  0.86254680  0.75129392  0.50009826  1
  O  O227  1  0.13140649  0.24489891  0.49632514  1
  O  O228  1  0.12148182  0.23267283  1.00699597  1
  O  O229  1  0.12568430  0.73570812  0.49006731  1
  O  O230  1  0.13034034  0.74388097  0.98857890  1
  O  O231  1  0.64207726  0.30002200  0.49244906  1
  O  O232  1  0.62322365  0.24122307  0.98859592  1
  O  O233  1  0.63210888  0.74038141  0.49499313  1
  O  O234  1  0.63230627  0.75320470  0.99011364  1
  O  O235  1  0.49835837  0.23677481  0.12609397  1
  O  O236  1  0.48985010  0.30039015  0.64567680  1
  O  O237  1  0.50357440  0.74017344  0.13777292  1
  O  O238  1  0.49692559  0.73820924  0.63212548  1
  O  O239  1  0.96557222  0.26578603  0.09475514  1
  O  O240  1  0.99943165  0.24819168  0.63998819  1
  O  O241  1  1.00246903  0.73962997  0.12916346  1
  O  O242  1  1.00042903  0.73812066  0.61623859  1
  O  O243  1  0.00738268  0.25840167  0.38305377  1
  O  O244  1  0.00269839  0.26756689  0.86592132  1
  O  O245  1  0.00498631  0.75380842  0.37022328  1
  O  O246  1  0.00823606  0.76154877  0.87306261  1
  O  O247  1  0.50203136  0.24120504  0.37294174  1
  O  O248  1  0.50915161  0.26090720  0.86846827  1
  O  O249  1  0.51093185  0.74060750  0.36457044  1
  O  O250  1  0.50936473  0.75540049  0.87063836  1
  O  O251  1  0.24704439  0.13149891  0.49324298  1
  O  O252  1  0.23788978  0.12384719  0.99311080  1
  O  O253  1  0.24514838  0.63204564  0.50106297  1
  O  O254  1  0.23970975  0.63748997  0.99746750  1
  O  O255  1  0.76140641  0.12767396  0.48271759  1
  O  O256  1  0.73820265  0.11714004  0.98769051  1
  O  O257  1  0.74401532  0.63072648  0.49854292  1
  O  O258  1  0.75069845  0.63463828  0.99577271  1
  O  O259  1  0.27014678  0.36689317  -0.01093085  1
  O  O260  1  0.25208654  0.36807276  0.50748364  1
  O  O261  1  0.25569055  0.86925775  0.00250457  1
  O  O262  1  0.22247476  0.84834933  0.50517286  1
  O  O263  1  0.76589228  0.37790255  0.01507613  1
  O  O264  1  0.77428606  0.38999262  0.50741361  1
  O  O265  1  0.75908792  0.86845733  0.00530756  1
  O  O266  1  0.74997980  0.86758575  0.50746499  1
  O  O267  1  0.12750022  0.48468465  0.25345947  1
  O  O268  1  0.13580344  0.49380536  0.74981008  1
  O  O269  1  0.12187005  0.98650720  0.24206108  1
  O  O270  1  0.12818663  0.99364193  0.74310519  1
  O  O271  1  0.62605691  0.49258808  0.23851485  1
  O  O272  1  0.64027756  0.49841768  0.75583394  1
  O  O273  1  0.62306884  0.98729033  0.23917412  1
  O  O274  1  0.63518470  0.99593256  0.74247448  1
  O  O275  1  0.36827700  0.01452243  0.24206069  1
  O  O276  1  0.36735922  0.00674617  0.75068643  1
  O  O277  1  0.37420997  0.49509806  0.25945264  1
  O  O278  1  0.37051218  0.50444437  0.75790698  1
  O  O279  1  0.87752443  0.00120524  0.25981922  1
  O  O280  1  0.87194017  0.00428488  0.75975076  1
  O  O281  1  0.87690042  0.51313620  0.25892599  1
  O  O282  1  0.87178493  0.51004721  0.75824032  1
  O  O283  1  0.13061101  0.36900039  0.36749262  1
  O  O284  1  0.11980052  0.38539805  0.86831846  1
  O  O285  1  0.11910463  0.87006457  0.36407447  1
  O  O286  1  0.11783412  0.86817665  0.86530551  1
  O  O287  1  0.62537331  0.38430566  0.35338911  1
  O  O288  1  0.62578790  0.36864383  0.87867576  1
  O  O289  1  0.63589421  0.86480836  0.36804618  1
  O  O290  1  0.62129895  0.86917790  0.87102011  1
  O  O291  1  0.37915703  0.13086283  0.12475430  1
  O  O292  1  0.36001788  0.12596839  0.64354305  1
  O  O293  1  0.38653846  0.62234326  0.12469475  1
  O  O294  1  0.38306905  0.62935551  0.63003220  1
  O  O295  1  0.87551722  0.12824431  0.11217294  1
  O  O296  1  0.87858338  0.12167396  0.64342136  1
  O  O297  1  0.88340340  0.62114322  0.13482957  1
  O  O298  1  0.88543845  0.62756005  0.63353155  1
  O  O299  1  0.25892866  0.24575373  0.11535087  1
  O  O300  1  0.24437306  0.26092214  0.61574043  1
  O  O301  1  0.23969602  0.76124027  0.10755171  1
  O  O302  1  0.25906545  0.75592264  0.61585872  1
  O  O303  1  0.74661673  0.26437786  0.12528018  1
  O  O304  1  0.75876308  0.25438396  0.62523121  1
  O  O305  1  0.74109330  0.76050804  0.11303953  1
  O  O306  1  0.75246413  0.75651793  0.61728532  1
  O  O307  1  0.24077620  0.24389790  0.38405725  1
  O  O308  1  0.24443849  0.25198151  0.87628279  1
  O  O309  1  0.24326942  0.73430873  0.37894858  1
  O  O310  1  0.23856631  0.75965001  0.88100742  1
  O  O311  1  0.74075942  0.23904715  0.38501764  1
  O  O312  1  0.74008349  0.23701867  0.86916353  1
  O  O313  1  0.74155599  0.74374152  0.38377034  1
  O  O314  1  0.74331557  0.74713882  0.88384355  1
  O  O315  1  0.01665458  0.11486287  -0.01465768  1
  O  O316  1  0.01025576  0.11798847  0.50454453  1
  O  O317  1  0.00457362  0.62528263  0.00581121  1
  O  O318  1  0.00598488  0.61509654  0.50695342  1
  O  O319  1  0.51095756  0.12792660  0.00159234  1
  O  O320  1  0.44361133  0.08688028  0.50353458  1
  O  O321  1  0.50383501  0.63049258  0.01689826  1
  O  O322  1  0.50776199  0.62536289  0.50771471  1
  O  O323  1  0.48418676  0.38225128  0.50088089  1
  O  O324  1  0.49687098  0.37670571  0.99086989  1
  O  O325  1  0.49390921  0.88507596  0.51100283  1
  O  O326  1  0.48933327  0.86570017  0.99112099  1
  O  O327  1  0.99678435  0.38922974  0.50960784  1
  O  O328  1  0.99467033  0.38474816  0.99614027  1
  O  O329  1  1.00108070  0.88308893  0.49230957  1
  O  O330  1  0.98755983  0.86743391  0.99114564  1
  O  O331  1  0.48140122  0.51225409  0.37268006  1
  O  O332  1  0.49619461  0.49673580  0.88314945  1
  O  O333  1  0.51122154  0.99295630  0.36739188  1
  O  O334  1  0.50351077  0.98616175  0.86963198  1
  O  O335  1  0.98914228  0.50850795  0.38627750  1
  O  O336  1  0.99225650  0.49341700  0.87685556  1
  O  O337  1  0.99244091  0.99692882  0.38061335  1
  O  O338  1  0.99025648  0.98275702  0.86932815  1
  O  O339  1  0.01405687  -0.00808329  0.12203147  1
  O  O340  1  0.01050707  0.00007382  0.61918927  1
  O  O341  1  0.00657782  0.51132984  0.11444046  1
  O  O342  1  0.00849356  0.51102243  0.61981492  1
  O  O343  1  0.51136711  0.01515048  0.12294169  1
  O  O344  1  0.52240932  -0.00050461  0.63460003  1
  O  O345  1  0.50686479  0.51433669  0.12559780  1
  O  O346  1  0.50148292  0.51072509  0.62595594  1
  O  O347  1  0.24669353  0.37626443  0.24840933  1
  O  O348  1  0.24871206  0.38351996  0.74459812  1
  O  O349  1  0.23753795  0.87021949  0.23786292  1
  O  O350  1  0.24182070  0.88226694  0.73732345  1
  O  O351  1  0.73887864  0.37755470  0.23680736  1
  O  O352  1  0.74702596  0.38445602  0.76006388  1
  O  O353  1  0.73930890  0.86576972  0.23943232  1
  O  O354  1  0.74638906  0.88005590  0.74434049  1
  O  O355  1  0.24600970  0.12491013  0.25523614  1
  O  O356  1  0.25535278  0.11621866  0.75530538  1
  O  O357  1  0.24455653  0.62826721  0.25454721  1
  O  O358  1  0.25661028  0.61229448  0.74583470  1
  O  O359  1  0.75329793  0.13730134  0.27051574  1
  O  O360  1  0.75921149  0.11997125  0.76124238  1
  O  O361  1  0.75742885  0.62461187  0.25533224  1
  O  O362  1  0.75827994  0.62042177  0.75827110  1
  O  O363  1  0.35786747  0.13454886  0.35786004  1
  O  O364  1  0.37170376  0.12138043  0.86494974  1
  O  O365  1  0.35900045  0.61621093  0.37389018  1
  O  O366  1  0.38410489  0.61324208  0.87167142  1
  O  O367  1  0.87917525  0.11166379  0.37321056  1
  O  O368  1  0.86835667  0.11342036  0.86837248  1
  O  O369  1  0.87001925  0.61965487  0.37047929  1
  O  O370  1  0.87414979  0.61860759  0.86852889  1
  O  O371  1  0.12209300  0.37476784  0.14526444  1
  O  O372  1  0.13504218  0.38264171  0.63581071  1
  O  O373  1  0.12819600  0.88038639  0.12698159  1
  O  O374  1  0.13277801  0.88306846  0.62802691  1
  O  O375  1  0.63415492  0.38197926  0.12501619  1
  O  O376  1  0.63646909  0.38518591  0.64326623  1
  O  O377  1  0.62693898  0.88016207  0.13019658  1
  O  O378  1  0.63810855  0.87138472  0.63295150  1
  O  O379  1  0.13212220  0.26688638  0.26499574  1
  O  O380  1  0.12017810  0.25984197  0.74652937  1
  O  O381  1  0.11709155  0.75903193  0.25279749  1
  O  O382  1  0.13352204  0.75902157  0.75422386  1
  O  O383  1  0.62622300  0.26428936  0.24935678  1
  O  O384  1  0.62480241  0.26133059  0.76180781  1
  O  O385  1  0.61932434  0.75821391  0.25912972  1
  O  O386  1  0.62396744  0.75418784  0.76175825  1
  O  O387  1  0.37335691  0.24208782  0.23714910  1
  O  O388  1  0.37571671  0.23798901  0.75326627  1
  O  O389  1  0.39124755  0.75018894  0.25521960  1
  O  O390  1  0.37939639  0.74050908  0.74821859  1
  O  O391  1  0.88995159  0.26091192  0.26567078  1
  O  O392  1  0.88686580  0.24151989  0.75612995  1
  O  O393  1  0.87927760  0.73834289  0.25815834  1
  O  O394  1  0.87184251  0.73761843  0.74965582  1
  O  O395  1  0.37419494  0.49498872  0.48761427  1
  O  O396  1  0.38069942  0.49265912  0.99306196  1
  O  O397  1  0.31625303  0.95306795  0.52786025  1
  O  O398  1  0.36962991  0.98694060  0.99706909  1
  O  O399  1  0.88606605  0.49916167  0.49469427  1
  O  O400  1  0.88735927  0.50979935  0.99119278  1
  O  O401  1  0.89016347  1.00047602  0.50064685  1
  O  O402  1  0.86780889  0.98859950  0.98724375  1
  O  O403  1  0.12424468  -0.00253483  0.00618420  1
  O  O404  1  0.11821998  0.00653031  0.50580823  1
  O  O405  1  0.10462243  0.51766745  -0.02324685  1
  O  O406  1  0.12128911  0.50261078  0.50432286  1
  O  O407  1  0.62527904  0.00716379  0.00579792  1
  O  O408  1  0.62772059  0.00211991  0.51739682  1
  O  O409  1  0.62471708  0.50316339  0.01219794  1
  O  O410  1  0.62382057  0.50949824  0.50075155  1
  O  O411  1  0.38264609  0.36418021  0.11399418  1
  O  O412  1  0.35727073  0.39045688  0.61184617  1
  O  O413  1  0.36004175  0.87294213  0.11512739  1
  O  O414  1  0.36688617  0.86416430  0.64092291  1
  O  O415  1  0.86099288  0.38287495  0.12731339  1
  O  O416  1  0.87920355  0.37681440  0.62141243  1
  O  O417  1  0.86503406  0.87974326  0.11617033  1
  O  O418  1  0.86326625  0.87477660  0.62428612  1
  O  O419  1  0.12824455  0.13573752  0.38741690  1
  O  O420  1  0.13189941  0.11405723  0.88734366  1
  O  O421  1  0.13604770  0.62467524  0.37705314  1
  O  O422  1  0.11947578  0.63956876  0.87851792  1
  O  O423  1  0.63484421  0.12417135  0.37668273  1
  O  O424  1  0.62948325  0.12940757  0.87858061  1
  O  O425  1  0.63075472  0.62973595  0.38114474  1
  O  O426  1  0.63174632  0.63451672  0.87953833  1
