# generated using pymatgen
data_V85Zn86O256
_symmetry_space_group_name_H-M   'P 1'
_cell_length_a   16.92776830
_cell_length_b   16.93283049
_cell_length_c   16.92676961
_cell_angle_alpha   89.94392853
_cell_angle_beta   89.98756340
_cell_angle_gamma   90.01072363
_symmetry_Int_Tables_number   1
_chemical_formula_structural   V85Zn86O256
_chemical_formula_sum   'V85 Zn86 O256'
_cell_volume   4851.80261410
_cell_formula_units_Z   1
loop_
 _symmetry_equiv_pos_site_id
 _symmetry_equiv_pos_as_xyz
  1  'x, y, z'
loop_
 _atom_site_type_symbol
 _atom_site_label
 _atom_site_symmetry_multiplicity
 _atom_site_fract_x
 _atom_site_fract_y
 _atom_site_fract_z
 _atom_site_occupancy
  V  V0  1  0.12722491  0.37812627  0.74995318  1
  V  V1  1  0.12304906  0.50155972  0.11725761  1
  V  V2  1  0.62018739  0.75441041  0.88128635  1
  V  V3  1  0.87815992  0.50039795  0.37553876  1
  V  V4  1  0.37057642  0.86007454  0.00254295  1
  V  V5  1  0.00589129  0.74751048  0.25910449  1
  V  V6  1  0.62492352  0.75072058  0.36842391  1
  V  V7  1  0.38392352  0.50009210  0.37341732  1
  V  V8  1  0.00063577  0.12508148  0.62458953  1
  V  V9  1  0.26036432  0.51239607  0.75218519  1
  V  V10  1  0.87706261  0.37619371  0.50069586  1
  V  V11  1  0.74389686  -0.00912701  0.23839774  1
  V  V12  1  0.25515257  0.62683904  0.37377016  1
  V  V13  1  0.74802983  0.24756862  0.49663424  1
  V  V14  1  0.12624959  0.12704206  0.49839428  1
  V  V15  1  0.12585450  0.50333946  0.62497010  1
  V  V16  1  0.25753079  0.62740550  0.88563337  1
  V  V17  1  0.62503007  0.51225656  0.12233332  1
  V  V18  1  0.12754518  0.87140029  0.25872611  1
  V  V19  1  0.00331426  0.36875193  0.37504629  1
  V  V20  1  0.75085398  0.50178790  0.24620459  1
  V  V21  1  0.74827258  0.12101641  0.87205784  1
  V  V22  1  0.49497626  -0.00282968  0.00483803  1
  V  V23  1  0.37607942  -0.00051930  0.37516156  1
  V  V24  1  0.88023279  -0.01652530  0.87960623  1
  V  V25  1  0.24870627  0.75138584  0.49881079  1
  V  V26  1  0.50553683  0.12768964  0.12545097  1
  V  V27  1  0.50002380  0.37735422  0.87167821  1
  V  V28  1  0.74729550  0.50088154  0.74780906  1
  V  V29  1  0.12374206  0.63077885  0.49472619  1
  V  V30  1  0.12703520  -0.00332318  0.62806085  1
  V  V31  1  0.74841357  0.87509956  0.62659296  1
  V  V32  1  0.87490315  0.62164541  0.76559632  1
  V  V33  1  0.49790168  0.12410489  0.62678870  1
  V  V34  1  0.38677130  0.37751459  0.49492555  1
  V  V35  1  0.50454187  0.87532852  0.37030054  1
  V  V36  1  0.12597213  0.36838320  0.25344063  1
  V  V37  1  0.74226180  0.37961116  0.62361890  1
  V  V38  1  0.12872546  0.24416820  0.87295112  1
  V  V39  1  0.25364937  0.85763376  0.12521993  1
  V  V40  1  0.36471508  0.00293457  0.87918554  1
  V  V41  1  0.87801132  0.38280546  -0.00547196  1
  V  V42  1  0.87483146  0.76182355  0.12277289  1
  V  V43  1  0.50657368  0.25392792  0.26278738  1
  V  V44  1  0.00002079  -0.00127040  0.49877560  1
  V  V45  1  0.47873441  0.62266663  0.12950892  1
  V  V46  1  0.37671924  0.12655769  0.24873942  1
  V  V47  1  0.87788611  0.62687345  0.24913870  1
  V  V48  1  -0.00153249  0.38136167  0.87255760  1
  V  V49  1  0.74156460  0.74693242  0.50066019  1
  V  V50  1  0.37425599  0.25330456  0.62543636  1
  V  V51  1  0.50196216  0.50434279  -0.00649362  1
  V  V52  1  -0.00019855  0.75497903  0.75463986  1
  V  V53  1  0.87545480  0.87399292  0.50137654  1
  V  V54  1  0.74596214  0.62365445  0.37827307  1
  V  V55  1  0.87466996  0.24641102  0.12895324  1
  V  V56  1  0.36690984  0.12571673  0.75521640  1
  V  V57  1  0.87588942  0.25109598  0.62576406  1
  V  V58  1  0.37528496  0.38026801  -0.00562450  1
  V  V59  1  0.25437089  0.50190219  0.25094027  1
  V  V60  1  0.00042652  0.50068347  0.49916612  1
  V  V61  1  0.24990092  0.00068718  0.24505426  1
  V  V62  1  0.74439948  0.61732449  0.88651748  1
  V  V63  1  0.51706759  0.61685218  0.62824836  1
  V  V64  1  0.62254853  -0.00098638  0.62732449  1
  V  V65  1  0.48635697  0.74521485  0.24728982  1
  V  V66  1  0.12606793  0.87077234  0.75813082  1
  V  V67  1  0.37776729  0.87257449  0.50375987  1
  V  V68  1  0.87507814  0.12322440  0.75286736  1
  V  V69  1  0.87679450  -0.00169142  0.36630606  1
  V  V70  1  -0.00515958  0.24367869  0.25224292  1
  V  V71  1  0.75268334  0.12118203  0.36746651  1
  V  V72  1  0.38358938  0.73983897  0.63776138  1
  V  V73  1  0.24569126  0.12969177  0.37273243  1
  V  V74  1  0.75326200  0.75864475  0.00413338  1
  V  V75  1  0.74812213  0.37869420  0.11969163  1
  V  V76  1  0.25026820  0.37399358  0.12277793  1
  V  V77  1  0.00344400  0.62627024  0.11582128  1
  V  V78  1  0.25137538  0.24311932  -0.00507715  1
  V  V79  1  0.75090125  0.24958443  -0.00204054  1
  V  V80  1  0.87256251  0.74064272  0.62734473  1
  V  V81  1  0.24697995  0.25476282  0.49493457  1
  V  V82  1  0.62413490  0.12138438  -0.00040864  1
  V  V83  1  0.62383352  0.12679220  0.49476891  1
  V  V84  1  0.12270028  0.74189967  0.89375740  1
  Zn  Zn85  1  0.62357898  0.24990784  0.87022664  1
  Zn  Zn86  1  0.51651163  0.50549510  0.49617151  1
  Zn  Zn87  1  0.25382655  0.38130081  0.62341075  1
  Zn  Zn88  1  0.61964848  0.37306222  0.25426001  1
  Zn  Zn89  1  -0.00185983  0.62523039  0.62674767  1
  Zn  Zn90  1  0.37857953  0.25264456  0.12454470  1
  Zn  Zn91  1  0.62386693  0.87668446  0.21460898  1
  Zn  Zn92  1  0.49976837  -0.00109959  0.49904291  1
  Zn  Zn93  1  0.00638279  0.86935085  0.37982580  1
  Zn  Zn94  1  0.00119161  0.50964030  -0.01107016  1
  Zn  Zn95  1  0.24570257  0.00180965  0.75691417  1
  Zn  Zn96  1  0.61559186  0.86831696  0.74672667  1
  Zn  Zn97  1  0.12205860  0.00180735  0.12201512  1
  Zn  Zn98  1  0.49231909  0.86948495  0.87226424  1
  Zn  Zn99  1  0.50117786  0.25240734  0.75076604  1
  Zn  Zn100  1  0.62210421  0.37737906  0.74710057  1
  Zn  Zn101  1  0.12233718  0.11995001  -0.00164590  1
  Zn  Zn102  1  0.74839458  -0.00230722  0.75100319  1
  Zn  Zn103  1  0.00218497  0.25159085  0.74971521  1
  Zn  Zn104  1  0.00074975  0.12411795  0.11980819  1
  Zn  Zn105  1  0.00148657  -0.00917477  0.00358539  1
  Zn  Zn106  1  0.25358620  0.87286174  0.62910701  1
  Zn  Zn107  1  0.18385040  0.18952994  0.18412939  1
  Zn  Zn108  1  0.18914575  0.18977693  0.68502398  1
  Zn  Zn109  1  0.18609787  0.68398659  0.19018401  1
  Zn  Zn110  1  0.18949486  0.68869963  0.68429000  1
  Zn  Zn111  1  0.68727546  0.18549414  0.18565232  1
  Zn  Zn112  1  0.68538529  0.19033518  0.68721004  1
  Zn  Zn113  1  0.68673359  0.69085516  0.18712180  1
  Zn  Zn114  1  0.68591449  0.68893024  0.69706615  1
  Zn  Zn115  1  0.31786111  0.31314780  0.31179306  1
  Zn  Zn116  1  0.31327537  0.31876917  0.81203360  1
  Zn  Zn117  1  0.31179946  0.81264488  0.31720624  1
  Zn  Zn118  1  0.30657914  0.81071256  0.81631482  1
  Zn  Zn119  1  0.79712348  0.31841634  0.31523703  1
  Zn  Zn120  1  0.81189570  0.31195551  0.81196180  1
  Zn  Zn121  1  0.81356414  0.81601234  0.30989042  1
  Zn  Zn122  1  0.80135324  0.80745435  0.81110791  1
  Zn  Zn123  1  0.18971364  0.43808289  0.43642402  1
  Zn  Zn124  1  0.18838476  0.43967199  0.93359375  1
  Zn  Zn125  1  0.19044340  0.93950126  0.43797075  1
  Zn  Zn126  1  0.18481864  0.93189065  0.94106732  1
  Zn  Zn127  1  0.68427381  0.42663257  0.42596446  1
  Zn  Zn128  1  0.68361599  0.44075757  0.93665959  1
  Zn  Zn129  1  0.68674799  0.93847709  0.43840106  1
  Zn  Zn130  1  0.66167672  0.91393893  1.00334339  1
  Zn  Zn131  1  0.31358207  0.06312783  0.06532471  1
  Zn  Zn132  1  0.31161201  0.06195412  0.56289109  1
  Zn  Zn133  1  0.31111460  0.55821469  0.05900894  1
  Zn  Zn134  1  0.31662251  0.56411250  0.56150974  1
  Zn  Zn135  1  0.81683069  0.06302856  0.05949358  1
  Zn  Zn136  1  0.81222922  0.06110777  0.56158865  1
  Zn  Zn137  1  0.82032862  0.56582268  0.06129342  1
  Zn  Zn138  1  0.69049791  0.55770234  0.55840651  1
  Zn  Zn139  1  0.43742364  0.43520794  0.18756347  1
  Zn  Zn140  1  0.43961269  0.44357979  0.68471004  1
  Zn  Zn141  1  0.43791885  0.93576709  0.18508904  1
  Zn  Zn142  1  0.43728240  0.93598564  0.69238726  1
  Zn  Zn143  1  0.93708160  0.43462494  0.18510550  1
  Zn  Zn144  1  0.93528635  0.44186350  0.68854807  1
  Zn  Zn145  1  0.94128501  0.93740979  0.18775946  1
  Zn  Zn146  1  0.93730305  0.93596427  0.69006623  1
  Zn  Zn147  1  0.06437181  0.06045677  0.31053301  1
  Zn  Zn148  1  0.05887300  0.06232315  0.81399811  1
  Zn  Zn149  1  0.06776209  0.55926467  0.31022353  1
  Zn  Zn150  1  0.06418574  0.56800129  0.81200075  1
  Zn  Zn151  1  0.56661960  0.06149406  0.30995866  1
  Zn  Zn152  1  0.55622237  0.05614270  0.81466441  1
  Zn  Zn153  1  0.56529106  0.56334951  0.30778508  1
  Zn  Zn154  1  0.56439075  0.56558363  0.80920442  1
  Zn  Zn155  1  0.43453813  0.18711891  0.43846955  1
  Zn  Zn156  1  0.43630895  0.19106684  0.93622316  1
  Zn  Zn157  1  0.43978629  0.68469963  0.44272625  1
  Zn  Zn158  1  0.43595955  0.68031946  0.93842519  1
  Zn  Zn159  1  0.93449155  0.18507699  0.43548005  1
  Zn  Zn160  1  0.94158946  0.19102166  0.93848027  1
  Zn  Zn161  1  0.93323307  0.68718404  0.43955706  1
  Zn  Zn162  1  0.93865122  0.80818937  0.94030540  1
  Zn  Zn163  1  0.06234255  0.31106052  0.06096357  1
  Zn  Zn164  1  0.06553010  0.31339268  0.56389739  1
  Zn  Zn165  1  0.06420912  0.81686483  0.07258213  1
  Zn  Zn166  1  0.06233764  0.81159353  0.56756951  1
  Zn  Zn167  1  0.56466392  0.31235937  0.06253535  1
  Zn  Zn168  1  0.56272325  0.31054864  0.55946392  1
  Zn  Zn169  1  0.55574003  0.79508781  0.05789048  1
  Zn  Zn170  1  0.55986978  0.80810129  0.56148359  1
  O  O171  1  0.12234201  0.12252115  0.12069591  1
  O  O172  1  0.12050826  0.11833367  0.62040322  1
  O  O173  1  0.11669309  0.61340391  0.13262756  1
  O  O174  1  0.12319299  0.61900488  0.61379539  1
  O  O175  1  0.61444828  0.12601463  0.11595767  1
  O  O176  1  0.61768698  0.11982154  0.61693720  1
  O  O177  1  0.62042855  0.61408261  0.13018487  1
  O  O178  1  0.62299137  0.62951888  0.62239898  1
  O  O179  1  0.37058540  0.38606096  0.38353451  1
  O  O180  1  0.38642864  0.37572387  0.88209989  1
  O  O181  1  0.38591085  0.87813741  0.38238094  1
  O  O182  1  0.36937099  0.87924910  0.88933253  1
  O  O183  1  0.88215939  0.38036695  0.38088978  1
  O  O184  1  0.88543153  0.36907646  0.88086671  1
  O  O185  1  0.87629841  0.88129194  0.38444738  1
  O  O186  1  0.87232248  0.88045813  0.86858736  1
  O  O187  1  0.25680840  0.00566970  0.36475123  1
  O  O188  1  0.26045808  -0.00221897  0.87743416  1
  O  O189  1  0.25690168  0.50640677  0.36831833  1
  O  O190  1  0.24062022  0.51337179  0.86114019  1
  O  O191  1  0.75647794  0.00350038  0.37015790  1
  O  O192  1  0.76452928  0.01486610  0.86984625  1
  O  O193  1  0.76045062  0.51109251  0.36795278  1
  O  O194  1  0.74888743  0.51126143  0.87105227  1
  O  O195  1  0.24421798  0.49135060  0.13124311  1
  O  O196  1  0.24305369  0.50329225  0.63342228  1
  O  O197  1  0.25280223  0.99517920  0.13837550  1
  O  O198  1  0.23612373  0.99861411  0.62486169  1
  O  O199  1  0.74312040  0.49846165  0.12216347  1
  O  O200  1  0.75261250  0.48996723  0.63150813  1
  O  O201  1  0.75819022  1.00700876  0.14094430  1
  O  O202  1  0.74234688  0.99138830  0.62474900  1
  O  O203  1  0.00695767  0.36983301  0.25704914  1
  O  O204  1  0.01064339  0.37591946  0.75262507  1
  O  O205  1  0.01146673  0.86582180  0.25314912  1
  O  O206  1  0.00657993  0.86245982  0.74621693  1
  O  O207  1  0.50104821  0.35960821  0.24886326  1
  O  O208  1  0.49999993  0.37884541  0.75814240  1
  O  O209  1  0.50355667  0.86826268  0.25396150  1
  O  O210  1  0.50531987  0.88184722  0.76084328  1
  O  O211  1  0.49799816  0.12965276  0.24331156  1
  O  O212  1  0.49038624  0.12542529  0.73867255  1
  O  O213  1  0.50057500  0.63014422  0.23798013  1
  O  O214  1  0.50403979  0.62170304  0.72989778  1
  O  O215  1  1.00370460  0.14151797  0.25560644  1
  O  O216  1  0.99193794  0.12842881  0.74232986  1
  O  O217  1  0.99511412  0.62958664  0.24921867  1
  O  O218  1  0.99107820  0.63477867  0.74966952  1
  O  O219  1  0.36810829  0.26237876  0.00074268  1
  O  O220  1  0.36783693  0.25716703  0.50473682  1
  O  O221  1  0.37651171  0.76176174  -0.00112340  1
  O  O222  1  0.36959561  0.75843667  0.50573048  1
  O  O223  1  0.86794702  0.25995214  0.00453343  1
  O  O224  1  0.87229671  0.25179124  0.51183033  1
  O  O225  1  0.86534003  0.74506763  0.00894783  1
  O  O226  1  0.86403814  0.75375137  0.50831316  1
  O  O227  1  0.13928950  0.24450592  0.50578319  1
  O  O228  1  0.13439099  0.25260585  0.98956128  1
  O  O229  1  0.13351623  0.74183046  0.50597135  1
  O  O230  1  0.12244461  0.75103006  0.99163403  1
  O  O231  1  0.63623259  0.24061609  0.50252184  1
  O  O232  1  0.63172991  0.23861415  0.99764344  1
  O  O233  1  0.63531271  0.75529639  0.48700942  1
  O  O234  1  0.64195206  0.74114793  0.99371341  1
  O  O235  1  0.49821289  0.24146264  0.12935240  1
  O  O236  1  0.48862180  0.24339518  0.62361978  1
  O  O237  1  0.49656707  0.73061342  0.13120469  1
  O  O238  1  0.49024911  0.74054488  0.62253725  1
  O  O239  1  0.99194683  0.25222790  0.13450707  1
  O  O240  1  0.99288192  0.24469430  0.62556821  1
  O  O241  1  0.99471419  0.74210718  0.13812652  1
  O  O242  1  0.98863013  0.74788398  0.63271773  1
  O  O243  1  -0.00707864  0.26175296  0.37029726  1
  O  O244  1  0.01022475  0.26307858  0.87034297  1
  O  O245  1  -0.00621547  0.74996871  0.36370076  1
  O  O246  1  0.01318783  0.74999194  0.86785893  1
  O  O247  1  0.49962341  0.24288616  0.36194148  1
  O  O248  1  0.50094773  0.26181569  0.87249738  1
  O  O249  1  0.50756500  0.75254139  0.36901083  1
  O  O250  1  0.51673348  0.74550633  0.88811792  1
  O  O251  1  0.24784508  0.13244097  0.49209573  1
  O  O252  1  0.25250642  0.14096242  1.00384669  1
  O  O253  1  0.24367182  0.63151915  0.49492787  1
  O  O254  1  0.24839134  0.61634140  0.98530070  1
  O  O255  1  0.74238365  0.12847690  0.49618335  1
  O  O256  1  0.74206709  0.12672384  0.99241307  1
  O  O257  1  0.75172998  0.63446310  0.48925732  1
  O  O258  1  0.75556598  0.62591694  0.98816311  1
  O  O259  1  0.25685609  0.37397176  0.00499732  1
  O  O260  1  0.25653376  0.36794261  0.50125476  1
  O  O261  1  0.25761878  0.87399757  0.01624236  1
  O  O262  1  0.25819554  0.86793216  0.50091079  1
  O  O263  1  0.75621558  0.37321329  0.00419970  1
  O  O264  1  0.75924109  0.36457807  0.50664014  1
  O  O265  1  0.76030371  0.85775693  -0.00309379  1
  O  O266  1  0.75322481  0.86829754  0.50914019  1
  O  O267  1  0.13613035  0.48843808  0.24373212  1
  O  O268  1  0.12791602  0.49799570  0.73857897  1
  O  O269  1  0.13504980  0.99142708  0.24947538  1
  O  O270  1  0.12342331  0.99159899  0.74605809  1
  O  O271  1  0.63365259  0.49501363  0.24234131  1
  O  O272  1  0.64169398  0.49672008  0.75362861  1
  O  O273  1  0.63894436  0.99503334  0.24985148  1
  O  O274  1  0.62653607  1.00296922  0.73654494  1
  O  O275  1  0.37012013  0.00584043  0.25538265  1
  O  O276  1  0.37140903  0.00821209  0.75940603  1
  O  O277  1  0.36202016  0.49106128  0.25741055  1
  O  O278  1  0.35789441  0.49853848  0.74600775  1
  O  O279  1  0.86519823  -0.00844147  0.26217023  1
  O  O280  1  0.87252004  0.00684161  0.75701493  1
  O  O281  1  0.87440679  0.50994074  0.25404481  1
  O  O282  1  0.86508032  0.51173039  0.74640928  1
  O  O283  1  0.11592162  0.38023207  0.36680343  1
  O  O284  1  0.12098309  0.36974207  0.86562983  1
  O  O285  1  0.12808072  0.87739490  0.36387319  1
  O  O286  1  0.13311177  0.85893182  0.86499895  1
  O  O287  1  0.68732521  0.35711105  0.34334401  1
  O  O288  1  0.61199664  0.37334231  0.87630666  1
  O  O289  1  0.61289322  0.86996466  0.37796371  1
  O  O290  1  0.62452014  0.85946364  0.89155957  1
  O  O291  1  0.38478322  0.12887669  0.13203164  1
  O  O292  1  0.38146419  0.13134277  0.62761120  1
  O  O293  1  0.38036426  0.61492415  0.13191700  1
  O  O294  1  0.37740790  0.63732473  0.62582858  1
  O  O295  1  0.87397568  0.14286514  0.12061097  1
  O  O296  1  0.87814034  0.12988986  0.63284445  1
  O  O297  1  0.88341283  0.62937215  0.13688976  1
  O  O298  1  0.87205931  0.63881296  0.63578117  1
  O  O299  1  0.25072369  0.26260738  0.11765788  1
  O  O300  1  0.26173521  0.25187448  0.61611890  1
  O  O301  1  0.25314748  0.75934079  0.13376115  1
  O  O302  1  0.26123102  0.75030003  0.61383130  1
  O  O303  1  0.75404243  0.25915073  0.11993369  1
  O  O304  1  0.75863199  0.25280941  0.61546650  1
  O  O305  1  0.75929722  0.73942384  0.11215672  1
  O  O306  1  0.75143318  0.75518735  0.61885473  1
  O  O307  1  0.25563576  0.24157379  0.38214014  1
  O  O308  1  0.24208838  0.26019488  0.88323830  1
  O  O309  1  0.25464145  0.74186068  0.38836737  1
  O  O310  1  0.23578104  0.73660980  0.87160397  1
  O  O311  1  0.77013474  0.23233229  0.39197903  1
  O  O312  1  0.74983333  0.23845892  0.88024157  1
  O  O313  1  0.74466640  0.74627164  0.37959797  1
  O  O314  1  0.74705635  0.73924991  0.88768029  1
  O  O315  1  0.00210250  0.11968516  -0.00082064  1
  O  O316  1  0.00630794  0.12009150  0.50423522  1
  O  O317  1  -0.00445114  0.62354381  0.01661269  1
  O  O318  1  0.00721243  0.62083475  0.49970573  1
  O  O319  1  0.50390029  0.12225329  0.00634747  1
  O  O320  1  0.50560487  0.12489201  0.50890993  1
  O  O321  1  0.49208525  0.61488687  0.01558399  1
  O  O322  1  0.49656757  0.62273092  0.51779977  1
  O  O323  1  0.49015629  0.37728363  0.50004841  1
  O  O324  1  0.49353833  0.38126021  0.99523109  1
  O  O325  1  0.49285094  0.87483960  0.49127319  1
  O  O326  1  0.48334556  0.88069730  0.99927828  1
  O  O327  1  0.99880611  0.37799378  0.49268765  1
  O  O328  1  0.99363611  0.37547882  0.99003891  1
  O  O329  1  0.99563455  0.87948689  0.49997208  1
  O  O330  1  0.99611906  0.87479198  1.00783521  1
  O  O331  1  0.48754845  0.50906397  0.37359083  1
  O  O332  1  0.50623615  0.49803938  0.88632733  1
  O  O333  1  0.49545460  0.99222126  0.37490274  1
  O  O334  1  0.48574127  0.99986319  0.88926700  1
  O  O335  1  0.99759951  0.49051408  0.37738346  1
  O  O336  1  1.00875334  0.48746483  0.87361247  1
  O  O337  1  0.99268253  0.99704056  0.37912452  1
  O  O338  1  0.98209831  0.99929092  0.87151995  1
  O  O339  1  0.00145100  0.00661704  0.12654162  1
  O  O340  1  0.00937804  0.00405091  0.62128803  1
  O  O341  1  0.00873359  0.50726265  0.12861107  1
  O  O342  1  0.00828063  0.50319128  0.61865579  1
  O  O343  1  0.49144724  0.01022420  0.11261620  1
  O  O344  1  0.50481991  0.00798453  0.62167229  1
  O  O345  1  0.50501826  0.50766566  0.12272471  1
  O  O346  1  0.50311696  0.51184614  0.61883989  1
  O  O347  1  0.24416598  0.37696197  0.24292355  1
  O  O348  1  0.24010249  0.38876909  0.74933622  1
  O  O349  1  0.24968865  0.88063234  0.24486032  1
  O  O350  1  0.24064892  0.87870190  0.74706407  1
  O  O351  1  0.77316486  0.39070198  0.22356308  1
  O  O352  1  0.75358077  0.38246288  0.74063861  1
  O  O353  1  0.74346774  0.88629669  0.25043978  1
  O  O354  1  0.74324401  0.87607210  0.73709438  1
  O  O355  1  0.25380730  0.12089551  0.25524339  1
  O  O356  1  0.26311333  0.12278145  0.74284851  1
  O  O357  1  0.24461152  0.61417983  0.26115852  1
  O  O358  1  0.24433940  0.61575085  0.75531158  1
  O  O359  1  0.74341332  0.11735125  0.26316588  1
  O  O360  1  0.75733751  0.12470237  0.75403447  1
  O  O361  1  0.75899874  0.62161467  0.25432170  1
  O  O362  1  0.75586239  0.61868021  0.75796931  1
  O  O363  1  0.36546969  0.11931571  0.37077569  1
  O  O364  1  0.37875431  0.11861579  0.86580741  1
  O  O365  1  0.36237405  0.61695115  0.38242623  1
  O  O366  1  0.35742339  0.63095832  0.87315184  1
  O  O367  1  0.86554606  0.10869118  0.38281103  1
  O  O368  1  0.87107828  0.13005089  0.86147542  1
  O  O369  1  0.86656353  0.62384180  0.36628759  1
  O  O370  1  0.85995548  0.62892844  0.86562929  1
  O  O371  1  0.13121584  0.38000374  0.13181522  1
  O  O372  1  0.12892316  0.38427469  0.63172994  1
  O  O373  1  0.14173305  0.87593481  0.13801176  1
  O  O374  1  0.12640058  0.88206079  0.63552227  1
  O  O375  1  0.63526365  0.38251703  0.12793223  1
  O  O376  1  0.63920893  0.36897797  0.62335951  1
  O  O377  1  0.61770542  0.87640753  0.10233292  1
  O  O378  1  0.62960608  0.88150421  0.62255771  1
  O  O379  1  0.11709932  0.26313012  0.24754124  1
  O  O380  1  0.12787983  0.26122691  0.75307643  1
  O  O381  1  0.11731230  0.75647035  0.24986647  1
  O  O382  1  0.11615269  0.75577550  0.74645843  1
  O  O383  1  0.60923675  0.24644055  0.24513119  1
  O  O384  1  0.62044189  0.25662187  0.75106768  1
  O  O385  1  0.61988900  0.75715789  0.25717447  1
  O  O386  1  0.63582993  0.75488906  0.77497341  1
  O  O387  1  0.38637873  0.24345525  0.24843212  1
  O  O388  1  0.37485052  0.24574172  0.74121763  1
  O  O389  1  0.38760566  0.75229199  0.25714469  1
  O  O390  1  0.37044823  0.75732917  0.73459495  1
  O  O391  1  0.88242419  0.26160734  0.24145216  1
  O  O392  1  0.87543804  0.24379230  0.73822999  1
  O  O393  1  0.87984591  0.74216471  0.24594366  1
  O  O394  1  0.87938836  0.74552394  0.74686581  1
  O  O395  1  0.37367472  0.49121948  0.49108003  1
  O  O396  1  0.38494426  0.48742992  1.00440195  1
  O  O397  1  0.37489970  0.98999712  0.49473885  1
  O  O398  1  0.37685555  0.99487286  0.99602411  1
  O  O399  1  0.88717333  0.49224761  0.49166923  1
  O  O400  1  0.88113948  0.48686040  1.00345097  1
  O  O401  1  0.88152090  0.99279558  0.49613440  1
  O  O402  1  0.87311289  1.00145865  0.98100577  1
  O  O403  1  0.12327464  0.00160425  0.00150926  1
  O  O404  1  0.12007102  0.00465660  0.50739759  1
  O  O405  1  0.12179081  0.49158876  0.01383648  1
  O  O406  1  0.12233855  0.50511578  0.50896896  1
  O  O407  1  0.61088849  0.01441210  -0.00750645  1
  O  O408  1  0.62340775  0.00713894  0.51138339  1
  O  O409  1  0.61324138  0.49597654  0.01067014  1
  O  O410  1  0.62956534  0.49540869  0.48863936  1
  O  O411  1  0.36545868  0.37426314  0.11828103  1
  O  O412  1  0.37437775  0.36859643  0.61750260  1
  O  O413  1  0.36354805  0.87698843  0.11629565  1
  O  O414  1  0.37699265  0.86898859  0.61511373  1
  O  O415  1  0.87314514  0.36725256  0.11160235  1
  O  O416  1  0.87083113  0.36707778  0.62051174  1
  O  O417  1  0.87376496  0.86008634  0.13574584  1
  O  O418  1  0.86580050  0.86727094  0.62245500  1
  O  O419  1  0.13876710  0.11898092  0.38098697  1
  O  O420  1  0.12279283  0.14080739  0.86974326  1
  O  O421  1  0.13602990  0.61611111  0.38819642  1
  O  O422  1  0.12930801  0.63773991  0.87527588  1
  O  O423  1  0.63339015  0.11694288  0.38868656  1
  O  O424  1  0.63212011  0.12457041  0.87858842  1
  O  O425  1  0.63797786  0.63496992  0.36509343  1
  O  O426  1  0.63970733  0.63219104  0.87323291  1
