# generated using pymatgen
data_V85Zn86O256
_symmetry_space_group_name_H-M   'P 1'
_cell_length_a   16.95288465
_cell_length_b   16.95112962
_cell_length_c   16.94087512
_cell_angle_alpha   89.97279091
_cell_angle_beta   89.96976517
_cell_angle_gamma   90.00004344
_symmetry_Int_Tables_number   1
_chemical_formula_structural   V85Zn86O256
_chemical_formula_sum   'V85 Zn86 O256'
_cell_volume   4868.30729173
_cell_formula_units_Z   1
loop_
 _symmetry_equiv_pos_site_id
 _symmetry_equiv_pos_as_xyz
  1  'x, y, z'
loop_
 _atom_site_type_symbol
 _atom_site_label
 _atom_site_symmetry_multiplicity
 _atom_site_fract_x
 _atom_site_fract_y
 _atom_site_fract_z
 _atom_site_occupancy
  V  V0  1  0.73826698  0.12507500  0.87965624  1
  V  V1  1  0.12660893  0.00022244  0.62590028  1
  V  V2  1  0.62374983  0.61488600  0.51760467  1
  V  V3  1  -0.00226372  0.50106502  -0.00166389  1
  V  V4  1  0.62243479  0.62390152  -0.00898250  1
  V  V5  1  0.00182203  0.13459762  0.12128668  1
  V  V6  1  0.74721759  0.00708532  0.75085937  1
  V  V7  1  0.86978875  0.62525390  0.25352363  1
  V  V8  1  0.38132440  0.50339343  0.87509099  1
  V  V9  1  0.87535989  0.87516897  0.50093763  1
  V  V10  1  0.87993664  0.12970879  0.24453519  1
  V  V11  1  0.00189906  -0.00089693  0.49846572  1
  V  V12  1  0.24978130  0.37283910  0.12910502  1
  V  V13  1  0.62099520  0.00994668  0.12111200  1
  V  V14  1  0.87463388  -0.00174300  0.37321132  1
  V  V15  1  0.11964676  0.49417412  0.60909416  1
  V  V16  1  0.87445739  0.00349649  0.87450319  1
  V  V17  1  0.37543427  0.75155214  0.11415137  1
  V  V18  1  0.74231369  0.75104277  -0.00202746  1
  V  V19  1  0.75150695  0.37088608  0.12922420  1
  V  V20  1  0.50061147  0.61590990  0.11806465  1
  V  V21  1  0.24732249  0.62584684  0.87006827  1
  V  V22  1  0.25431519  0.86944262  0.62967967  1
  V  V23  1  0.00141329  0.74262016  0.24482741  1
  V  V24  1  0.62450156  0.74445680  0.37749816  1
  V  V25  1  0.24819479  0.25282068  0.50018452  1
  V  V26  1  0.76023769  0.25309365  0.49872184  1
  V  V27  1  0.00115027  -0.00013070  0.00074453  1
  V  V28  1  0.49702478  0.86815468  0.88476609  1
  V  V29  1  0.87476730  0.87459071  -0.00061278  1
  V  V30  1  0.75049907  0.24564734  0.00549060  1
  V  V31  1  0.00224531  0.26680459  0.75453621  1
  V  V32  1  0.93470109  0.44308871  0.43153251  1
  V  V33  1  0.38290295  0.38115062  0.00462189  1
  V  V34  1  0.62453178  0.87282913  0.25035688  1
  V  V35  1  0.24996792  0.12484387  0.37392575  1
  V  V36  1  0.88248855  0.75023122  0.63197233  1
  V  V37  1  0.12037162  0.62889241  0.00533507  1
  V  V38  1  0.62209318  0.86500755  0.75399787  1
  V  V39  1  0.47703305  0.74645596  0.74037948  1
  V  V40  1  0.36747775  -0.00014503  0.88141423  1
  V  V41  1  0.51255466  0.37874156  0.37536730  1
  V  V42  1  0.87795249  0.74529478  0.12255150  1
  V  V43  1  0.12805056  0.87236757  0.24825941  1
  V  V44  1  0.11742281  0.87147550  0.74931175  1
  V  V45  1  0.49853726  -0.00093635  0.50204551  1
  V  V46  1  0.62613158  0.26166946  0.87915418  1
  V  V47  1  0.88842116  0.62456872  0.75169738  1
  V  V48  1  0.74518823  0.12662484  0.37276916  1
  V  V49  1  0.49524712  0.12744137  0.62810311  1
  V  V50  1  0.25195267  -0.00248159  0.24930118  1
  V  V51  1  0.25412196  0.24391383  -0.00625386  1
  V  V52  1  0.50071909  0.74723093  0.24954781  1
  V  V53  1  0.74727492  0.87441915  0.12395042  1
  V  V54  1  0.87483956  0.36899204  0.00349620  1
  V  V55  1  0.74962015  0.74937112  0.50074587  1
  V  V56  1  0.51242192  0.25018286  0.25776700  1
  V  V57  1  0.49941123  0.25546497  0.75560657  1
  V  V58  1  0.12560376  0.12477456  0.49720730  1
  V  V59  1  0.37653881  -0.00324539  0.37593864  1
  V  V60  1  0.62135799  0.13255166  0.49474633  1
  V  V61  1  0.74929211  -0.00181532  0.24845333  1
  V  V62  1  0.11547634  0.74962918  0.87130742  1
  V  V63  1  0.62492833  0.49228856  0.11587626  1
  V  V64  1  0.23121217  0.48805533  0.75950688  1
  V  V65  1  0.36598799  0.12478656  0.75653450  1
  V  V66  1  0.75358595  0.63155125  0.87172542  1
  V  V67  1  0.11876651  0.50320498  0.12684542  1
  V  V68  1  0.24874959  0.49932096  0.25172181  1
  V  V69  1  0.12714129  0.74031005  0.37941948  1
  V  V70  1  0.00958776  0.62661415  0.61126367  1
  V  V71  1  0.38103997  0.12482208  0.24696051  1
  V  V72  1  0.37629084  0.86727613  0.50406542  1
  V  V73  1  0.38266341  0.24840594  0.12898776  1
  V  V74  1  0.13360791  0.12196395  -0.00923856  1
  V  V75  1  0.24992103  0.74201233  0.50479667  1
  V  V76  1  0.50032208  0.01458420  0.00170012  1
  V  V77  1  0.37588102  0.62294667  0.25185170  1
  V  V78  1  0.74494167  0.49723598  0.25251639  1
  V  V79  1  0.00141232  0.87250119  0.37354230  1
  V  V80  1  0.62329693  0.00345339  0.62753999  1
  V  V81  1  0.87432129  0.49184621  0.87381684  1
  V  V82  1  0.11460059  0.25458037  0.36497113  1
  V  V83  1  0.37437782  0.37899057  0.49895730  1
  V  V84  1  0.75021732  0.87860190  0.62681457  1
  Zn  Zn85  1  0.47597541  0.53294662  0.55438901  1
  Zn  Zn86  1  0.50068213  0.87273693  0.37737594  1
  Zn  Zn87  1  -0.00329485  0.87283888  0.87053623  1
  Zn  Zn88  1  0.12725029  0.26197582  0.86560205  1
  Zn  Zn89  1  0.10779705  0.37007143  0.24656702  1
  Zn  Zn90  1  0.25124314  0.75469061  -0.00510068  1
  Zn  Zn91  1  0.37234827  0.25518804  0.62850936  1
  Zn  Zn92  1  0.24399253  0.37228000  0.62976206  1
  Zn  Zn93  1  0.93514680  0.29379665  0.17969918  1
  Zn  Zn94  1  0.38120841  0.49930031  0.37631988  1
  Zn  Zn95  1  0.12749754  -0.00268610  0.12355049  1
  Zn  Zn96  1  0.25821621  0.87605213  0.11921166  1
  Zn  Zn97  1  0.87771388  0.13046799  0.74651964  1
  Zn  Zn98  1  0.00114586  0.13066048  0.62849994  1
  Zn  Zn99  1  0.25111317  0.61848186  0.38305191  1
  Zn  Zn100  1  0.75396286  0.38665411  0.62574227  1
  Zn  Zn101  1  0.24643994  0.00315558  0.75684599  1
  Zn  Zn102  1  0.75397909  0.61412942  0.38299015  1
  Zn  Zn103  1  0.60705995  0.40904532  0.71340695  1
  Zn  Zn104  1  0.74633011  0.50181487  0.74187377  1
  Zn  Zn105  1  0.88058109  0.25505521  0.62511612  1
  Zn  Zn106  1  0.49835435  0.37717498  0.87936924  1
  Zn  Zn107  1  0.18832053  0.18388813  0.18133639  1
  Zn  Zn108  1  0.18155707  0.18993506  0.68715997  1
  Zn  Zn109  1  0.19135503  0.68535782  0.18818284  1
  Zn  Zn110  1  0.18826230  0.68587013  0.69163017  1
  Zn  Zn111  1  0.68983156  0.18621812  0.18739461  1
  Zn  Zn112  1  0.66669967  0.22646460  0.67041007  1
  Zn  Zn113  1  0.68641836  0.68321385  0.18394418  1
  Zn  Zn114  1  0.69559373  0.68751058  0.68827070  1
  Zn  Zn115  1  0.31328486  0.31270082  0.31556943  1
  Zn  Zn116  1  0.31437464  0.31631531  0.81495774  1
  Zn  Zn117  1  0.31370840  0.80844889  0.31421689  1
  Zn  Zn118  1  0.30940364  0.81572719  0.81626015  1
  Zn  Zn119  1  0.80927400  0.31402355  0.31775118  1
  Zn  Zn120  1  0.80916501  0.31650733  0.80352514  1
  Zn  Zn121  1  0.81191755  0.81025146  0.31330508  1
  Zn  Zn122  1  0.81204592  0.81563987  0.81163940  1
  Zn  Zn123  1  0.18282693  0.43380444  0.43477599  1
  Zn  Zn124  1  0.18914709  0.43525594  0.94322187  1
  Zn  Zn125  1  0.18985621  0.93134838  0.43729032  1
  Zn  Zn126  1  0.18810051  0.93070694  0.94044978  1
  Zn  Zn127  1  0.68914602  0.43647414  0.43978766  1
  Zn  Zn128  1  0.65005009  0.47765183  0.88788933  1
  Zn  Zn129  1  0.68493150  0.93874030  0.43829290  1
  Zn  Zn130  1  0.68128359  0.93704729  0.93678991  1
  Zn  Zn131  1  0.31754789  0.06038261  0.06488787  1
  Zn  Zn132  1  0.31130842  0.06074382  0.56429773  1
  Zn  Zn133  1  0.30786879  0.56458398  0.06036243  1
  Zn  Zn134  1  0.30730954  0.56284189  0.57582253  1
  Zn  Zn135  1  0.81318897  0.06352236  0.06337827  1
  Zn  Zn136  1  0.81349598  0.07028844  0.56378431  1
  Zn  Zn137  1  0.81019714  0.56207121  0.06319917  1
  Zn  Zn138  1  0.81757291  0.55614025  0.56447890  1
  Zn  Zn139  1  0.44184258  0.43546581  0.19181729  1
  Zn  Zn140  1  0.41881427  0.46050070  0.68292546  1
  Zn  Zn141  1  0.44130003  0.93542206  0.18584234  1
  Zn  Zn142  1  0.43609302  0.93600126  0.69302709  1
  Zn  Zn143  1  0.93998830  0.45293481  0.19477316  1
  Zn  Zn144  1  0.93460227  0.43547491  0.67972103  1
  Zn  Zn145  1  0.93818899  0.93643393  0.18525965  1
  Zn  Zn146  1  0.93845670  0.94282374  0.68727782  1
  Zn  Zn147  1  0.06288138  0.06397033  0.30948433  1
  Zn  Zn148  1  0.06162511  0.06762456  0.81217375  1
  Zn  Zn149  1  0.06165778  0.56241866  0.31211672  1
  Zn  Zn150  1  0.05860895  0.56209552  0.81583345  1
  Zn  Zn151  1  0.56107656  0.06074543  0.31105430  1
  Zn  Zn152  1  0.55840926  0.06321102  0.81419581  1
  Zn  Zn153  1  0.56774308  0.56042841  0.30911665  1
  Zn  Zn154  1  0.55666886  0.56826118  0.70961754  1
  Zn  Zn155  1  0.43480952  0.19096099  0.43586249  1
  Zn  Zn156  1  0.43581545  0.18665433  0.93793914  1
  Zn  Zn157  1  0.43920048  0.68592641  0.43893016  1
  Zn  Zn158  1  0.44118789  0.68173591  0.92871555  1
  Zn  Zn159  1  0.93867228  0.18230130  0.43362328  1
  Zn  Zn160  1  0.93812624  0.18814751  0.93156736  1
  Zn  Zn161  1  0.93655407  0.68391773  0.43764510  1
  Zn  Zn162  1  0.93878747  0.68572157  0.93980138  1
  Zn  Zn163  1  0.07596323  0.32341715  0.03291962  1
  Zn  Zn164  1  0.05315812  0.31632437  0.55755069  1
  Zn  Zn165  1  0.06377084  0.81393015  0.06178699  1
  Zn  Zn166  1  0.06490799  0.81041588  0.56319349  1
  Zn  Zn167  1  0.56549268  0.30629661  0.06325017  1
  Zn  Zn168  1  0.55846618  0.31648176  0.55872058  1
  Zn  Zn169  1  0.56035362  0.81187342  0.06382046  1
  Zn  Zn170  1  0.56277038  0.81028940  0.56751617  1
  O  O171  1  0.11652184  0.11515525  0.12073354  1
  O  O172  1  0.12579158  0.11474282  0.61502165  1
  O  O173  1  0.13288566  0.61631062  0.11734039  1
  O  O174  1  0.11351172  0.61952358  0.63078118  1
  O  O175  1  0.62724126  0.10865870  0.13055721  1
  O  O176  1  0.61053587  0.12374079  0.61890703  1
  O  O177  1  0.61825130  0.61855829  0.11327606  1
  O  O178  1  0.62282174  0.62827713  0.62089394  1
  O  O179  1  0.38173790  0.37605310  0.38266438  1
  O  O180  1  0.37385361  0.38409834  0.88822439  1
  O  O181  1  0.37596903  0.87936118  0.38427913  1
  O  O182  1  0.38890890  0.88599849  0.86968091  1
  O  O183  1  0.87118810  0.38119067  0.38089778  1
  O  O184  1  0.86623032  0.38853841  0.88503726  1
  O  O185  1  0.88016861  0.87841455  0.38027316  1
  O  O186  1  0.87499111  0.88619686  0.88037928  1
  O  O187  1  0.25597544  0.00147014  0.36574790  1
  O  O188  1  0.26392462  -0.00556870  0.87702988  1
  O  O189  1  0.24921730  0.49906426  0.36160156  1
  O  O190  1  0.24391456  0.50423707  0.87132738  1
  O  O191  1  0.75445381  0.00534711  0.36903716  1
  O  O192  1  0.75352692  0.00453236  0.87196619  1
  O  O193  1  0.73866105  0.49917386  0.35759902  1
  O  O194  1  0.76238342  0.51929948  0.87866794  1
  O  O195  1  0.24406185  0.49373031  0.13350184  1
  O  O196  1  0.23052171  0.50094107  0.64277382  1
  O  O197  1  0.25281199  0.99633367  0.13888672  1
  O  O198  1  0.23840455  0.99035893  0.62343220  1
  O  O199  1  0.74266325  0.49119543  0.12762569  1
  O  O200  1  0.74509020  0.50292962  0.62661693  1
  O  O201  1  0.74270562  0.99309454  0.12782155  1
  O  O202  1  0.74530478  0.99872342  0.63358224  1
  O  O203  1  -0.00405172  0.36827561  0.23683728  1
  O  O204  1  -0.00163234  0.36605069  0.75117467  1
  O  O205  1  0.00714961  0.86694126  0.25457888  1
  O  O206  1  0.01294988  0.88048244  0.75017720  1
  O  O207  1  0.49604229  0.36065814  0.26247526  1
  O  O208  1  0.49711278  0.35931667  0.75628678  1
  O  O209  1  0.50853020  0.86625032  0.25229016  1
  O  O210  1  0.50536697  0.86769076  0.75808605  1
  O  O211  1  0.49156848  0.13629008  0.25788598  1
  O  O212  1  0.48929787  0.12955250  0.74403649  1
  O  O213  1  0.49514776  0.62799686  0.24108745  1
  O  O214  1  0.50250374  0.65117830  0.76338899  1
  O  O215  1  0.99157394  0.11838081  0.23711060  1
  O  O216  1  0.99581637  0.12820647  0.74639769  1
  O  O217  1  0.99167914  0.63784807  0.25079025  1
  O  O218  1  0.99124395  0.62725863  0.74565797  1
  O  O219  1  0.37188567  0.25252650  0.01122774  1
  O  O220  1  0.36455512  0.25689461  0.50089672  1
  O  O221  1  0.37736669  0.74044572  0.01270887  1
  O  O222  1  0.36965128  0.76113165  0.49678894  1
  O  O223  1  0.86608663  0.25870112  -0.00856744  1
  O  O224  1  0.86209444  0.24172259  0.49267232  1
  O  O225  1  0.86866864  0.75413618  0.00667244  1
  O  O226  1  0.86855662  0.75465592  0.50842815  1
  O  O227  1  0.13018361  0.24483929  0.48989715  1
  O  O228  1  0.14443973  0.23146629  1.01858190  1
  O  O229  1  0.13660802  0.75702933  0.48994343  1
  O  O230  1  0.12438170  0.74333120  0.99398514  1
  O  O231  1  0.63010953  0.23405662  0.49773877  1
  O  O232  1  0.63771720  0.24881906  0.99325934  1
  O  O233  1  0.63170013  0.74530446  0.49641210  1
  O  O234  1  0.63759439  0.74573681  1.00605531  1
  O  O235  1  0.48975621  0.25596588  0.13941032  1
  O  O236  1  0.49462984  0.24178917  0.63486066  1
  O  O237  1  0.49278198  0.73907331  0.12957888  1
  O  O238  1  0.49657914  0.75723058  0.64126709  1
  O  O239  1  1.00554513  0.23634968  0.10885588  1
  O  O240  1  1.00203753  0.25057696  0.63560835  1
  O  O241  1  0.99016858  0.75706608  0.13311994  1
  O  O242  1  0.99506754  0.73971479  0.62255790  1
  O  O243  1  0.01659090  0.23979751  0.37289483  1
  O  O244  1  0.00345305  0.24644769  0.85996920  1
  O  O245  1  0.00786682  0.75434808  0.36851566  1
  O  O246  1  0.01076454  0.75265674  0.87858441  1
  O  O247  1  0.49775068  0.25690483  0.36394510  1
  O  O248  1  0.50710955  0.24959777  0.87328428  1
  O  O249  1  0.50892749  0.75052092  0.36882785  1
  O  O250  1  0.49164554  0.76542414  0.86800948  1
  O  O251  1  0.24514907  0.12994302  0.49411187  1
  O  O252  1  0.24606667  0.12960208  1.00731136  1
  O  O253  1  0.25880847  0.63753058  0.50352047  1
  O  O254  1  0.23638861  0.62688989  0.99006762  1
  O  O255  1  0.74031912  0.12363020  0.48903130  1
  O  O256  1  0.75682855  0.13549350  0.99376064  1
  O  O257  1  0.73947949  0.63485179  0.50099886  1
  O  O258  1  0.74718227  0.63527551  0.99638041  1
  O  O259  1  0.26320700  0.36532652  0.01566679  1
  O  O260  1  0.25598450  0.36687923  0.49770275  1
  O  O261  1  0.24901422  0.86749205  0.00732291  1
  O  O262  1  0.25754946  0.86563952  0.50780066  1
  O  O263  1  0.76223750  0.36568610  0.01420245  1
  O  O264  1  0.74246071  0.35391320  0.49700471  1
  O  O265  1  0.75358761  0.86875806  0.00195730  1
  O  O266  1  0.75418850  0.87073880  0.50762866  1
  O  O267  1  0.13209455  0.49842634  0.24228826  1
  O  O268  1  0.12931544  0.49710120  0.75339303  1
  O  O269  1  0.13524397  0.98999971  0.25193697  1
  O  O270  1  0.12761528  0.99568630  0.74210989  1
  O  O271  1  0.63453504  0.50749146  0.23026906  1
  O  O272  1  0.62942905  0.50351024  0.77541586  1
  O  O273  1  0.62809162  0.99122649  0.24381077  1
  O  O274  1  0.62915622  0.99529576  0.74591728  1
  O  O275  1  0.37292764  0.00435500  0.25380489  1
  O  O276  1  0.37348554  0.00764326  0.76098281  1
  O  O277  1  0.36876040  0.50952496  0.24790106  1
  O  O278  1  0.35253229  0.49095372  0.77319383  1
  O  O279  1  0.86882397  0.00434035  0.25318220  1
  O  O280  1  0.86532175  -0.00229988  0.75898286  1
  O  O281  1  0.85971891  0.51665436  0.23836045  1
  O  O282  1  0.87798265  0.50875468  0.75984439  1
  O  O283  1  0.12850095  0.35833637  0.36777152  1
  O  O284  1  0.11587559  0.35612538  0.92694065  1
  O  O285  1  0.12322396  0.86471252  0.36387024  1
  O  O286  1  0.12274369  0.86772043  0.86618437  1
  O  O287  1  0.61115259  0.37336763  0.37979656  1
  O  O288  1  0.61871405  0.36474068  0.88439279  1
  O  O289  1  0.62556164  0.86247192  0.37069498  1
  O  O290  1  0.60839615  0.88140350  0.86625719  1
  O  O291  1  0.37406838  0.13227297  0.13923468  1
  O  O292  1  0.38426304  0.12446459  0.63022609  1
  O  O293  1  0.38265838  0.62856707  0.12944561  1
  O  O294  1  0.39995456  0.56824313  0.63393697  1
  O  O295  1  0.88614212  0.11966223  0.13262087  1
  O  O296  1  0.88293242  0.12941609  0.62703714  1
  O  O297  1  0.86815196  0.64006874  0.13265103  1
  O  O298  1  0.88864076  0.63167684  0.63065300  1
  O  O299  1  0.26383490  0.25639263  0.12582333  1
  O  O300  1  0.24770810  0.25074306  0.61166617  1
  O  O301  1  0.26764245  0.74604888  0.12561417  1
  O  O302  1  0.24396420  0.75829499  0.61911244  1
  O  O303  1  0.74503328  0.25611035  0.11732429  1
  O  O304  1  0.75746850  0.23131264  0.60248170  1
  O  O305  1  0.75585151  0.75595825  0.11803584  1
  O  O306  1  0.75881665  0.75660207  0.61599605  1
  O  O307  1  0.24517957  0.24265892  0.38373956  1
  O  O308  1  0.25140636  0.25274720  0.89095761  1
  O  O309  1  0.24352085  0.74724759  0.38434008  1
  O  O310  1  0.24065056  0.74131291  0.87493997  1
  O  O311  1  0.74989716  0.23376419  0.38156552  1
  O  O312  1  0.74250915  0.24270632  0.88073878  1
  O  O313  1  0.74456224  0.75264986  0.38950060  1
  O  O314  1  0.75983437  0.74216444  0.88469255  1
  O  O315  1  0.00717949  0.11736150  0.00305659  1
  O  O316  1  0.00952925  0.11513903  0.49884277  1
  O  O317  1  0.01145545  0.61910556  0.00087652  1
  O  O318  1  0.00417079  0.63032849  0.51222626  1
  O  O319  1  0.50172356  0.11319794  0.00026790  1
  O  O320  1  0.50247702  0.12126464  0.50539882  1
  O  O321  1  0.51021281  0.63108941  0.00646083  1
  O  O322  1  0.51799078  0.62581732  0.49796558  1
  O  O323  1  0.49054946  0.36738448  0.48552940  1
  O  O324  1  0.48608636  0.36861280  1.00364141  1
  O  O325  1  0.49203208  0.87884047  0.50224808  1
  O  O326  1  0.50311008  0.87664553  0.98718034  1
  O  O327  1  0.99728010  0.38809554  0.49156836  1
  O  O328  1  0.98170069  0.38792726  1.01317933  1
  O  O329  1  0.99603096  0.87844949  0.49312972  1
  O  O330  1  0.99338089  0.88293095  0.99746337  1
  O  O331  1  0.50077897  0.48373720  0.36437469  1
  O  O332  1  0.48011036  0.49920331  0.87182850  1
  O  O333  1  0.49393381  0.99578264  0.38316919  1
  O  O334  1  0.49475380  0.99389481  0.88698589  1
  O  O335  1  0.99183509  0.49439309  0.36329158  1
  O  O336  1  0.98988288  0.50503895  0.89007251  1
  O  O337  1  0.99594400  0.99243131  0.37783856  1
  O  O338  1  0.99117721  1.00029310  0.88484923  1
  O  O339  1  -0.00014079  0.00317417  0.11107896  1
  O  O340  1  0.01386844  -0.00398999  0.61620873  1
  O  O341  1  0.01249134  0.50451121  0.11710703  1
  O  O342  1  0.01267264  0.51278075  0.62938119  1
  O  O343  1  0.50545238  -0.00643824  0.11042729  1
  O  O344  1  0.50268173  0.00661250  0.62211231  1
  O  O345  1  0.50731607  0.50866943  0.12788035  1
  O  O346  1  0.52711953  0.47640651  0.64383954  1
  O  O347  1  0.25156668  0.38062566  0.24037620  1
  O  O348  1  0.24324625  0.38381789  0.75229374  1
  O  O349  1  0.24476496  0.87911956  0.24871706  1
  O  O350  1  0.24043756  0.87881148  0.74292638  1
  O  O351  1  0.75343133  0.38095725  0.23836883  1
  O  O352  1  0.73849052  0.38212985  0.74869450  1
  O  O353  1  0.74409777  0.87890900  0.24552529  1
  O  O354  1  0.74253250  0.88649326  0.74785473  1
  O  O355  1  0.25748747  0.11512926  0.25404701  1
  O  O356  1  0.26265493  0.12370965  0.74150473  1
  O  O357  1  0.25963859  0.61602878  0.25173834  1
  O  O358  1  0.24186797  0.61198977  0.76466138  1
  O  O359  1  0.75555346  0.11651325  0.25475646  1
  O  O360  1  0.75166651  0.11230280  0.75960846  1
  O  O361  1  0.75449512  0.61909494  0.25096967  1
  O  O362  1  0.76554691  0.62895864  0.75827715  1
  O  O363  1  0.36923722  0.11805042  0.36701156  1
  O  O364  1  0.37955295  0.11448134  0.86716477  1
  O  O365  1  0.37477726  0.62082707  0.36601790  1
  O  O366  1  0.36235054  0.61093129  0.88432394  1
  O  O367  1  0.86869636  0.11479423  0.36573093  1
  O  O368  1  0.86431258  0.11254452  0.87556057  1
  O  O369  1  0.86765119  0.64051150  0.35837641  1
  O  O370  1  0.87363725  0.62138440  0.86865057  1
  O  O371  1  0.13545821  0.38377444  0.12369589  1
  O  O372  1  0.12442955  0.39070221  0.61719259  1
  O  O373  1  0.12592590  0.87619330  0.13877699  1
  O  O374  1  0.13259088  0.87962942  0.63058665  1
  O  O375  1  0.63184347  0.38588112  0.11605723  1
  O  O376  1  0.63965035  0.33754039  0.63142396  1
  O  O377  1  0.62974475  0.87862867  0.13172965  1
  O  O378  1  0.63186097  0.88363741  0.63213648  1
  O  O379  1  0.13316722  0.24665794  0.26182814  1
  O  O380  1  0.11185013  0.24942135  0.75201255  1
  O  O381  1  0.11943412  0.75388650  0.25302607  1
  O  O382  1  0.12809991  0.75927480  0.75902891  1
  O  O383  1  0.61054008  0.24403630  0.24757500  1
  O  O384  1  0.61080342  0.23581961  0.76794392  1
  O  O385  1  0.62253364  0.75216531  0.25706502  1
  O  O386  1  0.63149497  0.76481869  0.74717343  1
  O  O387  1  0.38004765  0.24135287  0.24707683  1
  O  O388  1  0.37996660  0.24245366  0.75288790  1
  O  O389  1  0.37980480  0.73733135  0.24463699  1
  O  O390  1  0.37680519  0.75284873  0.74858092  1
  O  O391  1  0.86653917  0.23347229  0.25167209  1
  O  O392  1  0.88681302  0.24964527  0.75163720  1
  O  O393  1  0.88186951  0.74952069  0.24138722  1
  O  O394  1  0.87175281  0.74757961  0.73685201  1
  O  O395  1  0.37522729  0.48811853  0.49496986  1
  O  O396  1  0.36465556  0.49119768  0.99076610  1
  O  O397  1  0.37848993  0.98980228  0.49644539  1
  O  O398  1  0.38906315  1.00249662  0.99555232  1
  O  O399  1  0.88025572  0.51578262  0.48152744  1
  O  O400  1  0.88087760  0.49751878  0.99709183  1
  O  O401  1  0.88018943  0.99341252  0.49413280  1
  O  O402  1  0.88018106  0.99502444  0.99369921  1
  O  O403  1  0.11767567  0.00426935  -0.00011366  1
  O  O404  1  0.12314143  0.00210187  0.50363738  1
  O  O405  1  0.11690550  0.50849369  0.00761888  1
  O  O406  1  0.13423871  0.50597136  0.51145919  1
  O  O407  1  0.61144004  -0.00430525  0.00765590  1
  O  O408  1  0.61770657  0.00672372  0.50803274  1
  O  O409  1  0.62820453  0.51175525  0.00222073  1
  O  O410  1  0.62957025  0.51699445  0.49805917  1
  O  O411  1  0.37091944  0.36980485  0.12398281  1
  O  O412  1  0.36628260  0.37449635  0.61470308  1
  O  O413  1  0.37934773  0.85435650  0.13192513  1
  O  O414  1  0.36200199  0.88258204  0.61900810  1
  O  O415  1  0.86651481  0.37327972  0.12097428  1
  O  O416  1  0.86771000  0.36927969  0.62214298  1
  O  O417  1  0.86754976  0.86708302  0.11931875  1
  O  O418  1  0.87192970  0.86953513  0.62132167  1
  O  O419  1  0.13246569  0.12891054  0.37837814  1
  O  O420  1  0.12681752  0.12869691  0.88899949  1
  O  O421  1  0.12929792  0.63701167  0.36877173  1
  O  O422  1  0.12743052  0.63239698  0.88172295  1
  O  O423  1  0.63374814  0.11395684  0.38264616  1
  O  O424  1  0.63579317  0.12519603  0.87719210  1
  O  O425  1  0.62964355  0.63652790  0.37797158  1
  O  O426  1  0.63953246  0.62728036  0.88852025  1
