# generated using pymatgen
data_V85Zn86O256
_symmetry_space_group_name_H-M   'P 1'
_cell_length_a   16.95118627
_cell_length_b   16.95370805
_cell_length_c   16.95139952
_cell_angle_alpha   90.03655633
_cell_angle_beta   89.93529306
_cell_angle_gamma   90.02532775
_symmetry_Int_Tables_number   1
_chemical_formula_structural   V85Zn86O256
_chemical_formula_sum   'V85 Zn86 O256'
_cell_volume   4871.58122888
_cell_formula_units_Z   1
loop_
 _symmetry_equiv_pos_site_id
 _symmetry_equiv_pos_as_xyz
  1  'x, y, z'
loop_
 _atom_site_type_symbol
 _atom_site_label
 _atom_site_symmetry_multiplicity
 _atom_site_fract_x
 _atom_site_fract_y
 _atom_site_fract_z
 _atom_site_occupancy
  V  V0  1  0.87261378  0.87601576  -0.00341264  1
  V  V1  1  0.38733610  0.62991657  0.74960316  1
  V  V2  1  0.12321958  0.38308380  0.74676992  1
  V  V3  1  0.62733005  0.50715981  0.11462597  1
  V  V4  1  0.00569333  0.62223580  0.12009892  1
  V  V5  1  0.12579129  0.00263950  0.12495623  1
  V  V6  1  0.50234761  0.37278388  0.88082551  1
  V  V7  1  0.62294688  0.87332071  0.24884100  1
  V  V8  1  0.37577893  0.37661870  0.49873602  1
  V  V9  1  0.37484216  0.62411260  0.24138940  1
  V  V10  1  0.87609824  0.74883870  0.64487213  1
  V  V11  1  0.24952845  0.87110409  0.12084569  1
  V  V12  1  0.25128454  0.13457809  0.87806522  1
  V  V13  1  0.49978627  0.74591481  0.24053801  1
  V  V14  1  0.12386123  0.86513689  0.75109014  1
  V  V15  1  0.12588563  0.25223790  0.37300122  1
  V  V16  1  0.00060042  0.88024444  0.38077100  1
  V  V17  1  0.00001227  0.37855295  0.37388351  1
  V  V18  1  0.49988892  0.12988650  0.62532376  1
  V  V19  1  0.37876081  0.49886056  0.37014819  1
  V  V20  1  0.37632273  0.49497818  0.87367520  1
  V  V21  1  0.25067666  0.75107488  0.50403741  1
  V  V22  1  0.37129588  0.87310189  -0.00379818  1
  V  V23  1  0.87168637  0.12702109  0.75678020  1
  V  V24  1  0.87211459  0.62408362  0.25541101  1
  V  V25  1  0.74424988  0.50060749  0.25287712  1
  V  V26  1  0.62760218  0.74218808  0.37722978  1
  V  V27  1  0.00205983  0.63081364  0.63989177  1
  V  V28  1  0.63480130  0.24890315  0.87615893  1
  V  V29  1  0.87099936  0.50712703  0.38121516  1
  V  V30  1  0.37571314  0.87648145  0.50049314  1
  V  V31  1  0.49769322  0.36114049  0.36209494  1
  V  V32  1  -0.00026282  0.00399571  0.00237354  1
  V  V33  1  0.75224206  0.00058009  0.25573177  1
  V  V34  1  -0.00157780  0.74907765  0.25190759  1
  V  V35  1  0.62941553  0.12512931  -0.00534438  1
  V  V36  1  0.74350996  0.25059177  0.49675789  1
  V  V37  1  0.24898428  0.12524211  0.37327052  1
  V  V38  1  0.87149521  -0.00117112  0.37967560  1
  V  V39  1  0.62394153  -0.00134554  0.12365940  1
  V  V40  1  -0.01252244  0.13633524  0.13931178  1
  V  V41  1  0.76439975  0.24412089  0.00567921  1
  V  V42  1  0.12547584  0.87545645  0.25001465  1
  V  V43  1  0.00211433  0.50235486  0.50959658  1
  V  V44  1  0.11944040  0.12218384  0.49929195  1
  V  V45  1  0.75062764  0.87408437  0.12259336  1
  V  V46  1  0.37403298  0.74478562  0.11672720  1
  V  V47  1  0.62675724  -0.00380720  0.62498194  1
  V  V48  1  0.24943388  0.62932327  0.88314759  1
  V  V49  1  0.62849525  0.12772380  0.49492307  1
  V  V50  1  0.49890093  0.00175392  0.00050965  1
  V  V51  1  0.12913493  0.74797006  0.89536503  1
  V  V52  1  0.74544216  0.73688491  -0.00414245  1
  V  V53  1  0.74709373  0.00106101  0.75795854  1
  V  V54  1  0.24725529  0.00320498  0.75157449  1
  V  V55  1  -0.00293180  0.12493103  0.61802091  1
  V  V56  1  0.24632225  0.38984479  0.62310556  1
  V  V57  1  0.24856628  0.49863490  0.24482990  1
  V  V58  1  0.12771034  0.13550445  0.00206718  1
  V  V59  1  0.37746779  0.25270705  0.10648350  1
  V  V60  1  0.37961062  0.13781989  0.24883722  1
  V  V61  1  0.38950872  0.75116572  0.62884153  1
  V  V62  1  0.24724959  0.25001915  0.50174751  1
  V  V63  1  0.63667708  0.37532607  0.74402211  1
  V  V64  1  0.87989270  0.38569797  0.00777748  1
  V  V65  1  0.12287795  0.50219790  0.11041976  1
  V  V66  1  0.50282795  0.87267598  0.86844475  1
  V  V67  1  0.37270560  0.25230398  0.62834520  1
  V  V68  1  0.49983538  0.51286541  0.00095215  1
  V  V69  1  0.12225020  0.37322031  0.24791003  1
  V  V70  1  -0.00124874  0.38172194  0.87723548  1
  V  V71  1  0.12683213  0.62132177  0.50910457  1
  V  V72  1  0.11793352  -0.00054643  0.62351288  1
  V  V73  1  0.86870984  0.38010982  0.50909632  1
  V  V74  1  0.87736831  0.87345237  0.50419473  1
  V  V75  1  0.87064924  0.25068102  0.62400461  1
  V  V76  1  0.49786591  0.87360267  0.37258774  1
  V  V77  1  0.12530548  0.74999675  0.37676970  1
  V  V78  1  0.24955799  0.36801772  0.10942304  1
  V  V79  1  0.00088077  0.87534534  0.87360658  1
  V  V80  1  0.24859303  0.62434235  0.37319783  1
  V  V81  1  0.49862649  0.00070974  0.50030035  1
  V  V82  1  0.62499209  0.73727188  0.87027330  1
  V  V83  1  0.37317076  0.00141674  0.37100763  1
  V  V84  1  0.74896433  0.74381182  0.50073760  1
  Zn  Zn85  1  0.50551033  0.13844360  0.12798094  1
  Zn  Zn86  1  0.25158897  0.00174946  0.24692186  1
  Zn  Zn87  1  0.87116718  0.00676366  0.87868347  1
  Zn  Zn88  1  0.75835102  0.50694147  0.74769652  1
  Zn  Zn89  1  0.63150684  0.51231958  0.61505971  1
  Zn  Zn90  1  0.37372865  0.00089897  0.87359581  1
  Zn  Zn91  1  0.12765879  0.25502021  0.87449116  1
  Zn  Zn92  1  0.87002192  0.51288449  0.87396593  1
  Zn  Zn93  1  0.00219266  0.25063998  0.75123709  1
  Zn  Zn94  1  0.69014284  0.58306773  0.43580940  1
  Zn  Zn95  1  0.24958308  0.50717043  0.74560379  1
  Zn  Zn96  1  0.50925738  0.51343504  0.49933076  1
  Zn  Zn97  1  0.62273989  0.24060517  0.36015875  1
  Zn  Zn98  1  0.37393903  0.12555377  0.75100478  1
  Zn  Zn99  1  0.80050974  0.16302517  0.32317920  1
  Zn  Zn100  1  0.75117211  0.37137199  0.12657433  1
  Zn  Zn101  1  0.61751645  0.36633625  0.23842214  1
  Zn  Zn102  1  0.50259847  0.25151447  0.75241856  1
  Zn  Zn103  1  0.75123474  0.87696982  0.62625700  1
  Zn  Zn104  1  0.24932505  0.87681712  0.62730696  1
  Zn  Zn105  1  0.87418555  0.74868649  0.12601325  1
  Zn  Zn106  1  0.62324026  0.87216251  0.75049729  1
  Zn  Zn107  1  0.18752074  0.18972201  0.18718976  1
  Zn  Zn108  1  0.18528294  0.19165235  0.68910909  1
  Zn  Zn109  1  0.18805662  0.68857893  0.18298030  1
  Zn  Zn110  1  0.19484558  0.68585608  0.69065288  1
  Zn  Zn111  1  0.68455487  0.18800584  0.18045477  1
  Zn  Zn112  1  0.68869595  0.18931641  0.68550375  1
  Zn  Zn113  1  0.68771651  0.68472129  0.18588483  1
  Zn  Zn114  1  0.68278285  0.68815017  0.68520714  1
  Zn  Zn115  1  0.30854816  0.31302174  0.30651959  1
  Zn  Zn116  1  0.31130083  0.31660101  0.80925221  1
  Zn  Zn117  1  0.31145386  0.81213369  0.30919324  1
  Zn  Zn118  1  0.31027656  0.81198665  0.81180264  1
  Zn  Zn119  1  0.81571453  0.32403892  0.31507607  1
  Zn  Zn120  1  0.81696240  0.31383514  0.81913530  1
  Zn  Zn121  1  0.81111363  0.81324204  0.31493401  1
  Zn  Zn122  1  0.81256229  0.67074218  0.81800305  1
  Zn  Zn123  1  0.18883698  0.44097340  0.43745072  1
  Zn  Zn124  1  0.18764924  0.44114868  0.93091365  1
  Zn  Zn125  1  0.18737114  0.93971484  0.43952332  1
  Zn  Zn126  1  0.18785905  0.94230234  0.93695584  1
  Zn  Zn127  1  0.68228781  0.42337562  0.43724674  1
  Zn  Zn128  1  0.69474851  0.43851808  0.93245131  1
  Zn  Zn129  1  0.68593624  0.92977657  0.44126533  1
  Zn  Zn130  1  0.68701387  0.93561049  0.93448911  1
  Zn  Zn131  1  0.31249354  0.06378473  0.06201136  1
  Zn  Zn132  1  0.30817761  0.06351362  0.56424808  1
  Zn  Zn133  1  0.31311883  0.55722752  0.05694558  1
  Zn  Zn134  1  0.33093547  0.56996035  0.55789262  1
  Zn  Zn135  1  0.81269831  0.06382791  0.06619321  1
  Zn  Zn136  1  0.81128440  0.06384925  0.56078902  1
  Zn  Zn137  1  0.81710692  0.56161925  0.06873847  1
  Zn  Zn138  1  0.81008380  0.56654103  0.58869741  1
  Zn  Zn139  1  0.43542419  0.43554754  0.17699266  1
  Zn  Zn140  1  0.44938697  0.44271935  0.68943833  1
  Zn  Zn141  1  0.43513991  0.93904642  0.18562366  1
  Zn  Zn142  1  0.43609004  0.93911077  0.68574602  1
  Zn  Zn143  1  0.93807713  0.43952314  0.18797778  1
  Zn  Zn144  1  0.93811686  0.44073413  0.68992964  1
  Zn  Zn145  1  0.93610809  0.94117903  0.18838300  1
  Zn  Zn146  1  0.93608801  0.93826125  0.69134418  1
  Zn  Zn147  1  0.06141653  0.05932431  0.31343627  1
  Zn  Zn148  1  0.06205825  0.06507754  0.81165770  1
  Zn  Zn149  1  0.06281318  0.56069320  0.31266138  1
  Zn  Zn150  1  0.06303426  0.56158259  0.82054601  1
  Zn  Zn151  1  0.55958012  0.06254705  0.30945552  1
  Zn  Zn152  1  0.56064381  0.06459286  0.81335229  1
  Zn  Zn153  1  0.55697686  0.55867687  0.30136765  1
  Zn  Zn154  1  0.56769530  0.55803479  0.80809718  1
  Zn  Zn155  1  0.43595667  0.18805456  0.44030775  1
  Zn  Zn156  1  0.44030337  0.18541526  0.93539408  1
  Zn  Zn157  1  0.43267598  0.69004367  0.42709562  1
  Zn  Zn158  1  0.43941421  0.68786940  0.93283757  1
  Zn  Zn159  1  0.92944946  0.20190337  0.41779921  1
  Zn  Zn160  1  0.94666592  0.19072724  0.93665658  1
  Zn  Zn161  1  0.93745582  0.68870875  0.44252965  1
  Zn  Zn162  1  0.94384685  0.69705396  0.94277896  1
  Zn  Zn163  1  0.05797750  0.31158677  0.06526075  1
  Zn  Zn164  1  0.06077374  0.31286119  0.56450347  1
  Zn  Zn165  1  0.05910632  0.81358642  0.06523362  1
  Zn  Zn166  1  0.05997485  0.81088974  0.56586839  1
  Zn  Zn167  1  0.56537878  0.31775300  0.05896527  1
  Zn  Zn168  1  0.54909396  0.33968193  0.57184729  1
  Zn  Zn169  1  0.56132416  0.81119438  0.05645623  1
  Zn  Zn170  1  0.55280125  0.68367458  0.55766162  1
  O  O171  1  0.12441890  0.11815158  0.11929275  1
  O  O172  1  0.11746372  0.12030189  0.62063998  1
  O  O173  1  0.11895195  0.61361079  0.13380675  1
  O  O174  1  0.12101897  0.63598009  0.61397881  1
  O  O175  1  0.62230693  0.11633408  0.11220474  1
  O  O176  1  0.61546631  0.12148440  0.61571509  1
  O  O177  1  0.62361197  0.60634458  0.13105094  1
  O  O178  1  0.61172700  0.62449892  0.62961459  1
  O  O179  1  0.37730820  0.37983217  0.37581269  1
  O  O180  1  0.38354751  0.38776791  0.86554645  1
  O  O181  1  0.37669770  0.87993931  0.37950112  1
  O  O182  1  0.38040605  0.87550801  0.88178285  1
  O  O183  1  0.88467648  0.38922329  0.38929226  1
  O  O184  1  0.88473073  0.37276312  0.88953285  1
  O  O185  1  0.88262832  0.87839820  0.38315015  1
  O  O186  1  0.88681601  0.88200085  0.88973351  1
  O  O187  1  0.25596827  0.00747499  0.37343737  1
  O  O188  1  0.24966009  0.01036301  0.86620833  1
  O  O189  1  0.26006186  0.50316188  0.36650412  1
  O  O190  1  0.26190879  0.50721483  0.87212169  1
  O  O191  1  0.75591627  -0.01280727  0.36684544  1
  O  O192  1  0.75023231  0.00244871  0.86228234  1
  O  O193  1  0.75223052  0.50209906  0.37000971  1
  O  O194  1  0.75314724  0.50382767  0.86690185  1
  O  O195  1  0.24584363  0.48913214  0.12682865  1
  O  O196  1  0.25969922  0.49133672  0.61933055  1
  O  O197  1  0.24498722  0.98902136  0.12500587  1
  O  O198  1  0.23634576  1.00102705  0.63211646  1
  O  O199  1  0.74040103  0.49771903  0.12994204  1
  O  O200  1  0.74391067  0.49142564  0.63065958  1
  O  O201  1  0.74569519  0.98889294  0.13088177  1
  O  O202  1  0.74053314  1.00233159  0.63020769  1
  O  O203  1  0.00846144  0.38322526  0.26191276  1
  O  O204  1  0.00845354  0.37350389  0.75640191  1
  O  O205  1  0.00475331  0.86805094  0.25631269  1
  O  O206  1  0.00879872  0.88634294  0.76618920  1
  O  O207  1  0.49306693  0.37897024  0.26027091  1
  O  O208  1  0.51142771  0.37092026  0.76306988  1
  O  O209  1  0.50286775  0.86838613  0.25252601  1
  O  O210  1  0.50007034  0.88558838  0.76506648  1
  O  O211  1  0.48540547  0.11796729  0.24213523  1
  O  O212  1  0.49661269  0.12749438  0.73710952  1
  O  O213  1  0.48765304  0.63486037  0.24884906  1
  O  O214  1  0.48595113  0.62591522  0.75809233  1
  O  O215  1  1.00490111  0.11928706  0.23701466  1
  O  O216  1  0.99329392  0.12636215  0.73725378  1
  O  O217  1  0.99602067  0.63382504  0.24851843  1
  O  O218  1  1.01335779  0.62314124  0.73770819  1
  O  O219  1  0.36985462  0.24463056  0.00853884  1
  O  O220  1  0.36672122  0.25605088  0.50744833  1
  O  O221  1  0.38221314  0.75873909  0.00783417  1
  O  O222  1  0.36697358  0.75947915  0.50320131  1
  O  O223  1  0.86580809  0.24924592  -0.00367228  1
  O  O224  1  0.86796534  0.25974967  0.50444230  1
  O  O225  1  0.86258572  0.76078503  0.00464654  1
  O  O226  1  0.86855569  0.76083487  0.50029691  1
  O  O227  1  0.13140082  0.24308301  0.49733415  1
  O  O228  1  0.12359954  0.23796765  1.00097303  1
  O  O229  1  0.13285913  0.74606016  0.49535581  1
  O  O230  1  0.13025149  0.75630090  0.99358953  1
  O  O231  1  0.63179082  0.24402750  0.50179675  1
  O  O232  1  0.63403286  0.24249423  0.99625806  1
  O  O233  1  0.63276620  0.74301358  0.48890106  1
  O  O234  1  0.63902407  0.75485947  0.99308265  1
  O  O235  1  0.48267199  0.25560258  0.11597216  1
  O  O236  1  0.48959746  0.24615524  0.62326078  1
  O  O237  1  0.49095648  0.75643152  0.13288428  1
  O  O238  1  0.48720048  0.76114081  0.61888441  1
  O  O239  1  1.00215717  0.23536111  0.12808263  1
  O  O240  1  0.98862522  0.24248365  0.62546031  1
  O  O241  1  1.00010804  0.74712704  0.14053982  1
  O  O242  1  0.98749068  0.74482237  0.62539641  1
  O  O243  1  0.01641154  0.27281915  0.39126243  1
  O  O244  1  0.00625465  0.26259703  0.87135668  1
  O  O245  1  0.00414730  0.75761090  0.36717932  1
  O  O246  1  0.01747838  0.76421515  0.88260582  1
  O  O247  1  0.49417093  0.25889004  0.37043283  1
  O  O248  1  0.50995723  0.25617865  0.87654155  1
  O  O249  1  0.50253143  0.75589358  0.36126849  1
  O  O250  1  0.51549104  0.75974517  0.88478680  1
  O  O251  1  0.24245542  0.13091410  0.49327028  1
  O  O252  1  0.23953090  0.11686885  0.99023614  1
  O  O253  1  0.24666488  0.63205106  0.49532064  1
  O  O254  1  0.25689340  0.62352798  0.98327265  1
  O  O255  1  0.73856882  0.13297720  0.50262294  1
  O  O256  1  0.74495817  0.13417611  1.00269853  1
  O  O257  1  0.76405147  0.63938693  0.50196103  1
  O  O258  1  0.75328286  0.64040037  1.01411407  1
  O  O259  1  0.24481079  0.37632949  0.01128935  1
  O  O260  1  0.25753328  0.37089527  0.50292067  1
  O  O261  1  0.26312945  0.88145648  0.00481514  1
  O  O262  1  0.25853717  0.86885209  0.49994917  1
  O  O263  1  0.76523404  0.36288930  0.00055308  1
  O  O264  1  0.76014617  0.36554032  0.49638120  1
  O  O265  1  0.75691061  0.87346995  0.00578523  1
  O  O266  1  0.75552855  0.86272349  0.50605765  1
  O  O267  1  0.13180507  0.49008381  0.24580753  1
  O  O268  1  0.13012488  0.48833014  0.75436081  1
  O  O269  1  0.12737374  0.99209861  0.24208942  1
  O  O270  1  0.13225223  0.99469096  0.74462616  1
  O  O271  1  0.63011289  0.49355963  0.24044484  1
  O  O272  1  0.62445776  0.48156257  0.74658936  1
  O  O273  1  0.62831985  0.99118820  0.24531777  1
  O  O274  1  0.63520548  1.00995149  0.74350399  1
  O  O275  1  0.37182925  0.00691374  0.25569500  1
  O  O276  1  0.35874256  0.00190489  0.74728797  1
  O  O277  1  0.36929612  0.50410635  0.24973963  1
  O  O278  1  0.37850242  0.51144315  0.75400959  1
  O  O279  1  0.86369035  -0.00922937  0.26349889  1
  O  O280  1  0.86373141  0.00786802  0.75114433  1
  O  O281  1  0.86863895  0.50733385  0.25843006  1
  O  O282  1  0.87391981  0.49246874  0.76008116  1
  O  O283  1  0.12152068  0.37527593  0.36720327  1
  O  O284  1  0.12043552  0.37396382  0.86767969  1
  O  O285  1  0.11845635  0.87074035  0.37268073  1
  O  O286  1  0.12282242  0.86793974  0.87171927  1
  O  O287  1  0.60413763  0.37015693  0.37052132  1
  O  O288  1  0.62072188  0.36455039  0.87164476  1
  O  O289  1  0.61588595  0.86406585  0.36993986  1
  O  O290  1  0.61682916  0.86941235  0.87415282  1
  O  O291  1  0.37225290  0.13961239  0.12927509  1
  O  O292  1  0.38005657  0.13501300  0.62366217  1
  O  O293  1  0.36501434  0.63694743  0.12604234  1
  O  O294  1  0.37145957  0.63587980  0.64089635  1
  O  O295  1  0.88810103  0.12106029  0.12829757  1
  O  O296  1  0.88197625  0.13032068  0.62849593  1
  O  O297  1  0.88554763  0.62591295  0.13979049  1
  O  O298  1  0.88833792  0.64229112  0.62216103  1
  O  O299  1  0.25535725  0.26245216  0.12498052  1
  O  O300  1  0.25680147  0.25785601  0.61946197  1
  O  O301  1  0.25750843  0.76301305  0.12666705  1
  O  O302  1  0.25547153  0.75280256  0.61274193  1
  O  O303  1  0.75126286  0.25175614  0.10956634  1
  O  O304  1  0.76411941  0.24370878  0.61403098  1
  O  O305  1  0.74840464  0.76152820  0.11910925  1
  O  O306  1  0.76312630  0.75525322  0.61926025  1
  O  O307  1  0.24405275  0.24617141  0.38096125  1
  O  O308  1  0.25007437  0.23846211  0.86952615  1
  O  O309  1  0.24727904  0.74554352  0.38453938  1
  O  O310  1  0.23650472  0.74657173  0.87332806  1
  O  O311  1  0.74080554  0.24908844  0.38665688  1
  O  O312  1  0.74120066  0.25052628  0.88885790  1
  O  O313  1  0.73810728  0.75586644  0.38326473  1
  O  O314  1  0.74061186  0.74484043  0.88911477  1
  O  O315  1  0.00770328  0.11869429  0.00835763  1
  O  O316  1  0.00458620  0.13142630  0.51132207  1
  O  O317  1  0.00186246  0.63879989  0.02263665  1
  O  O318  1  0.01006417  0.62122756  0.50551059  1
  O  O319  1  0.50719783  0.11673746  0.00394259  1
  O  O320  1  0.50195842  0.12103656  0.50992071  1
  O  O321  1  0.50004446  0.61150984  -0.00329487  1
  O  O322  1  0.47363592  0.62171412  0.50368456  1
  O  O323  1  0.48226263  0.36844063  0.48048864  1
  O  O324  1  0.50358753  0.38418229  0.98493875  1
  O  O325  1  0.48369435  0.88292256  0.49153528  1
  O  O326  1  0.49103795  0.88235097  0.99215790  1
  O  O327  1  0.99658018  0.38720873  0.49803355  1
  O  O328  1  0.98662089  0.36826176  0.99589462  1
  O  O329  1  0.99284125  0.86839885  0.49039892  1
  O  O330  1  0.99367013  0.88339001  0.99820184  1
  O  O331  1  0.48690370  0.49270297  0.37223878  1
  O  O332  1  0.49747887  0.49518516  0.88262222  1
  O  O333  1  0.49221637  0.99407489  0.38029005  1
  O  O334  1  0.49839551  0.99487962  0.88570841  1
  O  O335  1  0.99641990  0.49511027  0.38637634  1
  O  O336  1  1.00217439  0.48502374  0.87880498  1
  O  O337  1  0.99244977  0.98599131  0.37126908  1
  O  O338  1  1.00329419  0.99523613  0.88909470  1
  O  O339  1  0.00610373  0.00374558  0.11690325  1
  O  O340  1  0.01068178  0.00704754  0.62966034  1
  O  O341  1  0.01094874  0.51008744  0.13173619  1
  O  O342  1  -0.00209659  0.51195084  0.61449195  1
  O  O343  1  0.50584393  -0.00398427  0.11225445  1
  O  O344  1  0.50328076  0.01002168  0.61887801  1
  O  O345  1  0.50714422  0.49464257  0.10832356  1
  O  O346  1  0.52108954  0.45820758  0.60393008  1
  O  O347  1  0.24181557  0.38155212  0.24040551  1
  O  O348  1  0.24539617  0.38155947  0.73812021  1
  O  O349  1  0.24278343  0.87573520  0.24071234  1
  O  O350  1  0.24092704  0.88456125  0.74963036  1
  O  O351  1  0.75328530  0.38985357  0.24876131  1
  O  O352  1  0.73693459  0.36824150  0.75975275  1
  O  O353  1  0.74345130  0.87938316  0.24152145  1
  O  O354  1  0.74533246  0.89792090  0.74418537  1
  O  O355  1  0.25751699  0.12423468  0.25627392  1
  O  O356  1  0.24786815  0.11904289  0.75684759  1
  O  O357  1  0.25416194  0.61982647  0.25360431  1
  O  O358  1  0.25934932  0.62365602  0.76103685  1
  O  O359  1  0.74152977  0.10628665  0.24626784  1
  O  O360  1  0.76092459  0.11545783  0.74197260  1
  O  O361  1  0.75990175  0.61384633  0.24505590  1
  O  O362  1  0.75754418  0.62448135  0.73654009  1
  O  O363  1  0.37070586  0.12287753  0.36676076  1
  O  O364  1  0.36740843  0.12179907  0.87182000  1
  O  O365  1  0.36622979  0.61658471  0.36296789  1
  O  O366  1  0.37032120  0.62167530  0.86551612  1
  O  O367  1  0.87401363  0.10029419  0.39606264  1
  O  O368  1  0.88578136  0.12490104  0.86018394  1
  O  O369  1  0.88333160  0.62151040  0.36407472  1
  O  O370  1  0.88805729  0.62608104  0.88281715  1
  O  O371  1  0.13162436  0.37914852  0.12957098  1
  O  O372  1  0.13572548  0.37408857  0.62940714  1
  O  O373  1  0.13218596  0.88025413  0.12787905  1
  O  O374  1  0.12376682  0.88268302  0.63241568  1
  O  O375  1  0.62963764  0.38738550  0.12328053  1
  O  O376  1  0.63365623  0.34909478  0.64709131  1
  O  O377  1  0.63160799  0.87958047  0.12699727  1
  O  O378  1  0.62130280  0.89428682  0.63004455  1
  O  O379  1  0.13050347  0.26510142  0.25629911  1
  O  O380  1  0.12425416  0.26528067  0.75031848  1
  O  O381  1  0.11875988  0.75496150  0.25706142  1
  O  O382  1  0.12995458  0.76413794  0.75059861  1
  O  O383  1  0.62639967  0.25306960  0.24778123  1
  O  O384  1  0.62530151  0.24784395  0.76340614  1
  O  O385  1  0.61686097  0.75458807  0.25030896  1
  O  O386  1  0.63339277  0.75646745  0.76765516  1
  O  O387  1  0.36946167  0.24084843  0.24051073  1
  O  O388  1  0.37604195  0.25042594  0.73703235  1
  O  O389  1  0.38062828  0.74598625  0.23969821  1
  O  O390  1  0.37227910  0.74189189  0.74267677  1
  O  O391  1  0.88352586  0.23682841  0.31287466  1
  O  O392  1  0.87408379  0.24383586  0.74144586  1
  O  O393  1  0.88125269  0.74426449  0.25067307  1
  O  O394  1  0.87187996  0.75688644  0.74155123  1
  O  O395  1  0.37270946  0.49010272  0.48607899  1
  O  O396  1  0.38975654  0.50131754  0.98954057  1
  O  O397  1  0.37562149  0.99527741  0.49397000  1
  O  O398  1  0.38348991  0.99300151  0.99990254  1
  O  O399  1  0.88192959  0.49683008  0.50037688  1
  O  O400  1  0.87266599  0.48738224  0.99985259  1
  O  O401  1  0.86549218  0.98080711  0.49810489  1
  O  O402  1  0.88202470  0.99631275  0.99969999  1
  O  O403  1  0.11754373  0.00612973  0.00780170  1
  O  O404  1  0.12813602  0.00981083  0.51011350  1
  O  O405  1  0.12778178  0.49853862  0.01148066  1
  O  O406  1  0.11830600  0.51214990  0.49543305  1
  O  O407  1  0.62066021  0.00617768  0.00224250  1
  O  O408  1  0.61947824  0.00602485  0.50624147  1
  O  O409  1  0.61763514  0.49726359  0.00765089  1
  O  O410  1  0.62617051  0.50601070  0.49056129  1
  O  O411  1  0.36090084  0.36338759  0.12477756  1
  O  O412  1  0.37013076  0.36965086  0.61499250  1
  O  O413  1  0.36763816  0.86781030  0.11804008  1
  O  O414  1  0.37042834  0.87145017  0.61668597  1
  O  O415  1  0.87544123  0.37740376  0.11305671  1
  O  O416  1  0.88549253  0.36630214  0.61378579  1
  O  O417  1  0.86800629  0.87499576  0.11663811  1
  O  O418  1  0.87910556  0.86492776  0.62107250  1
  O  O419  1  0.12702856  0.13012191  0.37979099  1
  O  O420  1  0.13094584  0.12760229  0.88379824  1
  O  O421  1  0.13044956  0.63112941  0.38315912  1
  O  O422  1  0.13039733  0.64145912  0.87418896  1
  O  O423  1  0.61221428  0.12459662  0.39050669  1
  O  O424  1  0.61949686  0.13194957  0.88777592  1
  O  O425  1  0.62014545  0.63758131  0.36152892  1
  O  O426  1  0.61845984  0.63875476  0.87236744  1
