# generated using pymatgen
data_V85Zn86O256
_symmetry_space_group_name_H-M   'P 1'
_cell_length_a   16.92405112
_cell_length_b   16.92834103
_cell_length_c   16.92261545
_cell_angle_alpha   89.98894498
_cell_angle_beta   89.97348954
_cell_angle_gamma   89.95610960
_symmetry_Int_Tables_number   1
_chemical_formula_structural   V85Zn86O256
_chemical_formula_sum   'V85 Zn86 O256'
_cell_volume   4848.26144911
_cell_formula_units_Z   1
loop_
 _symmetry_equiv_pos_site_id
 _symmetry_equiv_pos_as_xyz
  1  'x, y, z'
loop_
 _atom_site_type_symbol
 _atom_site_label
 _atom_site_symmetry_multiplicity
 _atom_site_fract_x
 _atom_site_fract_y
 _atom_site_fract_z
 _atom_site_occupancy
  V  V0  1  0.24830735  0.25128008  -0.00047618  1
  V  V1  1  0.11899521  0.87412786  0.76069970  1
  V  V2  1  0.49484517  0.86874250  0.86924739  1
  V  V3  1  0.74712794  0.75885550  0.00130124  1
  V  V4  1  -0.00266653  0.50117466  -0.00306833  1
  V  V5  1  -0.00246998  0.62652196  0.12386978  1
  V  V6  1  0.74538524  0.49395191  0.25365669  1
  V  V7  1  0.74658899  0.25098713  -0.00266907  1
  V  V8  1  0.24714083  0.86364784  0.62222902  1
  V  V9  1  0.49870160  0.62363622  0.12391329  1
  V  V10  1  0.25242201  0.11999841  0.38341668  1
  V  V11  1  0.62404224  0.87528051  0.24394115  1
  V  V12  1  0.74928691  0.24678268  0.49814995  1
  V  V13  1  0.87852663  0.12043973  0.75054336  1
  V  V14  1  0.49677940  0.74940476  0.25487466  1
  V  V15  1  0.62240808  0.12939006  -0.01079633  1
  V  V16  1  0.50106858  0.25349874  0.77313934  1
  V  V17  1  0.74944873  0.12174001  0.37411800  1
  V  V18  1  0.86884934  0.75941195  0.12599758  1
  V  V19  1  0.25235193  0.62873256  0.86570345  1
  V  V20  1  0.19142355  0.68710719  0.43614999  1
  V  V21  1  0.62354461  0.37692572  0.77023474  1
  V  V22  1  -0.00287494  0.38141424  0.87262509  1
  V  V23  1  0.38344086  0.24531395  0.62985663  1
  V  V24  1  0.87932645  0.24348432  0.12388456  1
  V  V25  1  0.11965426  0.00491078  0.12848550  1
  V  V26  1  0.75034662  -0.00372270  0.24372605  1
  V  V27  1  0.49422735  0.89659146  0.37249920  1
  V  V28  1  0.75001668  0.12374450  0.87628018  1
  V  V29  1  0.87886616  0.37696356  0.50106350  1
  V  V30  1  0.62609521  -0.00152289  0.11789432  1
  V  V31  1  0.24988024  0.87730594  0.12352228  1
  V  V32  1  0.00243507  0.24911105  0.75151021  1
  V  V33  1  0.00108292  -0.00870947  -0.00277780  1
  V  V34  1  0.62713456  0.86928960  0.75149429  1
  V  V35  1  0.25564392  0.00092975  0.25214648  1
  V  V36  1  0.37251203  0.88552711  0.49590313  1
  V  V37  1  0.74610912  0.62451594  0.37664335  1
  V  V38  1  0.74881050  0.37391852  0.12845971  1
  V  V39  1  0.75641730  0.61320237  0.87505555  1
  V  V40  1  0.00023892  0.75241336  0.76798331  1
  V  V41  1  0.37683131  0.12638460  0.25335406  1
  V  V42  1  0.50589109  0.25515056  0.24680133  1
  V  V43  1  0.37801313  0.50517740  0.86508113  1
  V  V44  1  0.12596058  0.50134943  0.12385597  1
  V  V45  1  0.36919054  0.50043724  0.38010811  1
  V  V46  1  0.87665692  0.61343898  0.74921225  1
  V  V47  1  0.87769166  0.87654311  0.49582789  1
  V  V48  1  0.49598747  0.00097020  -0.01390267  1
  V  V49  1  0.00332318  0.23988972  0.24695633  1
  V  V50  1  0.62990842  0.25444108  0.36693238  1
  V  V51  1  0.62151209  0.49381557  0.13215810  1
  V  V52  1  0.37306950  0.87846418  -0.00605945  1
  V  V53  1  0.37540025  0.25237955  0.12450741  1
  V  V54  1  0.74728913  0.75111582  0.50253194  1
  V  V55  1  0.87236629  0.62398817  0.24840369  1
  V  V56  1  0.88819958  0.74578533  0.62610723  1
  V  V57  1  0.36587975  0.62454559  0.25557841  1
  V  V58  1  0.24912155  0.37719646  0.62852014  1
  V  V59  1  0.75505054  0.87192310  0.63379981  1
  V  V60  1  0.25322605  -0.00105331  0.75191962  1
  V  V61  1  0.11535975  0.12776824  0.00223581  1
  V  V62  1  0.50202918  0.37330002  0.37732276  1
  V  V63  1  0.74121134  0.38077862  0.62887954  1
  V  V64  1  0.12626686  -0.00008253  0.61740564  1
  V  V65  1  0.87684513  0.25007042  0.62487649  1
  V  V66  1  0.24913286  0.24715260  0.50562438  1
  V  V67  1  0.00630239  0.12582283  0.61493731  1
  V  V68  1  0.12506118  0.37473122  0.25109817  1
  V  V69  1  0.87848098  -0.00829204  0.87072543  1
  V  V70  1  0.00333789  0.51632489  0.50044105  1
  V  V71  1  0.61522206  0.62737096  0.50396806  1
  V  V72  1  0.12296583  0.51252674  0.62342964  1
  V  V73  1  0.00521155  0.75169625  0.25587331  1
  V  V74  1  0.87375614  0.37995826  -0.00328819  1
  V  V75  1  0.49816255  0.49820613  -0.00221357  1
  V  V76  1  0.24809748  0.75285056  -0.00823897  1
  V  V77  1  0.70118132  0.04209636  0.69655963  1
  V  V78  1  0.62208327  0.74301840  0.87186147  1
  V  V79  1  0.25380972  0.12044145  0.87583420  1
  V  V80  1  0.12330814  0.63085201  -0.00934936  1
  V  V81  1  0.37558051  0.37723171  -0.00579079  1
  V  V82  1  0.37294273  0.75057817  0.12234379  1
  V  V83  1  0.39556388  0.75023743  0.62575877  1
  V  V84  1  0.12612059  0.24613991  0.38087434  1
  Zn  Zn85  1  0.50218470  0.49587640  0.50372258  1
  Zn  Zn86  1  0.49708974  0.61688068  0.64413358  1
  Zn  Zn87  1  0.38224906  0.11726612  0.75154071  1
  Zn  Zn88  1  0.54884677  0.05378434  0.56524512  1
  Zn  Zn89  1  0.37734276  0.37424274  0.50268252  1
  Zn  Zn90  1  0.62396046  0.50166760  0.62992370  1
  Zn  Zn91  1  0.87640333  0.49913990  0.37447746  1
  Zn  Zn92  1  0.00363417  0.00309331  0.49345569  1
  Zn  Zn93  1  0.00068972  0.37518384  0.37693850  1
  Zn  Zn94  1  0.62188255  0.75486151  0.37651113  1
  Zn  Zn95  1  0.87905574  -0.00213346  0.36975493  1
  Zn  Zn96  1  0.24994529  0.37872952  0.12508418  1
  Zn  Zn97  1  0.12495106  0.25308235  0.87493691  1
  Zn  Zn98  1  0.01085171  0.87517100  0.37897794  1
  Zn  Zn99  1  0.24436472  0.50395934  0.25733142  1
  Zn  Zn100  1  0.13141266  0.87032766  0.25475598  1
  Zn  Zn101  1  0.12453830  0.37940693  0.75048988  1
  Zn  Zn102  1  0.49946575  0.12504025  0.12065493  1
  Zn  Zn103  1  0.62856188  0.62368119  0.00272623  1
  Zn  Zn104  1  0.25214492  0.50498215  0.74656366  1
  Zn  Zn105  1  0.87445891  0.87542576  -0.00146725  1
  Zn  Zn106  1  0.87968221  0.11929853  0.24456469  1
  Zn  Zn107  1  0.18928044  0.18652299  0.18714716  1
  Zn  Zn108  1  0.18646472  0.18602061  0.68864417  1
  Zn  Zn109  1  0.18660051  0.68641357  0.18345446  1
  Zn  Zn110  1  0.18156798  0.69120211  0.68548807  1
  Zn  Zn111  1  0.68748702  0.18267774  0.18211043  1
  Zn  Zn112  1  0.68494397  0.20727143  0.69063627  1
  Zn  Zn113  1  0.68509974  0.68586192  0.18775552  1
  Zn  Zn114  1  0.68906378  0.68442169  0.68937000  1
  Zn  Zn115  1  0.31230891  0.31394082  0.31441306  1
  Zn  Zn116  1  0.31233293  0.31532412  0.81349393  1
  Zn  Zn117  1  0.31135237  0.81499564  0.31607571  1
  Zn  Zn118  1  0.30969981  0.81474755  0.80724762  1
  Zn  Zn119  1  0.81843773  0.31342817  0.31199072  1
  Zn  Zn120  1  0.81279870  0.31207404  0.81316293  1
  Zn  Zn121  1  0.81072552  0.81286917  0.31262797  1
  Zn  Zn122  1  0.81285517  0.80692850  0.81472396  1
  Zn  Zn123  1  0.18773300  0.43653809  0.44228409  1
  Zn  Zn124  1  0.18736421  0.44008691  0.93429506  1
  Zn  Zn125  1  0.18728228  0.93198621  0.43523223  1
  Zn  Zn126  1  0.18366126  0.93956790  0.93679068  1
  Zn  Zn127  1  0.68469298  0.43578486  0.44100401  1
  Zn  Zn128  1  0.68761786  0.44154801  0.94478855  1
  Zn  Zn129  1  0.68257747  0.94569795  0.43937469  1
  Zn  Zn130  1  0.68726206  0.93959066  0.93032718  1
  Zn  Zn131  1  0.31253371  0.06458282  0.06305840  1
  Zn  Zn132  1  0.31593681  0.05992555  0.56752515  1
  Zn  Zn133  1  0.31100616  0.56585747  0.05985497  1
  Zn  Zn134  1  0.31556911  0.56736048  0.56172462  1
  Zn  Zn135  1  0.81164184  0.06041530  0.06052878  1
  Zn  Zn136  1  0.82022892  0.06526882  0.55571412  1
  Zn  Zn137  1  0.81002389  0.56440424  0.06315950  1
  Zn  Zn138  1  0.81238472  0.56258459  0.56436161  1
  Zn  Zn139  1  0.43372583  0.43594633  0.19053277  1
  Zn  Zn140  1  0.44390549  0.43214809  0.68610200  1
  Zn  Zn141  1  0.43819037  0.94088155  0.18080749  1
  Zn  Zn142  1  0.43599374  0.93456029  0.68226939  1
  Zn  Zn143  1  0.93825727  0.43445810  0.18738071  1
  Zn  Zn144  1  0.94060379  0.43676594  0.68173264  1
  Zn  Zn145  1  0.93948142  0.93625159  0.18544045  1
  Zn  Zn146  1  0.93997072  0.93669539  0.68564640  1
  Zn  Zn147  1  0.06800194  0.06062425  0.31653033  1
  Zn  Zn148  1  0.06609552  0.06206928  0.81305686  1
  Zn  Zn149  1  0.06289394  0.56582324  0.31667813  1
  Zn  Zn150  1  0.05999735  0.56366155  0.80884650  1
  Zn  Zn151  1  0.56779047  0.06996167  0.30937258  1
  Zn  Zn152  1  0.53745409  0.04128285  0.77617799  1
  Zn  Zn153  1  0.55937559  0.56223065  0.31561391  1
  Zn  Zn154  1  0.56944063  0.55571947  0.81469199  1
  Zn  Zn155  1  0.43808480  0.17362492  0.43956958  1
  Zn  Zn156  1  0.43497098  0.18727593  0.93364682  1
  Zn  Zn157  1  0.42384244  0.69454976  0.44053727  1
  Zn  Zn158  1  0.43651973  0.68870776  0.81027192  1
  Zn  Zn159  1  0.93397209  0.18746626  0.43194215  1
  Zn  Zn160  1  0.93591714  0.18831950  0.93610577  1
  Zn  Zn161  1  0.93225566  0.68852311  0.43517297  1
  Zn  Zn162  1  0.93169525  0.68739667  0.93852847  1
  Zn  Zn163  1  0.06119336  0.31414554  0.06320493  1
  Zn  Zn164  1  0.06618863  0.31544648  0.56384849  1
  Zn  Zn165  1  0.06378944  0.81304625  0.06769815  1
  Zn  Zn166  1  0.06650205  0.80876323  0.56006175  1
  Zn  Zn167  1  0.56224662  0.31429649  0.05916421  1
  Zn  Zn168  1  0.54466318  0.25874361  0.54067018  1
  Zn  Zn169  1  0.56001035  0.81110805  0.05897191  1
  Zn  Zn170  1  0.57657962  0.85730771  0.54885003  1
  O  O171  1  0.13208266  0.11687221  0.11481739  1
  O  O172  1  0.11630347  0.11553668  0.62946269  1
  O  O173  1  0.11805455  0.61871120  0.11486394  1
  O  O174  1  0.12761824  0.61165128  0.62371063  1
  O  O175  1  0.62188845  0.11586504  0.11076339  1
  O  O176  1  0.64646107  0.10888700  0.64054864  1
  O  O177  1  0.61668820  0.61379450  0.12615143  1
  O  O178  1  0.62650510  0.62359581  0.61671961  1
  O  O179  1  0.38379543  0.38028102  0.37698227  1
  O  O180  1  0.36714073  0.38643346  0.88865655  1
  O  O181  1  0.38193505  0.88079068  0.38240309  1
  O  O182  1  0.38427798  0.86880826  0.87963205  1
  O  O183  1  0.87768637  0.37912685  0.38610288  1
  O  O184  1  0.88102519  0.37163502  0.88576774  1
  O  O185  1  0.87503966  0.87479927  0.38503328  1
  O  O186  1  0.86942307  0.88802262  0.87657918  1
  O  O187  1  0.24748136  0.01082749  0.36605866  1
  O  O188  1  0.24134796  0.00895268  0.86620385  1
  O  O189  1  0.26450350  0.49000708  0.37471640  1
  O  O190  1  0.25851305  0.51089946  0.87392183  1
  O  O191  1  0.74805365  0.00687815  0.36688824  1
  O  O192  1  0.76335542  0.01382275  0.88399937  1
  O  O193  1  0.74913880  0.50585443  0.36932618  1
  O  O194  1  0.75152281  0.51436019  0.88205055  1
  O  O195  1  0.23579971  0.50220220  0.12491852  1
  O  O196  1  0.24263133  0.49514340  0.62430555  1
  O  O197  1  0.24241569  0.99651945  0.12938969  1
  O  O198  1  0.24240748  0.99406051  0.63294495  1
  O  O199  1  0.74140448  0.49648576  0.13295874  1
  O  O200  1  0.74962936  0.48378987  0.62334426  1
  O  O201  1  0.73613776  1.00097380  0.12821209  1
  O  O202  1  0.76239495  0.99052186  0.62782719  1
  O  O203  1  0.01137382  0.36730072  0.25301365  1
  O  O204  1  -0.00260600  0.36814675  0.75680995  1
  O  O205  1  -0.00115184  0.85944521  0.24796308  1
  O  O206  1  0.00417281  0.86147401  0.74630743  1
  O  O207  1  0.49427227  0.36204597  0.25921790  1
  O  O208  1  0.51548894  0.36916376  0.75408650  1
  O  O209  1  0.49875600  0.87069750  0.25647599  1
  O  O210  1  0.51185472  0.87792260  0.76148851  1
  O  O211  1  0.49287956  0.13555596  0.24716235  1
  O  O212  1  0.49566814  0.14786409  0.77146917  1
  O  O213  1  0.49308662  0.63164061  0.24259071  1
  O  O214  1  0.51240539  0.62925713  0.75475475  1
  O  O215  1  1.00207750  0.13652268  0.25189241  1
  O  O216  1  0.99820290  0.13291368  0.74391482  1
  O  O217  1  0.99269066  0.63278430  0.24529170  1
  O  O218  1  0.98667797  0.63762310  0.75744235  1
  O  O219  1  0.36887581  0.25802629  0.00349536  1
  O  O220  1  0.36656325  0.24916128  0.51450504  1
  O  O221  1  0.35999858  0.76011756  0.00838393  1
  O  O222  1  0.37715652  0.76869262  0.51400906  1
  O  O223  1  0.87038056  0.25845950  0.00640923  1
  O  O224  1  0.86767147  0.25751836  0.50225447  1
  O  O225  1  0.86638102  0.75294439  0.00759665  1
  O  O226  1  0.86556480  0.75286723  0.50739738  1
  O  O227  1  0.13775371  0.25244760  0.49459091  1
  O  O228  1  0.13125307  0.24452216  1.00147058  1
  O  O229  1  0.13489418  0.74683717  0.49808840  1
  O  O230  1  0.13417615  0.74229286  1.00676517  1
  O  O231  1  0.64486896  0.25717424  0.48644138  1
  O  O232  1  0.63267200  0.24177563  1.00399598  1
  O  O233  1  0.63683286  0.75216804  0.49957768  1
  O  O234  1  0.62988163  0.74540637  0.99265735  1
  O  O235  1  0.49450558  0.24993852  0.13046523  1
  O  O236  1  0.48533945  0.25854144  0.63943123  1
  O  O237  1  0.49490797  0.74264259  0.13230972  1
  O  O238  1  0.49370844  0.75915958  0.62163426  1
  O  O239  1  0.99169633  0.25540002  0.13366112  1
  O  O240  1  0.99748366  0.24498692  0.63116518  1
  O  O241  1  0.98922936  0.74451549  0.13072877  1
  O  O242  1  0.98975934  0.74932675  0.62823380  1
  O  O243  1  0.00990837  0.25067423  0.36877961  1
  O  O244  1  -0.00032466  0.25936627  0.86752807  1
  O  O245  1  -0.00872604  0.74946628  0.35828523  1
  O  O246  1  -0.00585705  0.75405450  0.86671961  1
  O  O247  1  0.51096248  0.25194446  0.36603984  1
  O  O248  1  0.49210452  0.26553194  0.87132847  1
  O  O249  1  0.49724804  0.75306188  0.36094831  1
  O  O250  1  0.51034604  0.75676074  0.87786057  1
  O  O251  1  0.25866115  0.12940198  0.49141983  1
  O  O252  1  0.24290404  0.13183455  0.99487296  1
  O  O253  1  0.24591568  0.62178857  0.49247187  1
  O  O254  1  0.24262366  0.63428284  0.99169044  1
  O  O255  1  0.75690259  0.13430086  0.48867474  1
  O  O256  1  0.74375368  0.13071793  0.99464608  1
  O  O257  1  0.74436671  0.63199983  0.49442148  1
  O  O258  1  0.75207577  0.63257591  0.98929209  1
  O  O259  1  0.25380868  0.36781342  0.00166804  1
  O  O260  1  0.25302626  0.36561801  0.51161810  1
  O  O261  1  0.25060229  0.87116520  0.00231586  1
  O  O262  1  0.26355021  0.88468421  0.50843363  1
  O  O263  1  0.75717776  0.37126855  0.00578467  1
  O  O264  1  0.76102639  0.37126262  0.50847139  1
  O  O265  1  0.74788567  0.86230822  -0.00407198  1
  O  O266  1  0.75842877  0.86830591  0.50952228  1
  O  O267  1  0.12339760  0.49362957  0.24389470  1
  O  O268  1  0.12399454  0.49989292  0.73598345  1
  O  O269  1  0.13922490  1.00514330  0.24180102  1
  O  O270  1  0.12831263  0.99171890  0.74120186  1
  O  O271  1  0.63271899  0.50372211  0.24448532  1
  O  O272  1  0.62870381  0.48045576  0.74931869  1
  O  O273  1  0.62764317  0.99549741  0.23848115  1
  O  O274  1  0.64199048  0.98790049  0.76511420  1
  O  O275  1  0.36453431  0.01124328  0.23993549  1
  O  O276  1  0.35683637  -0.00188252  0.74878394  1
  O  O277  1  0.37208268  0.50835563  0.25716558  1
  O  O278  1  0.37604419  0.49289347  0.76252687  1
  O  O279  1  0.86489387  -0.00076302  0.24597986  1
  O  O280  1  0.88272441  0.00673136  0.75841592  1
  O  O281  1  0.86779494  0.50661728  0.24953958  1
  O  O282  1  0.88346387  0.51478970  0.74533385  1
  O  O283  1  0.12611337  0.36347248  0.36934639  1
  O  O284  1  0.11424515  0.37366298  0.87252931  1
  O  O285  1  0.12431438  0.87369197  0.36686516  1
  O  O286  1  0.12479262  0.87811602  0.86031893  1
  O  O287  1  0.62080660  0.36334454  0.37323992  1
  O  O288  1  0.63484836  0.37447869  0.86835359  1
  O  O289  1  0.60983795  0.87641543  0.36099813  1
  O  O290  1  0.62125198  0.86509986  0.86868131  1
  O  O291  1  0.37654054  0.13415030  0.13383145  1
  O  O292  1  0.36524565  0.14184453  0.63540617  1
  O  O293  1  0.38074662  0.62941967  0.13154112  1
  O  O294  1  0.38329491  0.64409932  0.61659332  1
  O  O295  1  0.86967428  0.13926259  0.12443097  1
  O  O296  1  0.88263093  0.13123233  0.63148227  1
  O  O297  1  0.87960435  0.63194440  0.12969225  1
  O  O298  1  0.86611601  0.63267053  0.64049139  1
  O  O299  1  0.25547363  0.25103599  0.11341188  1
  O  O300  1  0.25357490  0.25614054  0.62252727  1
  O  O301  1  0.25299329  0.75784817  0.11821721  1
  O  O302  1  0.25210783  0.76239082  0.62963695  1
  O  O303  1  0.75600293  0.25656084  0.12021735  1
  O  O304  1  0.75720982  0.25640590  0.61510058  1
  O  O305  1  0.75651701  0.74087725  0.11531064  1
  O  O306  1  0.75912092  0.75627672  0.62007453  1
  O  O307  1  0.24686508  0.24479516  0.38603162  1
  O  O308  1  0.24759784  0.24606318  0.88579702  1
  O  O309  1  0.25880006  0.74165587  0.37996749  1
  O  O310  1  0.25268168  0.74536910  0.88334011  1
  O  O311  1  0.74796793  0.24559470  0.37598246  1
  O  O312  1  0.75880666  0.23439111  0.88207948  1
  O  O313  1  0.74736858  0.74279081  0.38311588  1
  O  O314  1  0.74406170  0.74170637  0.88417991  1
  O  O315  1  0.01161476  0.12112737  -0.00287637  1
  O  O316  1  -0.00620854  0.12722624  0.51168216  1
  O  O317  1  0.00494523  0.62237147  0.00223831  1
  O  O318  1  -0.00645684  0.61465268  0.49946628  1
  O  O319  1  0.50492211  0.11849882  -0.00483606  1
  O  O320  1  0.51494148  0.14839477  0.51278770  1
  O  O321  1  0.49973455  0.61390391  0.01842194  1
  O  O322  1  0.51297949  0.63307250  0.49482164  1
  O  O323  1  0.49986236  0.36270852  0.48555473  1
  O  O324  1  0.48969942  0.38783539  1.00668446  1
  O  O325  1  0.48924866  0.86873089  0.47608888  1
  O  O326  1  0.49573552  0.88104067  0.98881802  1
  O  O327  1  0.98791749  0.37577061  0.50173525  1
  O  O328  1  0.99286645  0.37905825  0.99244552  1
  O  O329  1  0.98816876  0.87164384  0.50053360  1
  O  O330  1  1.00139297  0.88777626  1.00333201  1
  O  O331  1  0.49369617  0.48812018  0.37630073  1
  O  O332  1  0.49251096  0.50692699  0.88955712  1
  O  O333  1  0.49976354  0.99531192  0.36679428  1
  O  O334  1  0.50404050  0.99047060  0.88102196  1
  O  O335  1  0.99940170  0.49745130  0.38849798  1
  O  O336  1  1.00178300  0.48928405  0.87971078  1
  O  O337  1  0.99749883  0.99712509  0.37612729  1
  O  O338  1  0.99221581  1.00665459  0.88539715  1
  O  O339  1  0.01296364  -0.00080545  0.11986232  1
  O  O340  1  0.00753273  0.00929397  0.62276755  1
  O  O341  1  0.00865211  0.50500467  0.11972712  1
  O  O342  1  0.01157074  0.49740104  0.61296958  1
  O  O343  1  0.51021146  0.00220823  0.11153410  1
  O  O344  1  0.50540061  0.01848147  0.66588314  1
  O  O345  1  0.50470680  0.50394893  0.12577359  1
  O  O346  1  0.50458517  0.50146227  0.62056220  1
  O  O347  1  0.23671155  0.37497948  0.24682310  1
  O  O348  1  0.24681421  0.37831372  0.74047453  1
  O  O349  1  0.25491319  0.88535109  0.24276444  1
  O  O350  1  0.23925447  0.88095400  0.74265497  1
  O  O351  1  0.75612251  0.38764190  0.24657512  1
  O  O352  1  0.73775103  0.36009429  0.73856827  1
  O  O353  1  0.73783255  0.88605762  0.25457094  1
  O  O354  1  0.74907619  0.87120571  0.74135253  1
  O  O355  1  0.25877520  0.12214699  0.25793445  1
  O  O356  1  0.24628497  0.11636889  0.75922574  1
  O  O357  1  0.26244494  0.62421681  0.24353402  1
  O  O358  1  0.24173415  0.62708418  0.76219126  1
  O  O359  1  0.74947327  0.11069502  0.25240074  1
  O  O360  1  0.75387176  0.12236773  0.75464167  1
  O  O361  1  0.75160586  0.61635956  0.25756657  1
  O  O362  1  0.76323613  0.62889122  0.76375742  1
  O  O363  1  0.36779049  0.13062266  0.36247603  1
  O  O364  1  0.35838978  0.12696851  0.87373247  1
  O  O365  1  0.38503304  0.61445820  0.36587904  1
  O  O366  1  0.36479390  0.61873276  0.87400401  1
  O  O367  1  0.86276691  0.12336132  0.36622751  1
  O  O368  1  0.87056909  0.11789644  0.86904429  1
  O  O369  1  0.86066330  0.62208287  0.36945430  1
  O  O370  1  0.86508869  0.62745630  0.86548751  1
  O  O371  1  0.12468455  0.38423420  0.13186527  1
  O  O372  1  0.13384567  0.38406686  0.62708143  1
  O  O373  1  0.13348976  0.88474831  0.13075707  1
  O  O374  1  0.13095136  0.88064584  0.63064971  1
  O  O375  1  0.63090502  0.38664314  0.12243017  1
  O  O376  1  0.64058849  0.37180361  0.62219603  1
  O  O377  1  0.61515041  0.88109805  0.13585135  1
  O  O378  1  0.63800525  0.86576048  0.64431296  1
  O  O379  1  0.12132651  0.25560276  0.25469122  1
  O  O380  1  0.11222427  0.25278425  0.75082035  1
  O  O381  1  0.10776454  0.74837210  0.23912413  1
  O  O382  1  0.10690785  0.75555185  0.74712880  1
  O  O383  1  0.61745428  0.24631988  0.25199279  1
  O  O384  1  0.61009925  0.26135920  0.75359277  1
  O  O385  1  0.61599440  0.75839589  0.24916138  1
  O  O386  1  0.63501804  0.75523417  0.76441735  1
  O  O387  1  0.38020363  0.24538238  0.24423676  1
  O  O388  1  0.38539145  0.25530575  0.74647568  1
  O  O389  1  0.38020878  0.74463626  0.24366094  1
  O  O390  1  0.37709498  0.75657128  0.73401138  1
  O  O391  1  0.88583461  0.24982581  0.24182600  1
  O  O392  1  0.88550742  0.24352406  0.74560041  1
  O  O393  1  0.87721418  0.74399336  0.24262995  1
  O  O394  1  0.88498400  0.74622768  0.74474575  1
  O  O395  1  0.38176065  0.49640639  0.49364312  1
  O  O396  1  0.37945802  0.49552016  0.99575559  1
  O  O397  1  0.38649367  0.98493064  0.51483675  1
  O  O398  1  0.38534436  0.99388052  1.00473533  1
  O  O399  1  0.88663340  0.49488029  0.50296010  1
  O  O400  1  0.88110476  0.48808157  1.00942795  1
  O  O401  1  0.87950880  0.98873878  0.49592904  1
  O  O402  1  0.88506683  0.99892034  0.99589334  1
  O  O403  1  0.11870926  0.00784758  0.00650478  1
  O  O404  1  0.12419424  -0.00411334  0.51339423  1
  O  O405  1  0.11834068  0.50710623  0.00625115  1
  O  O406  1  0.11116589  0.49490317  0.50746132  1
  O  O407  1  0.61802022  0.00397820  0.00194207  1
  O  O408  1  0.60928018  -0.03184345  0.51796545  1
  O  O409  1  0.61513999  0.50243688  0.01048189  1
  O  O410  1  0.62266663  0.51249921  0.50063698  1
  O  O411  1  0.37049494  0.37103666  0.11551131  1
  O  O412  1  0.36651650  0.36488470  0.62579737  1
  O  O413  1  0.36908881  0.87131472  0.11668925  1
  O  O414  1  0.36810662  0.86850779  0.61950626  1
  O  O415  1  0.86970795  0.36591675  0.11828580  1
  O  O416  1  0.86743110  0.36820797  0.62116590  1
  O  O417  1  0.87414443  0.86263691  0.12235221  1
  O  O418  1  0.87091346  0.86607171  0.61977974  1
  O  O419  1  0.13754305  0.13851874  0.37093894  1
  O  O420  1  0.13333843  0.12965815  0.88476481  1
  O  O421  1  0.13149980  0.63266063  0.37281141  1
  O  O422  1  0.12993761  0.61934136  0.88641181  1
  O  O423  1  0.63952393  0.13810652  0.36859589  1
  O  O424  1  0.63473192  0.11883984  0.88637899  1
  O  O425  1  0.63330928  0.62994413  0.37979234  1
  O  O426  1  0.63913404  0.62859059  0.87873965  1
