# generated using pymatgen
data_V85Zn86O256
_symmetry_space_group_name_H-M   'P 1'
_cell_length_a   16.93685961
_cell_length_b   16.92578673
_cell_length_c   16.92515442
_cell_angle_alpha   89.99559037
_cell_angle_beta   89.96985370
_cell_angle_gamma   89.93104722
_symmetry_Int_Tables_number   1
_chemical_formula_structural   V85Zn86O256
_chemical_formula_sum   'V85 Zn86 O256'
_cell_volume   4851.92429431
_cell_formula_units_Z   1
loop_
 _symmetry_equiv_pos_site_id
 _symmetry_equiv_pos_as_xyz
  1  'x, y, z'
loop_
 _atom_site_type_symbol
 _atom_site_label
 _atom_site_symmetry_multiplicity
 _atom_site_fract_x
 _atom_site_fract_y
 _atom_site_fract_z
 _atom_site_occupancy
  V  V0  1  0.13865030  0.62544985  0.49383679  1
  V  V1  1  0.12751304  0.00477680  0.61411472  1
  V  V2  1  0.62688312  0.12740538  0.00284272  1
  V  V3  1  0.87530508  0.87640706  0.00796355  1
  V  V4  1  0.87764903  0.49727332  0.87607235  1
  V  V5  1  0.74956268  0.11942735  0.87082275  1
  V  V6  1  0.62304590  0.49770204  0.63145595  1
  V  V7  1  0.37888851  0.49276558  0.87091043  1
  V  V8  1  0.74982782  0.24905896  0.00090675  1
  V  V9  1  0.12957753  0.61762221  -0.00182548  1
  V  V10  1  0.24777524  0.12291714  0.37315137  1
  V  V11  1  0.75234658  0.24835476  0.50307713  1
  V  V12  1  0.75078885  0.88319686  0.63072467  1
  V  V13  1  0.37208346  0.75126494  0.12299214  1
  V  V14  1  0.87447932  0.62844105  0.24809443  1
  V  V15  1  0.37651414  0.36774317  0.00100259  1
  V  V16  1  -0.00647050  0.24992937  0.74787171  1
  V  V17  1  0.62372464  0.00795564  0.63235910  1
  V  V18  1  0.49768810  0.63695081  0.63049036  1
  V  V19  1  0.61977806  0.87482472  0.74901441  1
  V  V20  1  0.87378928  0.11845135  0.25837770  1
  V  V21  1  0.61853630  0.74973166  0.87232056  1
  V  V22  1  0.87574064  0.62684407  0.74867052  1
  V  V23  1  0.37309803  0.00340007  0.36285868  1
  V  V24  1  0.75323690  0.49644658  0.25736422  1
  V  V25  1  -0.00006788  0.75155197  0.74710600  1
  V  V26  1  0.61979498  0.25554570  0.37638131  1
  V  V27  1  0.01041285  0.12186122  0.12042502  1
  V  V28  1  0.00579666  0.62395241  0.62074841  1
  V  V29  1  0.37726262  0.00222233  0.87385906  1
  V  V30  1  0.62567327  0.62557350  0.50282558  1
  V  V31  1  0.37185444  0.86333548  0.50237329  1
  V  V32  1  0.49507796  0.00511083  0.50637150  1
  V  V33  1  0.25092714  0.24593840  0.00657087  1
  V  V34  1  0.62546190  0.87926653  0.24953135  1
  V  V35  1  0.37817455  0.63816101  0.75196557  1
  V  V36  1  0.12362849  0.37823676  0.74604217  1
  V  V37  1  0.24635002  0.12342366  0.87788950  1
  V  V38  1  0.00984963  0.00435242  -0.00047453  1
  V  V39  1  0.24975277  0.00073154  0.74768034  1
  V  V40  1  0.75674865  0.62174609  0.37814583  1
  V  V41  1  -0.00375302  0.50516442  0.49965495  1
  V  V42  1  0.50316541  0.00210614  0.00067139  1
  V  V43  1  0.48839372  0.12952493  0.13240792  1
  V  V44  1  0.49832032  0.87602515  0.37719234  1
  V  V45  1  0.87336732  0.11838685  0.74536256  1
  V  V46  1  0.74806013  0.37466811  0.12854455  1
  V  V47  1  0.12480846  0.74707043  0.87320467  1
  V  V48  1  0.49641278  0.62045194  0.12707487  1
  V  V49  1  0.75071432  0.75257177  0.50255607  1
  V  V50  1  0.24878834  0.37379195  0.61917497  1
  V  V51  1  0.50099165  0.49206126  -0.00374548  1
  V  V52  1  0.75514172  0.74990501  0.00767268  1
  V  V53  1  0.12408209  0.24601613  0.87751425  1
  V  V54  1  0.62418583  0.62465917  0.00077856  1
  V  V55  1  0.49855852  0.74814462  0.25092455  1
  V  V56  1  0.61713795  0.13192475  0.50457499  1
  V  V57  1  0.12542591  0.87646250  0.74721914  1
  V  V58  1  -0.00417700  0.62446512  0.12426096  1
  V  V59  1  0.62553196  0.75079809  0.37601786  1
  V  V60  1  0.87562576  0.37445948  0.49520348  1
  V  V61  1  0.00159897  0.13024700  0.61918446  1
  V  V62  1  0.12294868  0.24618938  0.38473894  1
  V  V63  1  0.12758114  0.49382140  0.12435448  1
  V  V64  1  0.00214667  0.25155210  0.25084963  1
  V  V65  1  0.38010410  0.87335653  0.00176145  1
  V  V66  1  -0.00321105  0.87732530  0.87396443  1
  V  V67  1  0.13760485  0.75407267  0.37294949  1
  V  V68  1  0.75874361  0.37345714  0.62703333  1
  V  V69  1  0.49990213  0.49194519  0.49795831  1
  V  V70  1  0.37935874  0.23944099  0.62103504  1
  V  V71  1  -0.00155878  0.38399517  0.37259132  1
  V  V72  1  0.48377928  0.25478906  0.25326182  1
  V  V73  1  0.00190470  0.75526397  0.25072861  1
  V  V74  1  0.25345590  0.86257520  0.62182722  1
  V  V75  1  0.62089777  0.26386225  0.86928338  1
  V  V76  1  0.74815436  0.49616705  0.75094144  1
  V  V77  1  0.87475190  0.24723036  0.12552022  1
  V  V78  1  0.25199412  0.50235100  0.25687334  1
  V  V79  1  0.87546605  0.75495321  0.62342428  1
  V  V80  1  0.75081228  0.62729810  0.87541548  1
  V  V81  1  0.22749438  -0.00735085  0.23514379  1
  V  V82  1  -0.00642405  0.00013448  0.49307940  1
  V  V83  1  0.24908872  0.50094856  0.74610455  1
  V  V84  1  0.22178274  0.78249451  0.02181004  1
  Zn  Zn85  1  0.87127298  -0.00115824  0.87404102  1
  Zn  Zn86  1  0.49981779  0.87092290  0.86941331  1
  Zn  Zn87  1  0.24288345  0.23560380  0.50504687  1
  Zn  Zn88  1  0.75077096  0.11804179  0.38033552  1
  Zn  Zn89  1  0.37794293  0.36806589  0.49568500  1
  Zn  Zn90  1  0.25507034  0.36904102  0.12731119  1
  Zn  Zn91  1  0.37708671  0.49863291  0.37615209  1
  Zn  Zn92  1  0.75185907  0.87478476  0.12824165  1
  Zn  Zn93  1  -0.00077266  0.37302199  0.87604212  1
  Zn  Zn94  1  0.49961379  0.25391088  0.75277142  1
  Zn  Zn95  1  0.87681384  0.37422694  0.00003905  1
  Zn  Zn96  1  0.63015785  0.00142291  0.12810904  1
  Zn  Zn97  1  0.00080479  0.87771085  0.36818767  1
  Zn  Zn98  1  0.62421757  0.49824389  0.12902310  1
  Zn  Zn99  1  0.36679655  0.63043283  0.26294883  1
  Zn  Zn100  1  0.61919688  0.37556588  0.25645370  1
  Zn  Zn101  1  0.25356631  0.62658498  0.87787735  1
  Zn  Zn102  1  0.86649919  0.88540905  0.48642368  1
  Zn  Zn103  1  0.12739575  0.37464828  0.25028125  1
  Zn  Zn104  1  -0.00090583  0.49568370  0.00070603  1
  Zn  Zn105  1  0.38219408  0.12273059  0.74275402  1
  Zn  Zn106  1  0.75851552  -0.00873378  0.25789083  1
  Zn  Zn107  1  0.19078328  0.18297716  0.19376116  1
  Zn  Zn108  1  0.18701670  0.18755685  0.69102222  1
  Zn  Zn109  1  0.18401464  0.68369399  0.18900008  1
  Zn  Zn110  1  0.18810047  0.68287996  0.68532643  1
  Zn  Zn111  1  0.68519186  0.18723966  0.19133414  1
  Zn  Zn112  1  0.68888718  0.18915885  0.68763934  1
  Zn  Zn113  1  0.68510809  0.68760863  0.18853388  1
  Zn  Zn114  1  0.68670393  0.68887621  0.68950334  1
  Zn  Zn115  1  0.30974883  0.32027552  0.31952422  1
  Zn  Zn116  1  0.31250190  0.31139562  0.80997185  1
  Zn  Zn117  1  0.31232620  0.81969131  0.30764472  1
  Zn  Zn118  1  0.30703518  0.81677248  0.82088819  1
  Zn  Zn119  1  0.81218625  0.30782091  0.31718908  1
  Zn  Zn120  1  0.81046874  0.30904642  0.81311954  1
  Zn  Zn121  1  0.81610070  0.81195125  0.31369391  1
  Zn  Zn122  1  0.80823541  0.81503288  0.81429152  1
  Zn  Zn123  1  0.18017730  0.43980942  0.43711584  1
  Zn  Zn124  1  0.19109599  0.43282921  0.93268161  1
  Zn  Zn125  1  0.18915901  0.93523797  0.43432627  1
  Zn  Zn126  1  0.18498706  0.93826434  0.94161755  1
  Zn  Zn127  1  0.68444734  0.43721906  0.44093545  1
  Zn  Zn128  1  0.69185083  0.43871558  0.94240754  1
  Zn  Zn129  1  0.68631754  0.94301308  0.43906755  1
  Zn  Zn130  1  0.68780667  0.93705542  0.93756273  1
  Zn  Zn131  1  0.31065375  0.06194365  0.06237231  1
  Zn  Zn132  1  0.30851141  0.05794174  0.55419747  1
  Zn  Zn133  1  0.31199385  0.55992741  0.06347291  1
  Zn  Zn134  1  0.31837350  0.56316082  0.56825578  1
  Zn  Zn135  1  0.81345035  0.05820029  0.06755101  1
  Zn  Zn136  1  0.81246316  0.06614620  0.56571622  1
  Zn  Zn137  1  0.81226323  0.56090487  0.06464566  1
  Zn  Zn138  1  0.81778668  0.56208494  0.56264716  1
  Zn  Zn139  1  0.43349629  0.43396226  0.18599183  1
  Zn  Zn140  1  0.43510086  0.43221203  0.68753962  1
  Zn  Zn141  1  0.44013248  0.93668789  0.18442529  1
  Zn  Zn142  1  0.43750944  0.93607104  0.68574853  1
  Zn  Zn143  1  0.93397501  0.44029817  0.18869607  1
  Zn  Zn144  1  0.93773589  0.43923807  0.68546586  1
  Zn  Zn145  1  0.94146690  0.93945781  0.18504661  1
  Zn  Zn146  1  0.93891622  0.94144604  0.68286826  1
  Zn  Zn147  1  0.06458226  0.06458283  0.30872876  1
  Zn  Zn148  1  0.06163509  0.06251872  0.81034282  1
  Zn  Zn149  1  0.06692956  0.56580669  0.31268774  1
  Zn  Zn150  1  0.06322869  0.56156867  0.80937858  1
  Zn  Zn151  1  0.56182886  0.06615263  0.31786614  1
  Zn  Zn152  1  0.56066015  0.07061750  0.81157380  1
  Zn  Zn153  1  0.56553607  0.56281695  0.31389780  1
  Zn  Zn154  1  0.56156609  0.56098172  0.81287223  1
  Zn  Zn155  1  0.43171925  0.18767396  0.43582564  1
  Zn  Zn156  1  0.44066475  0.18711468  0.93302941  1
  Zn  Zn157  1  0.43599652  0.68075411  0.43847049  1
  Zn  Zn158  1  0.43565041  0.68336112  0.93899483  1
  Zn  Zn159  1  0.93934129  0.19033882  0.44089263  1
  Zn  Zn160  1  0.93597030  0.18650950  0.93634112  1
  Zn  Zn161  1  0.93660798  0.69507890  0.43411118  1
  Zn  Zn162  1  0.93852251  0.68617739  0.93947155  1
  Zn  Zn163  1  0.06192368  0.31134945  0.05848133  1
  Zn  Zn164  1  0.06141437  0.31557356  0.56473582  1
  Zn  Zn165  1  0.05261579  0.80928599  0.06308675  1
  Zn  Zn166  1  0.06676252  0.81383433  0.55602165  1
  Zn  Zn167  1  0.56186647  0.31033698  0.06662178  1
  Zn  Zn168  1  0.55157672  0.32771174  0.60113025  1
  Zn  Zn169  1  0.56316534  0.81085406  0.06340305  1
  Zn  Zn170  1  0.56260473  0.81714591  0.56211875  1
  O  O171  1  0.10782075  0.13296757  0.12695106  1
  O  O172  1  0.11583476  0.11565548  0.63198602  1
  O  O173  1  0.11928701  0.61255526  0.11621282  1
  O  O174  1  0.11271289  0.63413499  0.61136852  1
  O  O175  1  0.62075973  0.12535918  0.11400142  1
  O  O176  1  0.62906754  0.11948867  0.61658424  1
  O  O177  1  0.61287737  0.62460446  0.11938022  1
  O  O178  1  0.62023684  0.61668764  0.62488230  1
  O  O179  1  0.37102906  0.38556941  0.38539074  1
  O  O180  1  0.37186128  0.38548845  0.88076033  1
  O  O181  1  0.38075926  0.88107918  0.38245605  1
  O  O182  1  0.38257028  0.88664256  0.87764109  1
  O  O183  1  0.88332742  0.37120689  0.38595440  1
  O  O184  1  0.87437738  0.38421612  0.87498351  1
  O  O185  1  0.88712567  0.86822443  0.37665898  1
  O  O186  1  0.88071624  0.87694336  0.88109499  1
  O  O187  1  0.25505789  0.00346036  0.36663906  1
  O  O188  1  0.25581790  0.00478738  0.87052967  1
  O  O189  1  0.24188723  0.49790060  0.35850977  1
  O  O190  1  0.25908197  0.50064290  0.86321913  1
  O  O191  1  0.74738587  0.00489557  0.37064139  1
  O  O192  1  0.74914720  0.01517219  0.87840686  1
  O  O193  1  0.74445191  0.50934623  0.37039119  1
  O  O194  1  0.75830992  0.50505701  0.86943137  1
  O  O195  1  0.24140731  0.49494245  0.12911700  1
  O  O196  1  0.25819406  0.49170340  0.63879724  1
  O  O197  1  0.24737927  1.00716823  0.13653288  1
  O  O198  1  0.24232672  0.99564659  0.62995439  1
  O  O199  1  0.74900625  0.49040158  0.13361316  1
  O  O200  1  0.74800067  0.49893770  0.63397526  1
  O  O201  1  0.74783261  0.99528341  0.13702372  1
  O  O202  1  0.73863808  0.99331409  0.61987635  1
  O  O203  1  -0.00250054  0.36917241  0.25711497  1
  O  O204  1  0.00513588  0.36840773  0.74903020  1
  O  O205  1  -0.00076921  0.85881813  0.24220388  1
  O  O206  1  0.00500221  0.87004241  0.75219998  1
  O  O207  1  0.50170635  0.35889731  0.24183780  1
  O  O208  1  0.51550467  0.35876624  0.70941979  1
  O  O209  1  0.50530584  0.86730639  0.25610863  1
  O  O210  1  0.51437107  0.87709008  0.74983107  1
  O  O211  1  0.50396333  0.13202721  0.23805445  1
  O  O212  1  0.49337618  0.13852805  0.75667773  1
  O  O213  1  0.50031351  0.62952687  0.24184514  1
  O  O214  1  0.49390050  0.62209702  0.73975332  1
  O  O215  1  0.99174191  0.13165680  0.24066926  1
  O  O216  1  0.99372473  0.13187655  0.74291431  1
  O  O217  1  0.99185786  0.62648263  0.24425065  1
  O  O218  1  0.99760863  0.63157502  0.74020693  1
  O  O219  1  0.36573822  0.25716604  -0.01201551  1
  O  O220  1  0.36270308  0.24860596  0.50720107  1
  O  O221  1  0.37258626  0.75768532  0.00575097  1
  O  O222  1  0.38431784  0.76445695  0.49828223  1
  O  O223  1  0.86819636  0.24906247  0.00986485  1
  O  O224  1  0.86557397  0.25972646  0.49803637  1
  O  O225  1  0.86621699  0.75908796  -0.00723570  1
  O  O226  1  0.86674819  0.75231428  0.50884118  1
  O  O227  1  0.12338521  0.25383065  0.48865639  1
  O  O228  1  0.13337120  0.25509127  0.98468402  1
  O  O229  1  0.12087364  0.73663204  0.48692395  1
  O  O230  1  0.11845349  0.73338794  0.99023002  1
  O  O231  1  0.62828983  0.24319571  0.49862867  1
  O  O232  1  0.63046863  0.24426344  0.99514971  1
  O  O233  1  0.63213842  0.74515208  0.49769553  1
  O  O234  1  0.63222818  0.74403349  0.99417293  1
  O  O235  1  0.50394066  0.23807677  0.13742137  1
  O  O236  1  0.47953720  0.23715732  0.60961775  1
  O  O237  1  0.49109902  0.74149959  0.12780317  1
  O  O238  1  0.51095956  0.73522970  0.62538645  1
  O  O239  1  0.99304640  0.24425065  0.13012481  1
  O  O240  1  1.00622649  0.24009575  0.63279806  1
  O  O241  1  1.00803774  0.73299208  0.13365721  1
  O  O242  1  0.99462882  0.74727275  0.62737931  1
  O  O243  1  0.00455067  0.25811042  0.36847982  1
  O  O244  1  0.00741975  0.24849114  0.86784123  1
  O  O245  1  0.00961546  0.74722058  0.36376218  1
  O  O246  1  0.00833614  0.75365494  0.86891653  1
  O  O247  1  0.50390122  0.24233389  0.36096536  1
  O  O248  1  0.51662536  0.25483907  0.87812475  1
  O  O249  1  0.50650473  0.75430761  0.37114108  1
  O  O250  1  0.51453964  0.74937128  0.88371422  1
  O  O251  1  0.24340661  0.11901987  0.48117017  1
  O  O252  1  0.25448622  0.13009406  0.98669855  1
  O  O253  1  0.23621986  0.61787929  0.50895388  1
  O  O254  1  0.23709589  0.62546163  0.99920214  1
  O  O255  1  0.74331581  0.13460444  0.50253658  1
  O  O256  1  0.74441986  0.12929810  0.99675223  1
  O  O257  1  0.74681358  0.62909153  0.49547654  1
  O  O258  1  0.74590656  0.63059388  0.99539966  1
  O  O259  1  0.25820686  0.36387656  -0.00105486  1
  O  O260  1  0.24053911  0.38060034  0.51465414  1
  O  O261  1  0.27402204  0.87700550  -0.01634006  1
  O  O262  1  0.26059938  0.87985294  0.50855705  1
  O  O263  1  0.75467075  0.36876260  0.01194661  1
  O  O264  1  0.75940635  0.37140893  0.50359831  1
  O  O265  1  0.75754819  0.86770914  0.00041212  1
  O  O266  1  0.74789645  0.87024084  0.51210129  1
  O  O267  1  0.13244491  0.49968472  0.24064430  1
  O  O268  1  0.13488571  0.49134391  0.75417745  1
  O  O269  1  0.12646983  0.99388046  0.24461004  1
  O  O270  1  0.12907519  0.99341282  0.74132439  1
  O  O271  1  0.63705358  0.49661658  0.24949180  1
  O  O272  1  0.63941105  0.50491171  0.74632187  1
  O  O273  1  0.61889683  0.98650816  0.25261221  1
  O  O274  1  0.62056423  0.99693771  0.73849847  1
  O  O275  1  0.38084970  -0.00384970  0.26187666  1
  O  O276  1  0.36964229  -0.00037516  0.75778791  1
  O  O277  1  0.36111289  0.49957725  0.24675241  1
  O  O278  1  0.37168197  0.50344809  0.75537531  1
  O  O279  1  0.88087957  0.01551890  0.24834217  1
  O  O280  1  0.88050041  0.01382082  0.75267717  1
  O  O281  1  0.86149839  0.51052257  0.24916857  1
  O  O282  1  0.86698685  0.50676493  0.75490578  1
  O  O283  1  0.11420274  0.36707509  0.37185539  1
  O  O284  1  0.12396302  0.36688548  0.86218141  1
  O  O285  1  0.11859968  0.85830769  0.38301805  1
  O  O286  1  0.11749386  0.86720546  0.86955071  1
  O  O287  1  0.62664185  0.36008425  0.37825231  1
  O  O288  1  0.63554339  0.36175758  0.87929365  1
  O  O289  1  0.61740942  0.86920310  0.37126779  1
  O  O290  1  0.62544674  0.86852579  0.86709307  1
  O  O291  1  0.39071748  0.12524607  0.11951467  1
  O  O292  1  0.35885380  0.13618950  0.62389134  1
  O  O293  1  0.38584126  0.63106771  0.12264062  1
  O  O294  1  0.38973731  0.62681967  0.63459462  1
  O  O295  1  0.88036824  0.13548031  0.13403337  1
  O  O296  1  0.88628840  0.12443356  0.63370203  1
  O  O297  1  0.88414293  0.62020386  0.13290741  1
  O  O298  1  0.88356748  0.63403467  0.63012382  1
  O  O299  1  0.24242306  0.24610892  0.11041671  1
  O  O300  1  0.25051351  0.25725019  0.62335259  1
  O  O301  1  0.26085576  0.74060580  0.11860049  1
  O  O302  1  0.24584170  0.76343692  0.62897538  1
  O  O303  1  0.75653610  0.25431660  0.12304496  1
  O  O304  1  0.74500632  0.26143223  0.61410373  1
  O  O305  1  0.74568027  0.74969389  0.11112830  1
  O  O306  1  0.75511123  0.75690223  0.62104720  1
  O  O307  1  0.23855634  0.24178324  0.37229930  1
  O  O308  1  0.24362446  0.24149649  0.87777779  1
  O  O309  1  0.23681328  0.75344697  0.36652392  1
  O  O310  1  0.23383559  0.75390149  0.89158012  1
  O  O311  1  0.74158848  0.24598314  0.38803832  1
  O  O312  1  0.74418945  0.24091124  0.88300339  1
  O  O313  1  0.74425995  0.74288534  0.38311630  1
  O  O314  1  0.74130029  0.74498914  0.88388720  1
  O  O315  1  -0.00687141  0.11972031  0.01228911  1
  O  O316  1  -0.00287666  0.11697126  0.50969180  1
  O  O317  1  0.00820424  0.61984219  0.00686842  1
  O  O318  1  -0.00193645  0.62078633  0.50440397  1
  O  O319  1  0.50774800  0.12169174  0.00755103  1
  O  O320  1  0.50577206  0.11606419  0.49484013  1
  O  O321  1  0.50350426  0.61331765  0.00678090  1
  O  O322  1  0.50755088  0.61899096  0.51473266  1
  O  O323  1  0.50481221  0.38990982  0.51140740  1
  O  O324  1  0.49592879  0.38490399  1.00532227  1
  O  O325  1  0.49525277  0.88427657  0.49556627  1
  O  O326  1  0.49547257  0.88383162  0.99795393  1
  O  O327  1  0.99483342  0.38309176  0.49540587  1
  O  O328  1  0.99468633  0.37775219  0.99472240  1
  O  O329  1  0.99773078  0.89274851  0.50514489  1
  O  O330  1  0.99241566  0.88216579  0.99480694  1
  O  O331  1  0.51051081  0.50251483  0.39589381  1
  O  O332  1  0.49337330  0.50128462  0.88387941  1
  O  O333  1  0.49319747  0.99549714  0.38336472  1
  O  O334  1  0.49462426  1.00197692  0.88635421  1
  O  O335  1  1.00335703  0.48993610  0.37825825  1
  O  O336  1  0.98651997  0.50057696  0.87144659  1
  O  O337  1  1.00894570  1.00224213  0.39087351  1
  O  O338  1  0.99721773  0.99518058  0.88114326  1
  O  O339  1  -0.00277284  0.01451040  0.11708241  1
  O  O340  1  0.00854040  0.00942742  0.61764646  1
  O  O341  1  0.00669302  0.50806568  0.12587294  1
  O  O342  1  -0.00426232  0.51328689  0.61635197  1
  O  O343  1  0.50333104  0.01147361  0.11671735  1
  O  O344  1  0.50701746  -0.00256079  0.61450065  1
  O  O345  1  0.50128339  0.50573559  0.11928998  1
  O  O346  1  0.51079340  0.50904287  0.62179039  1
  O  O347  1  0.24601706  0.38482028  0.24398278  1
  O  O348  1  0.24299872  0.38038942  0.74211747  1
  O  O349  1  0.25205484  0.89462116  0.24866288  1
  O  O350  1  0.24475175  0.88170463  0.74529584  1
  O  O351  1  0.75191511  0.38130916  0.24787400  1
  O  O352  1  0.75935489  0.38405559  0.74030030  1
  O  O353  1  0.73938210  0.86899168  0.24869052  1
  O  O354  1  0.74021994  0.87361118  0.73824359  1
  O  O355  1  0.24388777  0.10910354  0.26124447  1
  O  O356  1  0.25399786  0.11778481  0.76137714  1
  O  O357  1  0.25190906  0.60740955  0.24053557  1
  O  O358  1  0.25796776  0.61755506  0.75071878  1
  O  O359  1  0.76714325  0.12923795  0.25136316  1
  O  O360  1  0.76110559  0.13240790  0.75784655  1
  O  O361  1  0.75486502  0.62067232  0.25679462  1
  O  O362  1  0.75667640  0.61920967  0.75575142  1
  O  O363  1  0.36339035  0.11427241  0.37676526  1
  O  O364  1  0.36891159  0.11229724  0.87662232  1
  O  O365  1  0.37985161  0.61227478  0.37380511  1
  O  O366  1  0.37378120  0.61294251  0.86961866  1
  O  O367  1  0.87809945  0.13243642  0.36044014  1
  O  O368  1  0.86619742  0.12480120  0.86697860  1
  O  O369  1  0.86234239  0.62881981  0.36916759  1
  O  O370  1  0.87068064  0.61963664  0.86863785  1
  O  O371  1  0.12313589  0.38554152  0.12498956  1
  O  O372  1  0.13004483  0.37138076  0.63862417  1
  O  O373  1  0.15713609  0.85295528  0.06498714  1
  O  O374  1  0.13189410  0.88189650  0.62850939  1
  O  O375  1  0.63868380  0.37305502  0.12953786  1
  O  O376  1  0.64636744  0.39289036  0.61691107  1
  O  O377  1  0.62431971  0.87654672  0.13541241  1
  O  O378  1  0.63061409  0.88316641  0.63135991  1
  O  O379  1  0.11185138  0.25218960  0.25341006  1
  O  O380  1  0.11563009  0.25576785  0.75871324  1
  O  O381  1  0.11690158  0.73994921  0.26275392  1
  O  O382  1  0.12128311  0.75314154  0.75655532  1
  O  O383  1  0.62007727  0.25021895  0.26240360  1
  O  O384  1  0.63054803  0.24794752  0.76748185  1
  O  O385  1  0.61833900  0.75770903  0.25526811  1
  O  O386  1  0.63089523  0.75974440  0.76071483  1
  O  O387  1  0.38523397  0.25275100  0.25391788  1
  O  O388  1  0.37320773  0.25020589  0.73333297  1
  O  O389  1  0.37945260  0.74910150  0.24091064  1
  O  O390  1  0.36957115  0.73682339  0.76640174  1
  O  O391  1  0.88517462  0.24429811  0.24536129  1
  O  O392  1  0.88874980  0.24305655  0.75509910  1
  O  O393  1  0.88305664  0.73518495  0.25090785  1
  O  O394  1  0.87939260  0.74665891  0.74435303  1
  O  O395  1  0.39396563  0.50028686  0.50800084  1
  O  O396  1  0.38174120  0.49398751  0.99124068  1
  O  O397  1  0.38270190  0.99300375  0.49170190  1
  O  O398  1  0.38411981  0.99491154  0.99539655  1
  O  O399  1  0.88721658  0.49405756  0.49863408  1
  O  O400  1  0.87485100  0.49928074  0.98947655  1
  O  O401  1  0.88944384  1.00219230  0.50541239  1
  O  O402  1  0.88146190  0.99187938  0.99700556  1
  O  O403  1  0.10962646  0.00310489  -0.00501371  1
  O  O404  1  0.11817465  -0.00370615  0.51073274  1
  O  O405  1  0.12440350  0.50226498  0.00270213  1
  O  O406  1  0.11063408  0.51586739  0.49467422  1
  O  O407  1  0.61764121  0.00735766  0.00098264  1
  O  O408  1  0.61469800  0.00852876  0.50968815  1
  O  O409  1  0.61853213  0.50588257  0.00238412  1
  O  O410  1  0.62014815  0.50794148  0.51081234  1
  O  O411  1  0.37268373  0.37669859  0.10585877  1
  O  O412  1  0.36379745  0.36191599  0.61721265  1
  O  O413  1  0.38156043  0.86353773  0.11500795  1
  O  O414  1  0.36574830  0.87975670  0.61563562  1
  O  O415  1  0.86621006  0.36334827  0.12854239  1
  O  O416  1  0.86660343  0.38176942  0.61266997  1
  O  O417  1  0.87608481  0.87516534  0.11200656  1
  O  O418  1  0.86597214  0.87194539  0.62503309  1
  O  O419  1  0.12823086  0.13744465  0.36919976  1
  O  O420  1  0.13358917  0.13321218  0.86840997  1
  O  O421  1  0.12572603  0.63322999  0.38707852  1
  O  O422  1  0.12694077  0.63021552  0.87914383  1
  O  O423  1  0.62556802  0.13483245  0.38807726  1
  O  O424  1  0.63170276  0.13166854  0.88731417  1
  O  O425  1  0.63513331  0.63192113  0.38137217  1
  O  O426  1  0.63106247  0.63058515  0.87974213  1
