# generated using pymatgen
data_V85Zn86O256
_symmetry_space_group_name_H-M   'P 1'
_cell_length_a   16.93611092
_cell_length_b   16.94049599
_cell_length_c   16.93191792
_cell_angle_alpha   89.95616071
_cell_angle_beta   90.08836487
_cell_angle_gamma   89.93298173
_symmetry_Int_Tables_number   1
_chemical_formula_structural   V85Zn86O256
_chemical_formula_sum   'V85 Zn86 O256'
_cell_volume   4857.86033091
_cell_formula_units_Z   1
loop_
 _symmetry_equiv_pos_site_id
 _symmetry_equiv_pos_as_xyz
  1  'x, y, z'
loop_
 _atom_site_type_symbol
 _atom_site_label
 _atom_site_symmetry_multiplicity
 _atom_site_fract_x
 _atom_site_fract_y
 _atom_site_fract_z
 _atom_site_occupancy
  V  V0  1  -0.00799103  0.00159267  0.49525796  1
  V  V1  1  0.13106573  -0.00513001  0.62443221  1
  V  V2  1  0.62154180  0.37002187  0.76902536  1
  V  V3  1  0.24922848  0.62612719  0.37385388  1
  V  V4  1  0.87104980  0.24881695  0.12390414  1
  V  V5  1  0.25483778  0.74416643  0.00652363  1
  V  V6  1  -0.00113042  0.12531841  0.62388044  1
  V  V7  1  0.26720369  0.11997084  0.37462858  1
  V  V8  1  0.75140870  0.62415768  0.35992498  1
  V  V9  1  0.12259839  0.75095571  0.37591924  1
  V  V10  1  -0.01436058  0.74723129  0.24688876  1
  V  V11  1  0.37836647  0.24734040  0.63302285  1
  V  V12  1  0.74593271  0.38752251  0.12786158  1
  V  V13  1  0.74564244  0.63511434  0.86952063  1
  V  V14  1  0.87098856  0.87755903  0.49742589  1
  V  V15  1  0.87378761  0.11647001  0.25253544  1
  V  V16  1  0.37483787  0.37655063  0.49965026  1
  V  V17  1  0.62152241  0.63332870  -0.00462417  1
  V  V18  1  0.49115381  0.00209051  0.00045229  1
  V  V19  1  0.24912691  0.75467025  0.50713747  1
  V  V20  1  0.25078685  0.24817889  0.49785729  1
  V  V21  1  0.12397678  0.62534522  0.50083003  1
  V  V22  1  0.75031596  0.25255557  0.49870111  1
  V  V23  1  -0.01075492  0.62468050  0.62805118  1
  V  V24  1  0.26177766  0.00160840  0.25301020  1
  V  V25  1  0.12413847  0.49839855  0.12450717  1
  V  V26  1  0.73661692  0.38062414  0.62233929  1
  V  V27  1  0.12554761  0.12465325  0.49270464  1
  V  V28  1  0.12225451  0.11814002  -0.00624752  1
  V  V29  1  0.75213969  0.11656354  0.37552484  1
  V  V30  1  0.12588048  0.50041624  0.62538612  1
  V  V31  1  -0.00145516  0.50170313  0.49742997  1
  V  V32  1  0.62319097  0.12475823  0.50293289  1
  V  V33  1  0.75762904  0.75078167  0.00661544  1
  V  V34  1  0.87141164  0.50364384  0.36117038  1
  V  V35  1  0.62920130  0.87127341  0.76195632  1
  V  V36  1  0.12068382  -0.00072332  0.12339734  1
  V  V37  1  -0.00539700  0.87957421  0.37276807  1
  V  V38  1  0.62653623  0.38661518  0.24635135  1
  V  V39  1  0.87807364  0.11710917  0.75234590  1
  V  V40  1  0.74869466  0.75014642  0.49869974  1
  V  V41  1  0.37530284  0.50073244  0.37272132  1
  V  V42  1  0.24980875  0.61823508  0.87202331  1
  V  V43  1  0.50543885  0.74627051  0.75909360  1
  V  V44  1  0.50113362  0.12594301  0.64006978  1
  V  V45  1  0.87181515  0.50857017  0.86892115  1
  V  V46  1  0.26207537  0.37294205  0.12041370  1
  V  V47  1  0.12558239  0.37238248  0.24736926  1
  V  V48  1  0.62737312  -0.00343712  0.62889020  1
  V  V49  1  0.49448324  0.75287668  0.24277328  1
  V  V50  1  0.62419204  0.62319279  0.50421505  1
  V  V51  1  0.73992886  0.25077092  -0.00734214  1
  V  V52  1  -0.00151098  0.37761841  0.87294344  1
  V  V53  1  0.62571137  0.25150273  0.37118413  1
  V  V54  1  0.50429691  0.48776866  0.00175498  1
  V  V55  1  0.25243698  0.38110625  0.62650210  1
  V  V56  1  0.87384615  0.37847682  0.49934939  1
  V  V57  1  0.50469006  0.62406312  0.12342089  1
  V  V58  1  0.12513803  0.62330408  0.00143935  1
  V  V59  1  0.61905866  0.75303440  0.37299313  1
  V  V60  1  0.75253519  0.87964701  0.12404635  1
  V  V61  1  0.37198885  0.62937602  0.24160994  1
  V  V62  1  0.13426446  0.87370541  0.74628966  1
  V  V63  1  0.62793183  0.11220932  0.00244685  1
  V  V64  1  0.50242550  0.50066025  0.50563488  1
  V  V65  1  -0.00795834  0.74784835  0.75354353  1
  V  V66  1  0.37862022  0.48864318  0.88011751  1
  V  V67  1  -0.01358137  0.62804015  0.12747012  1
  V  V68  1  0.37369555  0.75105600  0.62831662  1
  V  V69  1  0.49561221  0.24427721  0.25050499  1
  V  V70  1  -0.00082434  0.88810234  0.87746276  1
  V  V71  1  0.25600107  0.87159282  0.12678912  1
  V  V72  1  0.87221602  0.37400045  -0.00208401  1
  V  V73  1  -0.00148977  0.25031690  0.74784517  1
  V  V74  1  -0.00063396  0.24755623  0.24833159  1
  V  V75  1  0.62104560  0.88460327  0.24371190  1
  V  V76  1  0.37639499  0.23077921  0.12398688  1
  V  V77  1  0.37305562  0.61752626  0.75067167  1
  V  V78  1  0.12450454  0.87471935  0.24926818  1
  V  V79  1  0.37605420  0.88180291  0.50014838  1
  V  V80  1  0.37288421  0.87230695  -0.00865383  1
  V  V81  1  0.12801699  0.38074665  0.74955044  1
  V  V82  1  0.12974785  0.24826239  0.87707001  1
  V  V83  1  0.74476397  0.50487825  0.74524945  1
  V  V84  1  -0.00193555  0.50109282  -0.00111446  1
  Zn  Zn85  1  0.50044298  0.87578326  0.87621351  1
  Zn  Zn86  1  0.87675716  0.00645999  0.89592030  1
  Zn  Zn87  1  0.75338408  -0.00250200  0.75472005  1
  Zn  Zn88  1  0.26101533  0.24759479  -0.00922396  1
  Zn  Zn89  1  0.49272879  0.00438864  0.49984161  1
  Zn  Zn90  1  0.74624184  0.12735382  0.87084904  1
  Zn  Zn91  1  0.12366507  0.74837280  0.87479291  1
  Zn  Zn92  1  -0.00022801  0.37611359  0.37243380  1
  Zn  Zn93  1  0.50301256  0.25169290  0.76787435  1
  Zn  Zn94  1  0.75050781  0.87477428  0.62658808  1
  Zn  Zn95  1  0.50378360  0.62205940  0.62893626  1
  Zn  Zn96  1  0.12743252  0.24835689  0.37027152  1
  Zn  Zn97  1  0.87201060  0.74902698  0.62592575  1
  Zn  Zn98  1  0.48940150  0.88487004  0.36910688  1
  Zn  Zn99  1  0.25026837  0.49933808  0.24798736  1
  Zn  Zn100  1  0.88844149  0.87665601  0.01097517  1
  Zn  Zn101  1  0.50629334  0.11218600  0.13369051  1
  Zn  Zn102  1  0.49958860  0.37531890  0.37333180  1
  Zn  Zn103  1  0.35274278  0.06676590  0.81256761  1
  Zn  Zn104  1  -0.00734429  0.11295043  0.11897171  1
  Zn  Zn105  1  0.74459202  0.00260127  0.24770437  1
  Zn  Zn106  1  0.87340853  0.25273844  0.62460513  1
  Zn  Zn107  1  0.19064473  0.18120646  0.18367255  1
  Zn  Zn108  1  0.18497151  0.19276426  0.68302534  1
  Zn  Zn109  1  0.18112103  0.68782827  0.18729790  1
  Zn  Zn110  1  0.18499695  0.68714084  0.68976062  1
  Zn  Zn111  1  0.68660742  0.19008135  0.18461959  1
  Zn  Zn112  1  0.69081587  0.19156039  0.68793512  1
  Zn  Zn113  1  0.68198893  0.69268142  0.18285533  1
  Zn  Zn114  1  0.68704765  0.68870315  0.68533780  1
  Zn  Zn115  1  0.31206989  0.31030095  0.30937788  1
  Zn  Zn116  1  0.31306324  0.30989762  0.80994002  1
  Zn  Zn117  1  0.31125030  0.81200418  0.31642386  1
  Zn  Zn118  1  0.31090401  0.80426003  0.81455826  1
  Zn  Zn119  1  0.81078434  0.31314894  0.31115817  1
  Zn  Zn120  1  0.81116103  0.31445290  0.81012244  1
  Zn  Zn121  1  0.80798115  0.81531643  0.31323526  1
  Zn  Zn122  1  0.81565139  0.81445220  0.81479921  1
  Zn  Zn123  1  0.18791133  0.43701415  0.43517768  1
  Zn  Zn124  1  0.19068367  0.43554098  0.93851474  1
  Zn  Zn125  1  0.18954554  0.93961455  0.44002603  1
  Zn  Zn126  1  0.18547539  0.93295893  0.93580845  1
  Zn  Zn127  1  0.68775774  0.44085514  0.43179045  1
  Zn  Zn128  1  0.68743814  0.44511178  0.94206798  1
  Zn  Zn129  1  0.67976258  0.93772236  0.43658613  1
  Zn  Zn130  1  0.69395105  0.94194759  0.93740664  1
  Zn  Zn131  1  0.30511949  0.06609363  -0.03128112  1
  Zn  Zn132  1  0.31022833  0.05894761  0.65131757  1
  Zn  Zn133  1  0.31631941  0.55711867  0.06209983  1
  Zn  Zn134  1  0.31312751  0.56520527  0.56250207  1
  Zn  Zn135  1  0.81084493  0.05870015  0.06277462  1
  Zn  Zn136  1  0.81109312  0.06276549  0.56514772  1
  Zn  Zn137  1  0.81019453  0.56378097  0.05818037  1
  Zn  Zn138  1  0.80846526  0.56170625  0.55683041  1
  Zn  Zn139  1  0.44362093  0.43876079  0.18867032  1
  Zn  Zn140  1  0.44007050  0.43810151  0.69035711  1
  Zn  Zn141  1  0.43577809  0.93681162  0.17854262  1
  Zn  Zn142  1  0.44460904  0.93128767  0.68571578  1
  Zn  Zn143  1  0.93813048  0.43507385  0.18344708  1
  Zn  Zn144  1  0.93275928  0.43962428  0.68581358  1
  Zn  Zn145  1  0.93320141  0.93563811  0.18568454  1
  Zn  Zn146  1  0.94339231  0.93437937  0.68562982  1
  Zn  Zn147  1  0.06263899  0.06031319  0.30962997  1
  Zn  Zn148  1  0.18115408  0.06102649  0.80952649  1
  Zn  Zn149  1  0.05975270  0.56160902  0.31009883  1
  Zn  Zn150  1  0.06222635  0.56392384  0.81073097  1
  Zn  Zn151  1  0.55654270  0.06232027  0.31961476  1
  Zn  Zn152  1  0.56612192  0.06013868  0.82169297  1
  Zn  Zn153  1  0.55984116  0.56683884  0.31646872  1
  Zn  Zn154  1  0.56321767  0.55764319  0.81498889  1
  Zn  Zn155  1  0.44049389  0.18963526  0.44325437  1
  Zn  Zn156  1  0.44748495  0.19713262  0.93717798  1
  Zn  Zn157  1  0.43636767  0.68969616  0.43540331  1
  Zn  Zn158  1  0.43391507  0.68644102  0.93737363  1
  Zn  Zn159  1  0.93616153  0.19104396  0.43314850  1
  Zn  Zn160  1  0.94169552  0.18717524  0.93677493  1
  Zn  Zn161  1  0.93414846  0.68805531  0.43432195  1
  Zn  Zn162  1  0.93569583  0.68914983  0.93760513  1
  Zn  Zn163  1  0.06119681  0.30974402  0.06219310  1
  Zn  Zn164  1  0.06241106  0.31286528  0.55964599  1
  Zn  Zn165  1  0.06563749  0.80771033  0.06228331  1
  Zn  Zn166  1  0.05852915  0.81166694  0.56380765  1
  Zn  Zn167  1  0.56277930  0.30632189  0.06443274  1
  Zn  Zn168  1  0.55969039  0.31161286  0.56275455  1
  Zn  Zn169  1  0.56334281  0.81272807  0.06204392  1
  Zn  Zn170  1  0.55854100  0.81077820  0.56853229  1
  O  O171  1  0.11891035  0.11441808  0.12029310  1
  O  O172  1  0.11338416  0.12041308  0.61209925  1
  O  O173  1  0.11944977  0.61584481  0.11840006  1
  O  O174  1  0.11836938  0.61742552  0.61971717  1
  O  O175  1  0.62261644  0.13166169  0.10948468  1
  O  O176  1  0.62171496  0.12144140  0.62059495  1
  O  O177  1  0.61127665  0.62612148  0.11778191  1
  O  O178  1  0.62421080  0.62728648  0.60827303  1
  O  O179  1  0.37383256  0.38440229  0.37902856  1
  O  O180  1  0.36670146  0.39072739  0.87151652  1
  O  O181  1  0.37374543  0.86738145  0.39440293  1
  O  O182  1  0.37261603  0.86819470  0.88793188  1
  O  O183  1  0.87237182  0.38281180  0.38430467  1
  O  O184  1  0.87941976  0.38387717  0.87855993  1
  O  O185  1  0.88109270  0.87305179  0.38607475  1
  O  O186  1  0.89075087  0.87729101  0.87506915  1
  O  O187  1  0.24529580  0.00820660  0.36681349  1
  O  O188  1  0.25144801  0.00674641  0.88224096  1
  O  O189  1  0.25991073  0.50683558  0.37385084  1
  O  O190  1  0.26268123  0.50963717  0.88521059  1
  O  O191  1  0.74363279  0.01372486  0.37366929  1
  O  O192  1  0.75986152  0.00703282  0.87161783  1
  O  O193  1  0.75865534  0.51196731  0.37638707  1
  O  O194  1  0.75547294  0.51038954  0.86971953  1
  O  O195  1  0.24454345  0.48804563  0.12469416  1
  O  O196  1  0.24522891  0.48808506  0.61796384  1
  O  O197  1  0.23410106  0.98621797  0.13864746  1
  O  O198  1  0.22806450  0.99713911  0.60232627  1
  O  O199  1  0.75220920  0.48673731  0.11836608  1
  O  O200  1  0.75477312  0.49422573  0.63336397  1
  O  O201  1  0.74570255  0.98417431  0.12843298  1
  O  O202  1  0.73864535  0.99985165  0.62964974  1
  O  O203  1  0.00772217  0.36644015  0.24866175  1
  O  O204  1  0.00476332  0.36997509  0.75111617  1
  O  O205  1  0.00372496  0.86960012  0.25658417  1
  O  O206  1  0.00607005  0.86682504  0.75883710  1
  O  O207  1  0.50932428  0.36572754  0.25149892  1
  O  O208  1  0.51988683  0.37928195  0.74630395  1
  O  O209  1  0.50270278  0.86862323  0.24778621  1
  O  O210  1  0.50944782  0.86477820  0.75333841  1
  O  O211  1  0.50952277  0.13904337  0.24906920  1
  O  O212  1  0.50972993  0.12782967  0.74313380  1
  O  O213  1  0.49347771  0.63077315  0.24267077  1
  O  O214  1  0.49446896  0.62781251  0.75034304  1
  O  O215  1  0.99145408  0.13100422  0.24777321  1
  O  O216  1  0.99471868  0.13601914  0.73697557  1
  O  O217  1  1.00578717  0.63542708  0.24005774  1
  O  O218  1  1.00437099  0.63286420  0.73905481  1
  O  O219  1  0.37471017  0.24978789  0.02084714  1
  O  O220  1  0.37268260  0.25978214  0.50975674  1
  O  O221  1  0.36215105  0.75326761  0.00073315  1
  O  O222  1  0.36648958  0.74839534  0.50920826  1
  O  O223  1  0.87171260  0.25468715  0.00763253  1
  O  O224  1  0.86884070  0.26100449  0.49816016  1
  O  O225  1  0.86180312  0.75493328  -0.00287462  1
  O  O226  1  0.86482232  0.75793317  0.49866617  1
  O  O227  1  0.12918938  0.24187551  0.49646265  1
  O  O228  1  0.12261294  0.24492872  0.98942375  1
  O  O229  1  0.13048752  0.74659469  0.49738508  1
  O  O230  1  0.13617874  0.73900881  0.99793922  1
  O  O231  1  0.63009636  0.24545857  0.49272744  1
  O  O232  1  0.63687992  0.24369272  1.00405514  1
  O  O233  1  0.62809474  0.74688777  0.49293788  1
  O  O234  1  0.63246666  0.73910727  1.00119351  1
  O  O235  1  0.48856755  0.24881131  0.13297107  1
  O  O236  1  0.49451645  0.24368636  0.62963334  1
  O  O237  1  0.50050869  0.74234515  0.13564464  1
  O  O238  1  0.49095888  0.74296683  0.63666463  1
  O  O239  1  0.98702509  0.25129801  0.13387111  1
  O  O240  1  0.99949495  0.24402522  0.62984127  1
  O  O241  1  1.00370548  0.74069906  0.13430244  1
  O  O242  1  0.99724416  0.73999859  0.63023763  1
  O  O243  1  0.00150598  0.25381490  0.36009518  1
  O  O244  1  0.00857388  0.25778675  0.86542654  1
  O  O245  1  0.00478550  0.75912670  0.37090422  1
  O  O246  1  0.00389656  0.74648780  0.86463670  1
  O  O247  1  0.50803052  0.25219701  0.36979571  1
  O  O248  1  0.50699537  0.26399723  0.87797988  1
  O  O249  1  0.50531963  0.75184579  0.36382934  1
  O  O250  1  0.49447673  0.75104445  0.86273233  1
  O  O251  1  0.23809104  0.13219759  0.49038366  1
  O  O252  1  0.22603196  0.13605660  1.01350655  1
  O  O253  1  0.24350479  0.63299512  0.49441881  1
  O  O254  1  0.24678362  0.62770724  0.99832134  1
  O  O255  1  0.74248374  0.13103641  0.49556822  1
  O  O256  1  0.74100321  0.13150998  1.00265473  1
  O  O257  1  0.74185824  0.63280708  0.49106255  1
  O  O258  1  0.74173606  0.63221673  0.99445416  1
  O  O259  1  0.24214457  0.36697482  0.01719971  1
  O  O260  1  0.25411113  0.36886397  0.50505251  1
  O  O261  1  0.25246861  0.86472930  0.00665893  1
  O  O262  1  0.25607058  0.86092073  0.49683765  1
  O  O263  1  0.75247539  0.36834021  0.00517636  1
  O  O264  1  0.75491973  0.37497974  0.50378832  1
  O  O265  1  0.74561471  0.86768452  0.01203845  1
  O  O266  1  0.75495237  0.86921984  0.49792765  1
  O  O267  1  0.12569675  0.49106355  0.24257312  1
  O  O268  1  0.11986656  0.48748674  0.74367069  1
  O  O269  1  0.12832954  0.98619236  0.24778342  1
  O  O270  1  0.12443085  0.98426602  0.73937675  1
  O  O271  1  0.61657951  0.48530360  0.25922454  1
  O  O272  1  0.63755346  0.48948018  0.75425628  1
  O  O273  1  0.62240380  0.98739776  0.25486101  1
  O  O274  1  0.62591464  0.99078310  0.74524834  1
  O  O275  1  0.36072808  -0.00986587  0.24748571  1
  O  O276  1  0.37077830  0.00100448  0.72868801  1
  O  O277  1  0.37497448  0.50773703  0.25755638  1
  O  O278  1  0.38233450  0.50973537  0.76260697  1
  O  O279  1  0.87108215  0.01329529  0.24726738  1
  O  O280  1  0.87918708  0.01238544  0.74322214  1
  O  O281  1  0.88056994  0.49382333  0.26236579  1
  O  O282  1  0.86063533  0.49376217  0.75903187  1
  O  O283  1  0.12574923  0.37340815  0.35962909  1
  O  O284  1  0.11898915  0.37251927  0.86669862  1
  O  O285  1  0.11710736  0.87069021  0.36940893  1
  O  O286  1  0.11666363  0.87103442  0.86295130  1
  O  O287  1  0.62611663  0.36420491  0.36846719  1
  O  O288  1  0.63271302  0.37667417  0.86708841  1
  O  O289  1  0.62368642  0.86325869  0.36697132  1
  O  O290  1  0.62700218  0.87659407  0.86478113  1
  O  O291  1  0.37899194  0.13304041  0.12809838  1
  O  O292  1  0.38978068  0.13685666  0.61594144  1
  O  O293  1  0.38105091  0.62095609  0.13676951  1
  O  O294  1  0.37531659  0.63021463  0.63509080  1
  O  O295  1  0.87380567  0.13337626  0.13340215  1
  O  O296  1  0.88583593  0.12942992  0.62660354  1
  O  O297  1  0.88722999  0.61995578  0.12077153  1
  O  O298  1  0.88636393  0.62458519  0.61730840  1
  O  O299  1  0.26386728  0.25749930  0.13253294  1
  O  O300  1  0.25742619  0.26007884  0.61723874  1
  O  O301  1  0.24218130  0.75769150  0.11817491  1
  O  O302  1  0.25684794  0.74117943  0.61639220  1
  O  O303  1  0.76043890  0.25723149  0.11795417  1
  O  O304  1  0.75296860  0.26146550  0.61564394  1
  O  O305  1  0.74682509  0.75879464  0.11628765  1
  O  O306  1  0.75137362  0.75066108  0.61019686  1
  O  O307  1  0.24881217  0.24112041  0.37859629  1
  O  O308  1  0.23434827  0.25823270  0.87448331  1
  O  O309  1  0.24135386  0.74347754  0.38275027  1
  O  O310  1  0.24676598  0.73450689  0.88466194  1
  O  O311  1  0.74241378  0.24381260  0.37974890  1
  O  O312  1  0.76061766  0.24756502  0.88914017  1
  O  O313  1  0.74165168  0.74582702  0.38291566  1
  O  O314  1  0.75488030  0.73882156  0.88008338  1
  O  O315  1  0.01625601  0.13220061  0.00546160  1
  O  O316  1  0.00114546  0.11970153  0.50156477  1
  O  O317  1  0.00496429  0.62076267  0.00590635  1
  O  O318  1  0.00567990  0.62233144  0.50540593  1
  O  O319  1  0.50928971  0.11347183  0.00447313  1
  O  O320  1  0.51445562  0.12917889  0.50976348  1
  O  O321  1  0.50453310  0.62591726  0.00652838  1
  O  O322  1  0.50695343  0.61948724  0.49810041  1
  O  O323  1  0.49401112  0.38305858  0.49600391  1
  O  O324  1  0.50742532  0.38990311  1.00823468  1
  O  O325  1  0.48467798  0.87036933  0.50153085  1
  O  O326  1  0.49016332  0.87825374  0.99994104  1
  O  O327  1  0.99171030  0.38111784  0.49642980  1
  O  O328  1  0.99396325  0.38095682  0.99360642  1
  O  O329  1  0.99293889  0.88140580  0.49234974  1
  O  O330  1  1.00539432  0.86308421  0.98170151  1
  O  O331  1  0.48709571  0.50130132  0.38280353  1
  O  O332  1  0.48885899  0.50238917  0.88794634  1
  O  O333  1  0.50356167  0.99558172  0.38824974  1
  O  O334  1  0.50176998  0.99429712  0.89223046  1
  O  O335  1  0.99225299  0.49943100  0.38132216  1
  O  O336  1  0.99095682  0.49748814  0.87679482  1
  O  O337  1  1.00136502  0.98765921  0.37949018  1
  O  O338  1  1.00102100  0.98540433  0.87355549  1
  O  O339  1  0.01501274  -0.00488248  0.13317462  1
  O  O340  1  0.00537868  0.00835450  0.61502597  1
  O  O341  1  0.00498697  0.50509427  0.11847168  1
  O  O342  1  0.00362779  0.50632486  0.61864684  1
  O  O343  1  0.50229041  -0.00322272  0.10902217  1
  O  O344  1  0.51282135  0.00884247  0.62044549  1
  O  O345  1  0.49268793  0.50983914  0.11071008  1
  O  O346  1  0.49304999  0.50355157  0.60961901  1
  O  O347  1  0.24206368  0.37604574  0.23943879  1
  O  O348  1  0.23933862  0.37006376  0.73856753  1
  O  O349  1  0.24216363  0.87525067  0.24609011  1
  O  O350  1  0.23298399  0.86191152  0.75155963  1
  O  O351  1  0.73940642  0.37109203  0.24099271  1
  O  O352  1  0.74155741  0.38105662  0.74107400  1
  O  O353  1  0.74036614  0.87555860  0.24202144  1
  O  O354  1  0.74424527  0.87391502  0.74636015  1
  O  O355  1  0.24374455  0.11251171  0.26111494  1
  O  O356  1  0.24888527  0.11728056  0.73542766  1
  O  O357  1  0.25551075  0.62425758  0.25373092  1
  O  O358  1  0.25761881  0.62671042  0.76065909  1
  O  O359  1  0.75472718  0.12644652  0.25752318  1
  O  O360  1  0.76456087  0.12837548  0.74958576  1
  O  O361  1  0.74080245  0.63253137  0.26123274  1
  O  O362  1  0.74363555  0.61826934  0.75645900  1
  O  O363  1  0.36619730  0.12630046  0.38333595  1
  O  O364  1  0.36335051  0.13431822  0.89706356  1
  O  O365  1  0.36958456  0.61961802  0.36563606  1
  O  O366  1  0.36810466  0.61723698  0.86876278  1
  O  O367  1  0.86366687  0.13227585  0.36559503  1
  O  O368  1  0.88118243  0.12348281  0.86396013  1
  O  O369  1  0.86412031  0.61658223  0.37747184  1
  O  O370  1  0.86610097  0.61403893  0.87972809  1
  O  O371  1  0.12972306  0.37718642  0.13322706  1
  O  O372  1  0.13122277  0.37979021  0.62960320  1
  O  O373  1  0.13057544  0.87654980  0.13227404  1
  O  O374  1  0.11469862  0.88112255  0.63657958  1
  O  O375  1  0.63297444  0.36980280  0.13594969  1
  O  O376  1  0.63536085  0.37785298  0.62010770  1
  O  O377  1  0.63476927  0.86726913  0.13538929  1
  O  O378  1  0.62552008  0.88320171  0.63177092  1
  O  O379  1  0.11669721  0.25443065  0.24554401  1
  O  O380  1  0.11473290  0.25926498  0.75251122  1
  O  O381  1  0.11804402  0.76108019  0.25598294  1
  O  O382  1  0.11381743  0.75868758  0.74812878  1
  O  O383  1  0.62006823  0.25673639  0.25749570  1
  O  O384  1  0.62799756  0.26732906  0.74682059  1
  O  O385  1  0.61389684  0.75697365  0.25666002  1
  O  O386  1  0.61652325  0.75781873  0.74383529  1
  O  O387  1  0.38573977  0.25610717  0.23996377  1
  O  O388  1  0.38075705  0.25557271  0.73708293  1
  O  O389  1  0.38166798  0.74133011  0.25573913  1
  O  O390  1  0.38000560  0.73880415  0.74538824  1
  O  O391  1  0.87999997  0.24482102  0.24302296  1
  O  O392  1  0.88684898  0.24791811  0.74765129  1
  O  O393  1  0.88709105  0.75257282  0.25846399  1
  O  O394  1  0.88736363  0.75360944  0.74478109  1
  O  O395  1  0.37929827  0.49686752  0.49221205  1
  O  O396  1  0.38788218  0.50316019  0.98884974  1
  O  O397  1  0.37112545  0.97937882  0.51370495  1
  O  O398  1  0.38344100  0.98823761  1.00487774  1
  O  O399  1  0.88000909  0.49432761  0.49206648  1
  O  O400  1  0.87864572  0.49369444  0.98997749  1
  O  O401  1  0.88429941  0.99566993  0.50207810  1
  O  O402  1  0.88092093  0.99179581  1.00904402  1
  O  O403  1  0.12688996  0.01004798  0.00748542  1
  O  O404  1  0.10977748  0.00491726  0.50085562  1
  O  O405  1  0.11787308  0.50302813  0.00424655  1
  O  O406  1  0.11798482  0.50385117  0.50356554  1
  O  O407  1  0.62017825  0.00800455  0.00210374  1
  O  O408  1  0.62739646  0.01028390  0.50979530  1
  O  O409  1  0.61024925  0.51283650  -0.00384629  1
  O  O410  1  0.61388303  0.51071032  0.48739945  1
  O  O411  1  0.36231931  0.37835451  0.12973183  1
  O  O412  1  0.36854335  0.37264060  0.62180447  1
  O  O413  1  0.35969903  0.87377754  0.11537787  1
  O  O414  1  0.37741147  0.85690494  0.61727045  1
  O  O415  1  0.86783242  0.36835407  0.11848166  1
  O  O416  1  0.86758149  0.37645623  0.61132069  1
  O  O417  1  0.85789101  0.87009249  0.12965134  1
  O  O418  1  0.87483715  0.87379874  0.61037555  1
  O  O419  1  0.12309049  0.12527322  0.38467742  1
  O  O420  1  0.12197199  0.13274498  0.88487440  1
  O  O421  1  0.12835237  0.62969082  0.38046231  1
  O  O422  1  0.13338042  0.62035871  0.88249706  1
  O  O423  1  0.63125357  0.13542187  0.38325753  1
  O  O424  1  0.62861347  0.12460956  0.89459960  1
  O  O425  1  0.62865044  0.63730734  0.38096070  1
  O  O426  1  0.63375708  0.62200640  0.88278213  1
