# generated using pymatgen
data_V85Zn86O256
_symmetry_space_group_name_H-M   'P 1'
_cell_length_a   16.93967849
_cell_length_b   16.93549156
_cell_length_c   16.94142633
_cell_angle_alpha   89.98955519
_cell_angle_beta   89.98280749
_cell_angle_gamma   89.99111900
_symmetry_Int_Tables_number   1
_chemical_formula_structural   V85Zn86O256
_chemical_formula_sum   'V85 Zn86 O256'
_cell_volume   4860.18621656
_cell_formula_units_Z   1
loop_
 _symmetry_equiv_pos_site_id
 _symmetry_equiv_pos_as_xyz
  1  'x, y, z'
loop_
 _atom_site_type_symbol
 _atom_site_label
 _atom_site_symmetry_multiplicity
 _atom_site_fract_x
 _atom_site_fract_y
 _atom_site_fract_z
 _atom_site_occupancy
  V  V0  1  0.38154174  0.49386427  0.37237063  1
  V  V1  1  0.49724202  0.25181053  0.25618276  1
  V  V2  1  0.75671858  0.62493594  0.86805427  1
  V  V3  1  0.87585833  0.76236038  0.12316497  1
  V  V4  1  0.50060255  0.49996014  -0.00108763  1
  V  V5  1  0.63734021  -0.00567201  0.62332324  1
  V  V6  1  0.00615866  0.11855377  0.12776590  1
  V  V7  1  0.37292380  0.49897225  0.87064747  1
  V  V8  1  0.62798049  0.23685054  0.87705597  1
  V  V9  1  0.12465980  0.75057478  0.87434642  1
  V  V10  1  0.62560046  0.62710668  -0.00143384  1
  V  V11  1  0.36428028  0.24826554  0.62273269  1
  V  V12  1  0.25083517  0.74866082  0.49889369  1
  V  V13  1  0.74987926  0.12370206  0.36995852  1
  V  V14  1  0.87391678  0.00118965  0.37204701  1
  V  V15  1  0.51322611  0.75335546  0.26249957  1
  V  V16  1  0.00228575  0.00132617  0.51589398  1
  V  V17  1  0.24790267  0.37704503  0.12469307  1
  V  V18  1  0.31687484  0.92089329  0.06118142  1
  V  V19  1  0.24365675  0.12793895  0.87093959  1
  V  V20  1  0.12209739  0.11635128  0.00129510  1
  V  V21  1  0.00862861  0.24791398  0.73327612  1
  V  V22  1  0.75409563  0.00267624  0.76368354  1
  V  V23  1  0.49702198  0.12145566  0.12892606  1
  V  V24  1  0.88692502  0.00152303  0.88060522  1
  V  V25  1  0.50142037  0.37256378  0.87455674  1
  V  V26  1  0.61986586  0.37786603  0.25843747  1
  V  V27  1  0.75204436  0.25078309  0.49868141  1
  V  V28  1  0.87524954  0.62732264  0.24507925  1
  V  V29  1  0.37489414  0.25020096  0.12941682  1
  V  V30  1  0.01735103  0.50271009  0.00390622  1
  V  V31  1  0.37368586  0.75106305  0.62373962  1
  V  V32  1  0.12771404  0.24478781  0.38560757  1
  V  V33  1  0.12444888  0.37580991  0.24746763  1
  V  V34  1  0.75099254  0.50048234  0.24864312  1
  V  V35  1  0.49771381  0.75204312  0.74847427  1
  V  V36  1  0.24120071  0.25231038  -0.00492842  1
  V  V37  1  0.00265934  0.37790610  0.37823603  1
  V  V38  1  0.24496237  0.38905037  0.62242221  1
  V  V39  1  0.37520983  0.37358743  -0.00210362  1
  V  V40  1  0.62732314  0.62682545  0.49598415  1
  V  V41  1  0.12100626  0.74952358  0.37571840  1
  V  V42  1  0.74957494  0.25154215  -0.00714650  1
  V  V43  1  0.67489322  0.06894925  0.05608576  1
  V  V44  1  0.87802674  0.37921507  0.00079281  1
  V  V45  1  0.00796931  0.36215995  0.87827726  1
  V  V46  1  0.24526296  0.62152356  0.87477313  1
  V  V47  1  0.01311822  0.62205782  0.12538328  1
  V  V48  1  0.37710395  0.87410938  0.49391634  1
  V  V49  1  0.75438763  0.75881018  -0.00020888  1
  V  V50  1  0.37132444  0.12129455  0.74929549  1
  V  V51  1  0.74613835  0.76045220  0.49319562  1
  V  V52  1  0.75004185  0.37589764  0.62356901  1
  V  V53  1  0.62490452  0.12655786  0.49983202  1
  V  V54  1  0.75050274  0.37495159  0.12463329  1
  V  V55  1  0.37833643  0.74813051  0.12153540  1
  V  V56  1  0.87785491  0.50303567  0.37792252  1
  V  V57  1  -0.00036080  0.24723730  0.25160901  1
  V  V58  1  0.86217304  0.74699056  0.63365147  1
  V  V59  1  0.24651770  0.50085654  0.24414568  1
  V  V60  1  0.49996714  -0.00490039  0.49658437  1
  V  V61  1  0.63251352  0.89389338  0.25539682  1
  V  V62  1  0.12953416  0.11970266  0.51094624  1
  V  V63  1  0.50222283  0.49482026  0.49994647  1
  V  V64  1  0.25050139  0.12317110  0.36544562  1
  V  V65  1  0.23951591  -0.00178496  0.74381327  1
  V  V66  1  0.49131288  0.87560673  0.87786248  1
  V  V67  1  0.62728320  0.37410026  0.75012449  1
  V  V68  1  0.49980235  0.24702539  0.74937790  1
  V  V69  1  0.37729929  0.62653203  0.24922117  1
  V  V70  1  -0.00399352  0.73791558  0.74883395  1
  V  V71  1  0.37048471  0.62048972  0.74853424  1
  V  V72  1  0.62255332  0.75057122  0.87402590  1
  V  V73  1  0.62535268  0.49963461  0.12392801  1
  V  V74  1  0.50056833  -0.00007770  0.00243730  1
  V  V75  1  0.13177633  0.38595691  0.75485677  1
  V  V76  1  0.37563882  0.36819574  0.49750760  1
  V  V77  1  0.49756543  0.12316884  0.62349801  1
  V  V78  1  0.00069828  0.87819503  0.37750937  1
  V  V79  1  0.24699175  0.74250131  0.00518605  1
  V  V80  1  0.23616220  0.87534525  0.62210559  1
  V  V81  1  0.37486021  -0.00009084  0.36702056  1
  V  V82  1  0.13126394  0.88099235  0.24003741  1
  V  V83  1  0.24834914  0.62381810  0.37653968  1
  V  V84  1  0.88435163  0.37986265  0.50331075  1
  Zn  Zn85  1  0.11307591  0.87513333  0.74379944  1
  Zn  Zn86  1  0.50034163  0.62339590  0.62423737  1
  Zn  Zn87  1  0.62391289  0.50066507  0.62620734  1
  Zn  Zn88  1  0.74580636  0.63067080  0.37159283  1
  Zn  Zn89  1  0.61887315  0.25543100  0.37904516  1
  Zn  Zn90  1  0.88276423  0.24685125  0.62277581  1
  Zn  Zn91  1  -0.00051138  0.61379415  0.61979754  1
  Zn  Zn92  1  0.25192162  -0.00189776  0.24012753  1
  Zn  Zn93  1  0.87094654  0.87757221  0.50579901  1
  Zn  Zn94  1  0.74528502  0.88591660  0.12657803  1
  Zn  Zn95  1  0.37010044  -0.00434008  0.87402551  1
  Zn  Zn96  1  0.00004764  0.75183715  0.24884283  1
  Zn  Zn97  1  -0.01270666  0.86455151  0.87866954  1
  Zn  Zn98  1  0.75346132  0.50603400  0.74644084  1
  Zn  Zn99  1  0.62601069  0.87419208  0.74405201  1
  Zn  Zn100  1  0.50364670  0.62755899  0.12635165  1
  Zn  Zn101  1  0.11608090  0.60274237  0.50510628  1
  Zn  Zn102  1  0.88431343  0.50594379  0.87454761  1
  Zn  Zn103  1  0.87847683  0.12840072  0.74686765  1
  Zn  Zn104  1  0.87322596  0.12362387  0.25104004  1
  Zn  Zn105  1  0.00437002  -0.01833668  0.01186618  1
  Zn  Zn106  1  0.87697531  0.25002021  0.12435536  1
  Zn  Zn107  1  0.18587591  0.18700795  0.18889605  1
  Zn  Zn108  1  0.18354596  0.19540090  0.68850460  1
  Zn  Zn109  1  0.18989108  0.69400532  0.19080187  1
  Zn  Zn110  1  0.18256352  0.68106103  0.68581245  1
  Zn  Zn111  1  0.68811244  0.19653173  0.19085141  1
  Zn  Zn112  1  0.69068333  0.18470360  0.68564236  1
  Zn  Zn113  1  0.68999742  0.68987245  0.18417759  1
  Zn  Zn114  1  0.68335590  0.68723532  0.68286944  1
  Zn  Zn115  1  0.31019282  0.30981611  0.31398851  1
  Zn  Zn116  1  0.30992866  0.31164964  0.80922002  1
  Zn  Zn117  1  0.31354593  0.81311617  0.30901459  1
  Zn  Zn118  1  0.30871386  0.81172295  0.81137882  1
  Zn  Zn119  1  0.81304495  0.31359055  0.31529808  1
  Zn  Zn120  1  0.82064542  0.32042318  0.81096788  1
  Zn  Zn121  1  0.80951112  0.81733601  0.31213250  1
  Zn  Zn122  1  0.80961781  0.81897318  0.80800853  1
  Zn  Zn123  1  0.19764406  0.42978109  0.43111871  1
  Zn  Zn124  1  0.18899624  0.43896724  0.93423972  1
  Zn  Zn125  1  0.18656130  0.93845273  0.43547230  1
  Zn  Zn126  1  0.18059609  0.93794355  0.92937071  1
  Zn  Zn127  1  0.69153978  0.44154558  0.43714447  1
  Zn  Zn128  1  0.68776275  0.43665707  0.93466891  1
  Zn  Zn129  1  0.68403685  0.93812271  0.43065826  1
  Zn  Zn130  1  0.68741815  0.93133392  0.92729891  1
  Zn  Zn131  1  0.31553451  0.08189187  0.06115828  1
  Zn  Zn132  1  0.30768741  0.05980810  0.55895190  1
  Zn  Zn133  1  0.31314698  0.56353459  0.06139929  1
  Zn  Zn134  1  0.31474621  0.56231151  0.55940709  1
  Zn  Zn135  1  0.83507943  0.06664098  0.06174863  1
  Zn  Zn136  1  0.81931686  0.06704079  0.56308976  1
  Zn  Zn137  1  0.81519009  0.56575259  0.05964199  1
  Zn  Zn138  1  0.81379026  0.56547295  0.56319777  1
  Zn  Zn139  1  0.43831511  0.43733142  0.18532389  1
  Zn  Zn140  1  0.43726142  0.43621015  0.68509691  1
  Zn  Zn141  1  0.45306379  0.93604663  0.19415031  1
  Zn  Zn142  1  0.43319787  0.93678100  0.68338571  1
  Zn  Zn143  1  0.93976751  0.43877619  0.18633273  1
  Zn  Zn144  1  0.93411767  0.43921648  0.69646622  1
  Zn  Zn145  1  0.93949120  0.93728849  0.19381856  1
  Zn  Zn146  1  0.93062345  0.92475698  0.69186624  1
  Zn  Zn147  1  0.06436669  0.05823321  0.31346736  1
  Zn  Zn148  1  0.06346290  0.06637347  0.81075177  1
  Zn  Zn149  1  0.06188319  0.56245692  0.31450534  1
  Zn  Zn150  1  0.06105390  0.56202628  0.81342743  1
  Zn  Zn151  1  0.56026056  0.06683024  0.31474523  1
  Zn  Zn152  1  0.56096286  0.05819970  0.81047835  1
  Zn  Zn153  1  0.56138289  0.56547156  0.31336771  1
  Zn  Zn154  1  0.56271178  0.56236387  0.81076601  1
  Zn  Zn155  1  0.43354378  0.18296172  0.43684815  1
  Zn  Zn156  1  0.43478498  0.18466888  0.93760857  1
  Zn  Zn157  1  0.43838621  0.68247560  0.43687228  1
  Zn  Zn158  1  0.43458601  0.68811896  0.93791133  1
  Zn  Zn159  1  0.94122490  0.18591152  0.44312981  1
  Zn  Zn160  1  0.93484248  0.18285198  0.93475338  1
  Zn  Zn161  1  0.93170555  0.68832390  0.43972572  1
  Zn  Zn162  1  0.93951039  0.68698543  0.94328935  1
  Zn  Zn163  1  0.06302265  0.30965627  0.06572145  1
  Zn  Zn164  1  0.06453871  0.44352941  0.56454530  1
  Zn  Zn165  1  0.06332656  0.80625609  0.05974855  1
  Zn  Zn166  1  0.05325887  0.79115098  0.55663914  1
  Zn  Zn167  1  0.56458072  0.31074581  0.06398997  1
  Zn  Zn168  1  0.56002141  0.31200648  0.56363732  1
  Zn  Zn169  1  0.56434940  0.81687844  0.06821691  1
  Zn  Zn170  1  0.56229865  0.81226681  0.55913961  1
  O  O171  1  0.11935769  0.12870438  0.11505643  1
  O  O172  1  0.13592759  0.12722802  0.60911217  1
  O  O173  1  0.11214872  0.63066611  0.13468192  1
  O  O174  1  0.11938369  0.62374084  0.61822444  1
  O  O175  1  0.62004972  0.12779016  0.12122397  1
  O  O176  1  0.61862736  0.11485003  0.61870587  1
  O  O177  1  0.62614020  0.61840032  0.11434985  1
  O  O178  1  0.62082517  0.61988888  0.61295512  1
  O  O179  1  0.36669852  0.38125756  0.38555432  1
  O  O180  1  0.37988081  0.37852126  0.87783782  1
  O  O181  1  0.36807505  0.88114577  0.38719733  1
  O  O182  1  0.38669508  0.87399061  0.87262078  1
  O  O183  1  0.87975996  0.38368350  0.38175934  1
  O  O184  1  0.88796860  0.37193955  0.89199177  1
  O  O185  1  0.88271497  0.88244608  0.37935784  1
  O  O186  1  0.87027332  0.89491619  0.87042210  1
  O  O187  1  0.25829586  0.00479853  0.37155019  1
  O  O188  1  0.25183905  0.00691324  0.86532947  1
  O  O189  1  0.26119914  0.50487009  0.36330281  1
  O  O190  1  0.26038574  0.50912144  0.87918506  1
  O  O191  1  0.76018865  0.01299954  0.38640863  1
  O  O192  1  0.75405645  0.00407562  0.86756868  1
  O  O193  1  0.76160159  0.50182768  0.36501594  1
  O  O194  1  0.74580624  0.51942508  0.87934438  1
  O  O195  1  0.25559143  0.49634879  0.13737885  1
  O  O196  1  0.25982833  0.48699825  0.62673960  1
  O  O197  1  0.26529860  0.98945220  0.11727374  1
  O  O198  1  0.25273098  0.98811063  0.63131380  1
  O  O199  1  0.74595344  0.49531662  0.12854248  1
  O  O200  1  0.74856084  0.48713791  0.62551922  1
  O  O201  1  0.74067183  1.00948303  0.10768963  1
  O  O202  1  0.73810223  1.00110414  0.62116416  1
  O  O203  1  0.00780502  0.37005047  0.25541860  1
  O  O204  1  0.01250336  0.36831332  0.76124715  1
  O  O205  1  0.00941315  0.87408896  0.26154319  1
  O  O206  1  -0.00201019  0.85795240  0.75873374  1
  O  O207  1  0.50919740  0.36660651  0.24291936  1
  O  O208  1  0.50886969  0.36797885  0.75299355  1
  O  O209  1  0.51501562  0.86037882  0.24983195  1
  O  O210  1  0.49797110  0.86772064  0.75543813  1
  O  O211  1  0.50600253  0.13559276  0.23678198  1
  O  O212  1  0.49096746  0.12611393  0.74340784  1
  O  O213  1  0.49368582  0.63329666  0.24821986  1
  O  O214  1  0.49001927  0.63394923  0.75055275  1
  O  O215  1  1.00326551  0.13221027  0.24584720  1
  O  O216  1  1.00641325  0.14442771  0.75203820  1
  O  O217  1  0.99234882  0.62598391  0.24302253  1
  O  O218  1  0.99662657  0.63387047  0.75224240  1
  O  O219  1  0.36712608  0.25400698  0.00925838  1
  O  O220  1  0.38315166  0.26029202  0.50765367  1
  O  O221  1  0.36922660  0.74794992  0.01322389  1
  O  O222  1  0.37068668  0.75490088  0.50165290  1
  O  O223  1  0.86614929  0.25490270  0.00091436  1
  O  O224  1  0.86758605  0.26010190  0.49820258  1
  O  O225  1  0.86568763  0.74522383  0.00996119  1
  O  O226  1  0.85796185  0.75326963  0.50656683  1
  O  O227  1  0.12016564  0.23168998  0.48670643  1
  O  O228  1  0.13798267  0.24440283  1.00419024  1
  O  O229  1  0.13729165  0.75803684  0.48374396  1
  O  O230  1  0.13980917  0.74807671  0.99213736  1
  O  O231  1  0.62994129  0.24604981  0.49801813  1
  O  O232  1  0.63505999  0.25680766  0.98962364  1
  O  O233  1  0.63637853  0.74270661  0.50582926  1
  O  O234  1  0.62866237  0.74284279  0.99543635  1
  O  O235  1  0.49333796  0.24415738  0.12909211  1
  O  O236  1  0.49095265  0.24315159  0.63122691  1
  O  O237  1  0.49260889  0.74760693  0.13167717  1
  O  O238  1  0.49256378  0.74918877  0.63223239  1
  O  O239  1  1.00102425  0.24165275  0.13558470  1
  O  O240  1  1.00401402  0.25675431  0.63555976  1
  O  O241  1  0.99059802  0.73972288  0.12531454  1
  O  O242  1  0.98658742  0.74811224  0.63745738  1
  O  O243  1  0.00718113  0.25602152  0.37054055  1
  O  O244  1  0.00445869  0.26125401  0.88264401  1
  O  O245  1  0.00632462  0.76001962  0.37302694  1
  O  O246  1  0.00899294  0.74270506  0.87123687  1
  O  O247  1  0.49657522  0.24387903  0.35988820  1
  O  O248  1  0.50435422  0.25430231  0.87038078  1
  O  O249  1  0.49296283  0.74712143  0.35991021  1
  O  O250  1  0.50169909  0.75587468  0.86932803  1
  O  O251  1  0.23514457  0.11507530  0.48730562  1
  O  O252  1  0.24310713  0.13301852  0.99156907  1
  O  O253  1  0.25144891  0.62767046  0.48691925  1
  O  O254  1  0.25611925  0.63259623  0.98949665  1
  O  O255  1  0.74505366  0.13473673  0.49354781  1
  O  O256  1  0.74295595  0.13017584  1.00748214  1
  O  O257  1  0.74177442  0.63306757  0.49727606  1
  O  O258  1  0.74024576  0.63388737  0.99259978  1
  O  O259  1  0.25377729  0.36924525  0.00388842  1
  O  O260  1  0.26063559  0.37489096  0.51365825  1
  O  O261  1  0.25253612  0.86929520  -0.00044691  1
  O  O262  1  0.25579025  0.87103739  0.50513968  1
  O  O263  1  0.75866921  0.37049985  0.00270243  1
  O  O264  1  0.75528049  0.36968011  0.50545338  1
  O  O265  1  0.74083814  0.86217826  0.00275705  1
  O  O266  1  0.74544043  0.86351808  0.49768953  1
  O  O267  1  0.13523319  0.48896627  0.25870653  1
  O  O268  1  0.12276901  0.48525606  0.75279108  1
  O  O269  1  0.12787895  0.98576758  0.24923569  1
  O  O270  1  0.13510634  0.99546828  0.75225024  1
  O  O271  1  0.62876467  0.49613033  0.24447774  1
  O  O272  1  0.62860251  0.48863907  0.74905250  1
  O  O273  1  0.61903940  0.99339471  0.25020801  1
  O  O274  1  0.63177617  1.00074172  0.73833449  1
  O  O275  1  0.37763042  -0.00985505  0.26384754  1
  O  O276  1  0.36395453  0.00755235  0.74787805  1
  O  O277  1  0.37104595  0.50340351  0.25534174  1
  O  O278  1  0.38240718  0.50946398  0.75719518  1
  O  O279  1  0.87860269  0.00371178  0.26694843  1
  O  O280  1  0.86422482  0.00095500  0.75397633  1
  O  O281  1  0.86992113  0.50658495  0.25300722  1
  O  O282  1  0.85899776  0.47202786  0.76969678  1
  O  O283  1  0.12553237  0.36183669  0.36496506  1
  O  O284  1  0.12466921  0.37532712  0.86382511  1
  O  O285  1  0.11845550  0.86990599  0.36840401  1
  O  O286  1  0.13142155  0.85708454  0.86657410  1
  O  O287  1  0.62837188  0.37736062  0.36202221  1
  O  O288  1  0.62061287  0.36765848  0.86659698  1
  O  O289  1  0.62676061  0.87519478  0.35672983  1
  O  O290  1  0.61109518  0.86741734  0.86863749  1
  O  O291  1  0.38435896  0.13770449  0.12855082  1
  O  O292  1  0.37529818  0.13140753  0.62653872  1
  O  O293  1  0.37842608  0.63132353  0.13172091  1
  O  O294  1  0.37523101  0.63164842  0.63187037  1
  O  O295  1  0.88732596  0.13312818  0.13361642  1
  O  O296  1  0.87042177  0.13568335  0.63205322  1
  O  O297  1  0.88018306  0.62958080  0.13474637  1
  O  O298  1  0.87567431  0.64193962  0.62071571  1
  O  O299  1  0.25799284  0.25443335  0.11993527  1
  O  O300  1  0.26198359  0.25919378  0.62840610  1
  O  O301  1  0.25973858  0.74564878  0.11596710  1
  O  O302  1  0.25641661  0.75532800  0.61845154  1
  O  O303  1  0.74984530  0.25881234  0.11385009  1
  O  O304  1  0.74558546  0.25945750  0.61232240  1
  O  O305  1  0.76008136  0.74866126  0.11520218  1
  O  O306  1  0.75573759  0.74808838  0.61760592  1
  O  O307  1  0.24071848  0.23779686  0.36910557  1
  O  O308  1  0.25653855  0.24194469  0.88430310  1
  O  O309  1  0.24646372  0.74025128  0.37652897  1
  O  O310  1  0.24731683  0.74179123  0.88222037  1
  O  O311  1  0.74717772  0.24772975  0.38651513  1
  O  O312  1  0.74423683  0.25576870  0.88476910  1
  O  O313  1  0.75420904  0.74852612  0.38932653  1
  O  O314  1  0.74446231  0.74329946  0.87977822  1
  O  O315  1  0.00921859  0.12705642  0.00872094  1
  O  O316  1  0.01218939  0.11028930  0.49854764  1
  O  O317  1  -0.00048511  0.61009923  0.00811842  1
  O  O318  1  0.01133722  0.65140209  0.50577035  1
  O  O319  1  0.49102034  0.11078170  0.00854682  1
  O  O320  1  0.50509054  0.11946521  0.50573054  1
  O  O321  1  0.51194282  0.62118665  -0.00211594  1
  O  O322  1  0.50465511  0.61279721  0.50001800  1
  O  O323  1  0.49146656  0.38540655  0.50275474  1
  O  O324  1  0.49517415  0.37799651  0.99430160  1
  O  O325  1  0.49065964  0.88307408  0.50180172  1
  O  O326  1  0.50615118  0.88912131  0.99421331  1
  O  O327  1  0.98829336  0.37250471  0.49438277  1
  O  O328  1  0.99834129  0.38302167  1.00026470  1
  O  O329  1  1.00254493  0.88343882  0.49141971  1
  O  O330  1  1.00927918  0.87219567  0.98983669  1
  O  O331  1  0.48722537  0.50126983  0.37889702  1
  O  O332  1  0.49502157  0.49274264  0.87987873  1
  O  O333  1  0.49130805  1.00903273  0.38906092  1
  O  O334  1  0.49356197  0.99430970  0.88246238  1
  O  O335  1  0.98583110  0.49271164  0.36701606  1
  O  O336  1  1.00363153  0.49219958  0.89001536  1
  O  O337  1  0.99467186  0.99374626  0.38256813  1
  O  O338  1  0.99214214  0.99642952  0.87025503  1
  O  O339  1  -0.00627147  0.01339039  0.12602018  1
  O  O340  1  -0.00459901  -0.00983457  0.61363669  1
  O  O341  1  -0.00170939  0.50654912  0.11344097  1
  O  O342  1  -0.01348228  0.49830366  0.62097865  1
  O  O343  1  0.49690063  0.00943763  0.11800131  1
  O  O344  1  0.50142639  0.00608980  0.61427347  1
  O  O345  1  0.50669869  0.50291097  0.11665572  1
  O  O346  1  0.50003829  0.50160895  0.61382904  1
  O  O347  1  0.24427582  0.38186295  0.24581075  1
  O  O348  1  0.24022635  0.37200694  0.74028469  1
  O  O349  1  0.23656766  0.87722155  0.25217889  1
  O  O350  1  0.24988723  0.88175812  0.73884595  1
  O  O351  1  0.74381401  0.37972722  0.24402072  1
  O  O352  1  0.73717859  0.36511767  0.74081956  1
  O  O353  1  0.73924064  0.87866910  0.24622703  1
  O  O354  1  0.74225208  0.89495978  0.75060884  1
  O  O355  1  0.24558634  0.11666923  0.25872396  1
  O  O356  1  0.25005391  0.12059294  0.75386817  1
  O  O357  1  0.25505682  0.61913315  0.25789479  1
  O  O358  1  0.26420602  0.63310300  0.75801600  1
  O  O359  1  0.75164295  0.13696617  0.26567267  1
  O  O360  1  0.74804187  0.10658791  0.74511819  1
  O  O361  1  0.75748149  0.61900455  0.25016570  1
  O  O362  1  0.74192082  0.62583260  0.76460624  1
  O  O363  1  0.36246174  0.11372612  0.38055904  1
  O  O364  1  0.36273503  0.12176537  0.86856205  1
  O  O365  1  0.36718680  0.61610102  0.36895549  1
  O  O366  1  0.36861946  0.61997136  0.86803137  1
  O  O367  1  0.86860430  0.11999036  0.37717811  1
  O  O368  1  0.87851595  0.10910596  0.86615353  1
  O  O369  1  0.87473029  0.61978306  0.36270489  1
  O  O370  1  0.85946783  0.62560229  0.88113621  1
  O  O371  1  0.13205931  0.36871787  0.13943198  1
  O  O372  1  0.13991561  0.37857800  0.63215876  1
  O  O373  1  0.12065121  0.86418071  0.14270402  1
  O  O374  1  0.13439062  0.86306497  0.62278642  1
  O  O375  1  0.63083533  0.38140035  0.13277141  1
  O  O376  1  0.63034949  0.37519769  0.63282665  1
  O  O377  1  0.62965880  0.86836932  0.14455515  1
  O  O378  1  0.61550411  0.89206845  0.62541659  1
  O  O379  1  0.11561047  0.25471537  0.25750466  1
  O  O380  1  0.11621267  0.26450299  0.74804371  1
  O  O381  1  0.12510571  0.75859451  0.26275059  1
  O  O382  1  0.11499983  0.74870984  0.75710380  1
  O  O383  1  0.61542681  0.26116323  0.25268373  1
  O  O384  1  0.61923030  0.25383878  0.75494298  1
  O  O385  1  0.61378759  0.73969424  0.25318018  1
  O  O386  1  0.61157120  0.75004908  0.75257158  1
  O  O387  1  0.38184308  0.26142023  0.23705239  1
  O  O388  1  0.37968802  0.24220386  0.74238983  1
  O  O389  1  0.38103978  0.74721807  0.23981460  1
  O  O390  1  0.38288398  0.74468497  0.74573039  1
  O  O391  1  0.89003055  0.25247112  0.25262904  1
  O  O392  1  0.89551488  0.25545479  0.75223599  1
  O  O393  1  0.87507702  0.74337634  0.24309361  1
  O  O394  1  0.87530202  0.75040136  0.74147540  1
  O  O395  1  0.38141467  0.49164371  0.49160798  1
  O  O396  1  0.38192569  0.49403470  0.99316520  1
  O  O397  1  0.38130151  0.99174129  0.49418314  1
  O  O398  1  0.37510746  0.98976384  1.00352508  1
  O  O399  1  0.86576869  0.49226589  0.48828753  1
  O  O400  1  0.88151059  0.49187653  0.99755375  1
  O  O401  1  0.88805614  0.99896922  0.49408259  1
  O  O402  1  0.88486456  1.00245348  0.98541497  1
  O  O403  1  0.12387273  0.01196280  -0.00309991  1
  O  O404  1  0.11393307  0.00813052  0.49765944  1
  O  O405  1  0.11597472  0.49519667  0.00442074  1
  O  O406  1  0.12230544  0.49200177  0.48212344  1
  O  O407  1  0.61975343  0.00689190  -0.00698253  1
  O  O408  1  0.61831999  0.00371124  0.50692743  1
  O  O409  1  0.62063323  0.50605267  0.00286216  1
  O  O410  1  0.61693711  0.50276358  0.50081902  1
  O  O411  1  0.36863167  0.37078191  0.11649249  1
  O  O412  1  0.36810127  0.36784086  0.61991125  1
  O  O413  1  0.37907111  0.86897919  0.12565766  1
  O  O414  1  0.36763839  0.86844913  0.61257764  1
  O  O415  1  0.87166328  0.37248029  0.11592584  1
  O  O416  1  0.86500946  0.36800418  0.61716965  1
  O  O417  1  0.87074921  0.86567323  0.13182240  1
  O  O418  1  0.87472533  0.85522567  0.62028642  1
  O  O419  1  0.13196233  0.12777169  0.37753216  1
  O  O420  1  0.13686327  0.12462066  0.88242482  1
  O  O421  1  0.13322906  0.63315751  0.37297668  1
  O  O422  1  0.13934104  0.63123970  0.86808966  1
  O  O423  1  0.63222567  0.12845535  0.38302688  1
  O  O424  1  0.61778297  0.13798075  0.87175840  1
  O  O425  1  0.62689961  0.61815839  0.39008982  1
  O  O426  1  0.62982462  0.63198293  0.88108286  1
