# generated using pymatgen
data_V85Zn86O256
_symmetry_space_group_name_H-M   'P 1'
_cell_length_a   16.95120845
_cell_length_b   16.95318954
_cell_length_c   16.95762157
_cell_angle_alpha   89.95671938
_cell_angle_beta   89.92863690
_cell_angle_gamma   90.07555664
_symmetry_Int_Tables_number   1
_chemical_formula_structural   V85Zn86O256
_chemical_formula_sum   'V85 Zn86 O256'
_cell_volume   4873.22184432
_cell_formula_units_Z   1
loop_
 _symmetry_equiv_pos_site_id
 _symmetry_equiv_pos_as_xyz
  1  'x, y, z'
loop_
 _atom_site_type_symbol
 _atom_site_label
 _atom_site_symmetry_multiplicity
 _atom_site_fract_x
 _atom_site_fract_y
 _atom_site_fract_z
 _atom_site_occupancy
  V  V0  1  0.50148338  0.49680315  0.49463152  1
  V  V1  1  0.55138693  0.32524133  0.92678397  1
  V  V2  1  0.87007522  0.50048372  0.85695135  1
  V  V3  1  0.61335889  0.38061563  0.26719660  1
  V  V4  1  -0.01030100  0.50121096  -0.00112219  1
  V  V5  1  0.00607930  0.37773661  0.87161720  1
  V  V6  1  0.37935963  0.62209151  0.75205385  1
  V  V7  1  0.12786176  0.75617310  0.86507994  1
  V  V8  1  0.12217569  0.37705976  0.24828242  1
  V  V9  1  0.87010786  0.37417098  0.49525683  1
  V  V10  1  0.87356832  0.24960944  0.62188855  1
  V  V11  1  0.25253840  0.62345666  0.87441380  1
  V  V12  1  0.50300670  0.00204878  0.49904492  1
  V  V13  1  0.37886104  0.63086776  0.25075098  1
  V  V14  1  -0.00073258  0.75919729  0.25390715  1
  V  V15  1  0.00141944  -0.00850988  0.47957168  1
  V  V16  1  -0.00059188  0.62661742  0.12570927  1
  V  V17  1  0.24628515  0.50753202  0.25589817  1
  V  V18  1  0.49837989  0.62434523  0.62263029  1
  V  V19  1  0.50298953  0.25474429  0.75206966  1
  V  V20  1  0.00653992  0.25446974  0.74478078  1
  V  V21  1  0.12800427  0.00224580  0.12678146  1
  V  V22  1  0.37797522  0.87653395  0.49877074  1
  V  V23  1  0.74954746  0.50218950  0.25181303  1
  V  V24  1  0.87475489  0.75579369  0.12209996  1
  V  V25  1  0.87561727  -0.00193107  0.87417961  1
  V  V26  1  0.12368887  0.49907582  0.12398868  1
  V  V27  1  0.37388625  -0.00039915  0.87967486  1
  V  V28  1  0.62669746  0.74890511  0.87682654  1
  V  V29  1  0.62180516  0.49713415  0.12403017  1
  V  V30  1  0.50037621  0.87697142  0.87277385  1
  V  V31  1  0.86866506  0.11122629  0.26471168  1
  V  V32  1  0.38250182  0.48832359  0.87695008  1
  V  V33  1  0.37065386  0.50492132  0.37675397  1
  V  V34  1  0.74231461  0.13807888  0.88661858  1
  V  V35  1  0.25377383  0.74994045  0.00100068  1
  V  V36  1  0.12295202  0.25079510  0.37407035  1
  V  V37  1  0.52137658  0.00505480  0.00265858  1
  V  V38  1  0.74650613  0.75114072  0.50901366  1
  V  V39  1  0.75072383  -0.00109426  0.74902928  1
  V  V40  1  0.86865030  0.87816630  0.49904941  1
  V  V41  1  0.62815174  0.75064779  0.36347244  1
  V  V42  1  0.62748889  0.87526578  0.74421875  1
  V  V43  1  0.87041496  0.63198325  0.25230200  1
  V  V44  1  0.74752458  0.23416198  0.49567551  1
  V  V45  1  -0.00205207  0.50296627  0.49852981  1
  V  V46  1  0.25102804  0.74589235  0.49351279  1
  V  V47  1  0.11883457  -0.00279514  0.62801396  1
  V  V48  1  0.63200036  0.37136858  0.74989716  1
  V  V49  1  0.49657753  0.50295221  -0.00482159  1
  V  V50  1  0.62787200  0.62792206  0.49711288  1
  V  V51  1  -0.00689302  0.75212723  0.74974266  1
  V  V52  1  0.37592942  0.12390004  0.74811239  1
  V  V53  1  0.12213800  0.75485165  0.37618359  1
  V  V54  1  0.62383125  0.23715660  0.37958968  1
  V  V55  1  -0.01179914  0.12721989  0.12373688  1
  V  V56  1  0.24565124  0.87403648  0.62831881  1
  V  V57  1  0.00250495  -0.00338358  -0.00177865  1
  V  V58  1  -0.01141950  0.24992339  0.24996825  1
  V  V59  1  0.87559881  0.12670612  0.74738825  1
  V  V60  1  0.37522695  0.25050673  0.62403223  1
  V  V61  1  0.50622646  0.12523508  0.62232740  1
  V  V62  1  0.12595487  0.62562553  -0.00033057  1
  V  V63  1  0.37811691  0.37482451  0.49783451  1
  V  V64  1  0.87172806  0.50778862  0.37447453  1
  V  V65  1  0.25103971  0.87521223  0.12750860  1
  V  V66  1  0.63137378  0.49871365  0.62744153  1
  V  V67  1  0.12381715  0.49566389  0.62881782  1
  V  V68  1  -0.00921898  0.62531157  0.62958799  1
  V  V69  1  0.12610126  0.25446186  0.86958886  1
  V  V70  1  0.24705672  -0.00350634  0.74852441  1
  V  V71  1  0.24794360  0.12546558  0.87329906  1
  V  V72  1  0.73501263  0.88183181  0.12450136  1
  V  V73  1  0.12612607  0.12816506  -0.00081822  1
  V  V74  1  0.12645156  0.62412490  0.49601539  1
  V  V75  1  0.24730285  0.49233659  0.75111820  1
  V  V76  1  0.25757807  0.25661021  -0.00104679  1
  V  V77  1  0.50198980  0.86863645  0.35791265  1
  V  V78  1  0.48984795  0.24489422  0.25934071  1
  V  V79  1  0.24800431  0.24935283  0.50058902  1
  V  V80  1  0.25679000  0.12506075  0.36592204  1
  V  V81  1  0.25397373  0.37725573  0.12178282  1
  V  V82  1  0.75518726  0.36347219  0.12770333  1
  V  V83  1  0.37354679  0.74909996  0.62471085  1
  V  V84  1  0.63187591  0.00147612  0.62145098  1
  Zn  Zn85  1  0.62709003  0.62763412  0.00391264  1
  Zn  Zn86  1  0.38082775  0.00490719  0.36786599  1
  Zn  Zn87  1  0.00742021  0.87906208  0.86720379  1
  Zn  Zn88  1  0.00086803  0.12225746  0.62051545  1
  Zn  Zn89  1  0.73829589  -0.01434007  0.26163667  1
  Zn  Zn90  1  -0.00283129  0.37711697  0.37250349  1
  Zn  Zn91  1  0.24366176  0.37129710  0.62825163  1
  Zn  Zn92  1  0.37993818  0.25292669  0.12704107  1
  Zn  Zn93  1  0.50581447  0.63452891  0.12987466  1
  Zn  Zn94  1  0.86342446  0.35322999  -0.00173307  1
  Zn  Zn95  1  0.12525522  0.88146382  0.25825945  1
  Zn  Zn96  1  0.75213543  0.74753197  -0.00290375  1
  Zn  Zn97  1  0.25997743  0.00591654  0.24360547  1
  Zn  Zn98  1  0.49800001  0.11621399  0.13108169  1
  Zn  Zn99  1  0.49930433  0.75132479  0.74918758  1
  Zn  Zn100  1  0.12249273  0.12210986  0.49837644  1
  Zn  Zn101  1  0.86413729  0.75015555  0.63171116  1
  Zn  Zn102  1  0.38043482  0.75494863  0.13286472  1
  Zn  Zn103  1  0.87706323  0.87141658  -0.00337023  1
  Zn  Zn104  1  0.37858540  0.87480278  0.00233689  1
  Zn  Zn105  1  0.75818464  0.62390467  0.86741476  1
  Zn  Zn106  1  0.75181049  0.37563416  0.62709831  1
  Zn  Zn107  1  0.18308524  0.19207129  0.18522374  1
  Zn  Zn108  1  0.18591130  0.18222865  0.68480679  1
  Zn  Zn109  1  0.18863212  0.68800207  0.18912813  1
  Zn  Zn110  1  0.18621008  0.68175495  0.68514189  1
  Zn  Zn111  1  0.67395534  0.12130767  0.18738469  1
  Zn  Zn112  1  0.68916323  0.18756026  0.68906298  1
  Zn  Zn113  1  0.69208936  0.68863852  0.18363087  1
  Zn  Zn114  1  0.68684347  0.68200242  0.69345308  1
  Zn  Zn115  1  0.30825669  0.32184516  0.31680257  1
  Zn  Zn116  1  0.31443437  0.31219412  0.81098133  1
  Zn  Zn117  1  0.31017413  0.81727721  0.31452508  1
  Zn  Zn118  1  0.31391519  0.81167944  0.81145677  1
  Zn  Zn119  1  0.80608756  0.31185228  0.31147334  1
  Zn  Zn120  1  0.81721380  0.31530388  0.81269437  1
  Zn  Zn121  1  0.79690624  0.84603757  0.33231833  1
  Zn  Zn122  1  0.81230893  0.81517204  0.81149365  1
  Zn  Zn123  1  0.18758371  0.43605675  0.43788208  1
  Zn  Zn124  1  0.18476318  0.43870841  0.93702164  1
  Zn  Zn125  1  0.18836340  0.93813654  0.43998876  1
  Zn  Zn126  1  0.18916275  0.93573998  0.93954056  1
  Zn  Zn127  1  0.69309399  0.44152710  0.43969318  1
  Zn  Zn128  1  0.69172184  0.43748203  0.94425214  1
  Zn  Zn129  1  0.68475087  0.93639197  0.43946198  1
  Zn  Zn130  1  0.69448230  0.93222905  0.93649085  1
  Zn  Zn131  1  0.31796556  0.07003825  0.06560797  1
  Zn  Zn132  1  0.31303990  0.06275045  0.55845946  1
  Zn  Zn133  1  0.31542854  0.56145470  0.06412660  1
  Zn  Zn134  1  0.30986494  0.56192430  0.56404769  1
  Zn  Zn135  1  0.81207481  0.05986626  0.06101906  1
  Zn  Zn136  1  0.81732300  0.05782339  0.55956567  1
  Zn  Zn137  1  0.80692375  0.56572521  0.06131245  1
  Zn  Zn138  1  0.80914249  0.56618959  0.56134914  1
  Zn  Zn139  1  0.43755807  0.43812584  0.18677018  1
  Zn  Zn140  1  0.43954546  0.43715070  0.68459103  1
  Zn  Zn141  1  0.43584511  0.94347968  0.18512708  1
  Zn  Zn142  1  0.43735360  0.93845325  0.68687628  1
  Zn  Zn143  1  0.93478279  0.43750844  0.18650692  1
  Zn  Zn144  1  0.93930363  0.43331451  0.68289667  1
  Zn  Zn145  1  0.93776752  0.93823160  0.18830453  1
  Zn  Zn146  1  0.93552262  0.92958539  0.68437253  1
  Zn  Zn147  1  0.06626079  0.06851315  0.30857644  1
  Zn  Zn148  1  0.06297307  0.06479991  0.80827275  1
  Zn  Zn149  1  0.05950381  0.56909498  0.31484792  1
  Zn  Zn150  1  0.06208292  0.56718430  0.81181608  1
  Zn  Zn151  1  0.56126988  0.05915967  0.31318817  1
  Zn  Zn152  1  0.56505926  0.06654021  0.81531124  1
  Zn  Zn153  1  0.56100874  0.56513269  0.31573382  1
  Zn  Zn154  1  0.58738419  0.56884053  0.80395719  1
  Zn  Zn155  1  0.44075710  0.18905375  0.43683597  1
  Zn  Zn156  1  0.43345429  0.18259516  0.94220872  1
  Zn  Zn157  1  0.43935681  0.68678080  0.43335178  1
  Zn  Zn158  1  0.44253448  0.68532986  0.94006164  1
  Zn  Zn159  1  0.93836342  0.18311709  0.43771283  1
  Zn  Zn160  1  0.93327372  0.18454822  0.93345638  1
  Zn  Zn161  1  0.93365442  0.69403751  0.43784717  1
  Zn  Zn162  1  0.93686969  0.68356179  0.93296893  1
  Zn  Zn163  1  0.03149156  0.29585033  0.04601573  1
  Zn  Zn164  1  0.05878655  0.31530089  0.55901492  1
  Zn  Zn165  1  0.06560426  0.81298693  0.06230014  1
  Zn  Zn166  1  0.06005396  0.81378033  0.56472898  1
  Zn  Zn167  1  0.60569660  0.27026905  0.10582933  1
  Zn  Zn168  1  0.56405006  0.31291841  0.56065751  1
  Zn  Zn169  1  0.55847106  0.81346074  0.06116224  1
  Zn  Zn170  1  0.56176000  0.81363619  0.56380655  1
  O  O171  1  0.12085844  0.11746520  0.11887212  1
  O  O172  1  0.12330482  0.11264932  0.61838675  1
  O  O173  1  0.11951985  0.61992996  0.12026258  1
  O  O174  1  0.11684196  0.61534696  0.61499661  1
  O  O175  1  0.60263675  0.15776334  0.11512366  1
  O  O176  1  0.61339170  0.11725282  0.63041763  1
  O  O177  1  0.62522894  0.61066133  0.12756005  1
  O  O178  1  0.61499650  0.61678189  0.61673490  1
  O  O179  1  0.36904015  0.38831725  0.39026336  1
  O  O180  1  0.37476499  0.38938574  0.86861541  1
  O  O181  1  0.38686562  0.87282816  0.38309366  1
  O  O182  1  0.38252166  0.88332238  0.87285083  1
  O  O183  1  0.87427760  0.38678150  0.37894629  1
  O  O184  1  0.88805704  0.38299874  0.87905983  1
  O  O185  1  0.88866199  0.85229889  0.40283185  1
  O  O186  1  0.88077034  0.88762340  0.87342781  1
  O  O187  1  0.24667570  0.01765831  0.37730656  1
  O  O188  1  0.25500735  0.00239246  0.86814137  1
  O  O189  1  0.25630574  0.49795211  0.36796675  1
  O  O190  1  0.25612688  0.50534050  0.86845486  1
  O  O191  1  0.76327747  -0.04613751  0.36613345  1
  O  O192  1  0.76034906  0.00593205  0.86735166  1
  O  O193  1  0.75745659  0.50102881  0.36226108  1
  O  O194  1  0.77004539  0.49098325  0.87902150  1
  O  O195  1  0.24342711  0.49530001  0.13133031  1
  O  O196  1  0.24111436  0.49877765  0.63302328  1
  O  O197  1  0.24363174  0.99554564  0.12125844  1
  O  O198  1  0.24293336  0.99308583  0.62641545  1
  O  O199  1  0.74425458  0.49689989  0.13743417  1
  O  O200  1  0.73503305  0.49918086  0.62037589  1
  O  O201  1  0.75618842  0.98451783  0.12440915  1
  O  O202  1  0.73896671  1.00774152  0.63122012  1
  O  O203  1  0.00452188  0.36765316  0.24982030  1
  O  O204  1  -0.00285629  0.36236842  0.75385845  1
  O  O205  1  0.00642873  0.86250645  0.24519761  1
  O  O206  1  0.00302236  0.85752144  0.74912837  1
  O  O207  1  0.51221368  0.38733493  0.26063065  1
  O  O208  1  0.50269739  0.35875032  0.74184012  1
  O  O209  1  0.49740839  0.87528512  0.26033955  1
  O  O210  1  0.50777646  0.87765294  0.75629403  1
  O  O211  1  0.49639693  0.14271844  0.25592968  1
  O  O212  1  0.49559320  0.13350284  0.74437523  1
  O  O213  1  0.48241875  0.61768177  0.24960865  1
  O  O214  1  0.49034618  0.62449978  0.74295678  1
  O  O215  1  0.99099360  0.12999091  0.24401035  1
  O  O216  1  0.99223238  0.13639504  0.74779374  1
  O  O217  1  0.98992258  0.63082228  0.24358460  1
  O  O218  1  1.00442329  0.63681482  0.74065692  1
  O  O219  1  0.35990363  0.25499350  -0.00510331  1
  O  O220  1  0.36923109  0.25725451  0.50352392  1
  O  O221  1  0.36114488  0.75025639  -0.00471911  1
  O  O222  1  0.36848935  0.75408648  0.50383888  1
  O  O223  1  0.92316369  0.25964527  0.01208157  1
  O  O224  1  0.86973304  0.25664997  0.49986080  1
  O  O225  1  0.87923164  0.74976445  0.00693113  1
  O  O226  1  0.86084380  0.74790284  0.50764034  1
  O  O227  1  0.12984167  0.25108800  0.49083262  1
  O  O228  1  0.12718812  0.24526737  0.98817176  1
  O  O229  1  0.12997136  0.74420367  0.49676592  1
  O  O230  1  0.13502874  0.74402570  0.99364877  1
  O  O231  1  0.63209191  0.25517561  0.48822274  1
  O  O232  1  0.60863321  0.27411912  0.98745891  1
  O  O233  1  0.62711371  0.74394379  0.49889715  1
  O  O234  1  0.62886084  0.75487073  0.98926557  1
  O  O235  1  0.49640189  0.27386125  0.15700798  1
  O  O236  1  0.49624343  0.24130462  0.62870139  1
  O  O237  1  0.49130315  0.74682979  0.11787730  1
  O  O238  1  0.49116320  0.74289562  0.62564794  1
  O  O239  1  1.01697954  0.23536832  0.14219827  1
  O  O240  1  0.99457941  0.24776284  0.62840971  1
  O  O241  1  0.99802836  0.74394835  0.13133506  1
  O  O242  1  1.00320400  0.74174447  0.63639397  1
  O  O243  1  0.00806600  0.25097449  0.36947441  1
  O  O244  1  0.00659573  0.25850422  0.86377955  1
  O  O245  1  0.00988448  0.74168476  0.36503515  1
  O  O246  1  0.00810487  0.74780547  0.86281309  1
  O  O247  1  0.51098737  0.25376100  0.37348251  1
  O  O248  1  0.49408117  0.25454073  0.86974235  1
  O  O249  1  0.50756126  0.76200532  0.37792020  1
  O  O250  1  0.49984349  0.76633593  0.87366975  1
  O  O251  1  0.24800658  0.13768731  0.49365907  1
  O  O252  1  0.24426869  0.13565908  0.99225567  1
  O  O253  1  0.23996177  0.63490536  0.50847913  1
  O  O254  1  0.24614214  0.63078117  0.99603160  1
  O  O255  1  0.75780646  0.13507966  0.49977981  1
  O  O256  1  0.75821882  0.12342720  0.98502938  1
  O  O257  1  0.73455487  0.63081332  0.49984174  1
  O  O258  1  0.74458206  0.62680140  0.98848228  1
  O  O259  1  0.23991575  0.36857405  0.00969500  1
  O  O260  1  0.25451539  0.36273953  0.50188773  1
  O  O261  1  0.25131677  0.86553543  0.00733081  1
  O  O262  1  0.26125108  0.87001108  0.50659766  1
  O  O263  1  0.75225756  0.37792671  0.02044142  1
  O  O264  1  0.76136090  0.37051627  0.50108012  1
  O  O265  1  0.75834270  0.87105833  0.00960553  1
  O  O266  1  0.76098969  0.86723543  0.50712967  1
  O  O267  1  0.12869156  0.49926821  0.24761488  1
  O  O268  1  0.13487795  0.50869664  0.74121406  1
  O  O269  1  0.12903786  1.00140416  0.23683672  1
  O  O270  1  0.13528486  1.00359118  0.74179380  1
  O  O271  1  0.63095442  0.49718367  0.25029499  1
  O  O272  1  0.60292176  0.48058461  0.73393108  1
  O  O273  1  0.63583374  1.02635469  0.23980753  1
  O  O274  1  0.63243599  0.99649300  0.74405322  1
  O  O275  1  0.37200402  0.00084972  0.25577103  1
  O  O276  1  0.36908671  0.00475207  0.75749881  1
  O  O277  1  0.36631304  0.50433900  0.25975319  1
  O  O278  1  0.37076897  0.50571762  0.75379866  1
  O  O279  1  0.87492423  0.00910806  0.24967313  1
  O  O280  1  0.87081771  0.00477722  0.75225564  1
  O  O281  1  0.86959598  0.50765145  0.25605902  1
  O  O282  1  0.87604612  0.49262540  0.75817734  1
  O  O283  1  0.12196090  0.36788224  0.36876732  1
  O  O284  1  0.11419834  0.37280887  0.87086186  1
  O  O285  1  0.13111408  0.86011207  0.37694092  1
  O  O286  1  0.12628894  0.86037909  0.87825788  1
  O  O287  1  0.62801802  0.38024605  0.36817300  1
  O  O288  1  0.61993829  0.38106370  0.86766167  1
  O  O289  1  0.60877373  0.86244179  0.38026772  1
  O  O290  1  0.61932933  0.87064508  0.86487576  1
  O  O291  1  0.38725466  0.14027042  0.11497725  1
  O  O292  1  0.38468181  0.12854313  0.62832344  1
  O  O293  1  0.37232988  0.62325381  0.14303654  1
  O  O294  1  0.37908972  0.62791440  0.63150836  1
  O  O295  1  0.88671715  0.12079496  0.12903737  1
  O  O296  1  0.87759105  0.12783282  0.63475810  1
  O  O297  1  0.87974892  0.63461053  0.13108630  1
  O  O298  1  0.88720466  0.62480059  0.62234907  1
  O  O299  1  0.24722714  0.25947220  0.11561908  1
  O  O300  1  0.25423831  0.24976627  0.61741412  1
  O  O301  1  0.25147258  0.75722658  0.11746525  1
  O  O302  1  0.25274021  0.75648422  0.61728903  1
  O  O303  1  0.73526913  0.26773841  0.13422848  1
  O  O304  1  0.75642993  0.25011205  0.61529935  1
  O  O305  1  0.76038947  0.75576150  0.11896685  1
  O  O306  1  0.74514955  0.74147750  0.61615905  1
  O  O307  1  0.24330588  0.24445408  0.38064300  1
  O  O308  1  0.24383027  0.24875422  0.87847930  1
  O  O309  1  0.24497062  0.75203749  0.38900815  1
  O  O310  1  0.24480818  0.74403855  0.87867674  1
  O  O311  1  0.73406009  0.25514408  0.38194781  1
  O  O312  1  0.76249677  0.23676544  0.87431449  1
  O  O313  1  0.73193412  0.75945244  0.38901614  1
  O  O314  1  0.74030846  0.74890650  0.87224707  1
  O  O315  1  0.00696411  0.11324301  0.00556530  1
  O  O316  1  -0.00143567  0.10618392  0.50102847  1
  O  O317  1  0.00618678  0.61859329  0.00415108  1
  O  O318  1  0.00564842  0.62125451  0.50757750  1
  O  O319  1  0.50037732  0.10418666  -0.01334900  1
  O  O320  1  0.49415240  0.11121997  0.50751329  1
  O  O321  1  0.50112908  0.61316008  0.00799214  1
  O  O322  1  0.50634142  0.61937906  0.50450751  1
  O  O323  1  0.48990945  0.38397600  0.50580815  1
  O  O324  1  0.49865839  0.38738999  0.98778902  1
  O  O325  1  0.48930692  0.88362753  0.50262350  1
  O  O326  1  0.49766983  0.88888624  0.98828992  1
  O  O327  1  0.98599633  0.38340776  0.49706180  1
  O  O328  1  1.01040602  0.39219023  0.98711345  1
  O  O329  1  0.99696055  0.88816615  0.50296696  1
  O  O330  1  1.00349186  0.88746367  0.99649043  1
  O  O331  1  0.49081843  0.50498864  0.38885274  1
  O  O332  1  0.49203551  0.50971968  0.88231301  1
  O  O333  1  0.50245168  0.98729818  0.38353589  1
  O  O334  1  0.49378519  0.99330558  0.87647939  1
  O  O335  1  0.99134740  0.50015875  0.38135031  1
  O  O336  1  0.99407413  0.49557053  0.87747061  1
  O  O337  1  1.01077924  0.99589778  0.38168507  1
  O  O338  1  0.99637580  1.00045692  0.87985586  1
  O  O339  1  0.00820671  0.00606973  0.11767117  1
  O  O340  1  0.01268605  -0.00195248  0.63007960  1
  O  O341  1  0.00376627  0.50524759  0.11800286  1
  O  O342  1  0.00503370  0.50666404  0.62012125  1
  O  O343  1  0.49916368  -0.00172003  0.10552936  1
  O  O344  1  0.50715466  0.00677523  0.61983495  1
  O  O345  1  0.50699546  0.49827392  0.11668970  1
  O  O346  1  0.50322211  0.50559460  0.61205443  1
  O  O347  1  0.24111980  0.38630580  0.24563834  1
  O  O348  1  0.25297062  0.38829295  0.74746870  1
  O  O349  1  0.24458153  0.87702326  0.24116861  1
  O  O350  1  0.25706517  0.87967227  0.73614371  1
  O  O351  1  0.74118391  0.38484535  0.24675001  1
  O  O352  1  0.73628699  0.36831580  0.74870073  1
  O  O353  1  0.75588756  0.86782852  0.22663212  1
  O  O354  1  0.74328367  0.88990445  0.75266386  1
  O  O355  1  0.24508783  0.13005053  0.26347198  1
  O  O356  1  0.25687318  0.11873232  0.75433776  1
  O  O357  1  0.25556248  0.61236315  0.24841330  1
  O  O358  1  0.26157009  0.61542484  0.75182658  1
  O  O359  1  0.77066109  0.13018804  0.24594451  1
  O  O360  1  0.75936235  0.11672293  0.75484549  1
  O  O361  1  0.76409774  0.61984663  0.24616445  1
  O  O362  1  0.69885776  0.60602144  0.77222357  1
  O  O363  1  0.35923956  0.12699176  0.38215509  1
  O  O364  1  0.36734089  0.11796752  0.86787325  1
  O  O365  1  0.37520092  0.61422556  0.36751988  1
  O  O366  1  0.37081511  0.62071813  0.86610315  1
  O  O367  1  0.87802224  0.12160979  0.36335592  1
  O  O368  1  0.87433516  0.11538204  0.86323133  1
  O  O369  1  0.87927056  0.61595688  0.36747900  1
  O  O370  1  0.87708281  0.60595751  0.87168873  1
  O  O371  1  0.13200083  0.38420400  0.13396700  1
  O  O372  1  0.12348751  0.39117728  0.61805888  1
  O  O373  1  0.13535995  0.88442043  0.12403566  1
  O  O374  1  0.13706066  0.88195866  0.61907428  1
  O  O375  1  0.63205544  0.38600881  0.14274353  1
  O  O376  1  0.62809670  0.38051219  0.63021321  1
  O  O377  1  0.63671202  0.87422953  0.11995475  1
  O  O378  1  0.61872338  0.88560064  0.63723612  1
  O  O379  1  0.11921224  0.25605537  0.26111187  1
  O  O380  1  0.11728118  0.24463128  0.75438484  1
  O  O381  1  0.11824152  0.74675326  0.26039141  1
  O  O382  1  0.11986625  0.74228018  0.75836895  1
  O  O383  1  0.61303851  0.26792860  0.26777325  1
  O  O384  1  0.61549373  0.25725970  0.74601259  1
  O  O385  1  0.63072841  0.74269209  0.26532944  1
  O  O386  1  0.62003893  0.76232816  0.75419336  1
  O  O387  1  0.38839878  0.26170257  0.26329508  1
  O  O388  1  0.38023666  0.24427465  0.74246419  1
  O  O389  1  0.36429386  0.73305074  0.25490008  1
  O  O390  1  0.37554465  0.73995760  0.74323243  1
  O  O391  1  0.88639708  0.24663775  0.25736025  1
  O  O392  1  0.88215441  0.24349785  0.74316308  1
  O  O393  1  0.88374127  0.74406850  0.24387289  1
  O  O394  1  0.88723159  0.74997658  0.74984195  1
  O  O395  1  0.37855638  0.49597707  0.49619992  1
  O  O396  1  0.38181617  0.50496519  0.98895469  1
  O  O397  1  0.38156558  0.99148360  0.49521323  1
  O  O398  1  0.36900819  0.99854823  0.98446154  1
  O  O399  1  0.87464444  0.49620656  0.49175181  1
  O  O400  1  0.88622124  0.49826683  1.00153355  1
  O  O401  1  0.88715168  0.98721905  0.50202134  1
  O  O402  1  0.88637250  0.99935819  0.98959705  1
  O  O403  1  0.12161599  0.00597839  0.00641292  1
  O  O404  1  0.11359502  -0.00152684  0.50633797  1
  O  O405  1  0.11872224  0.50971790  0.00414064  1
  O  O406  1  0.12026162  0.50712784  0.50386745  1
  O  O407  1  0.61944749  -0.00146765  -0.00720894  1
  O  O408  1  0.61653651  -0.00729077  0.51079786  1
  O  O409  1  0.61717618  0.49953051  0.00935626  1
  O  O410  1  0.61826772  0.50652585  0.50342388  1
  O  O411  1  0.35771376  0.37387380  0.13239717  1
  O  O412  1  0.37017835  0.36973350  0.61463148  1
  O  O413  1  0.36251437  0.87470935  0.12162507  1
  O  O414  1  0.36886789  0.87071171  0.61740507  1
  O  O415  1  0.85914240  0.37345175  0.13125556  1
  O  O416  1  0.87234468  0.36838710  0.61459920  1
  O  O417  1  0.88311786  0.86157902  0.12107387  1
  O  O418  1  0.88285703  0.86480871  0.60791473  1
  O  O419  1  0.13362712  0.13544715  0.37790809  1
  O  O420  1  0.13105550  0.13167532  0.87791526  1
  O  O421  1  0.12277046  0.63343847  0.38947009  1
  O  O422  1  0.13303300  0.63238121  0.88095293  1
  O  O423  1  0.62158577  0.13910007  0.37802997  1
  O  O424  1  0.64339409  0.12670837  0.86999643  1
  O  O425  1  0.61473659  0.64074552  0.38465638  1
  O  O426  1  0.59884165  0.64846214  0.88508240  1
