# generated using pymatgen
data_V85Zn86O256
_symmetry_space_group_name_H-M   'P 1'
_cell_length_a   16.94007246
_cell_length_b   16.95758293
_cell_length_c   16.93913081
_cell_angle_alpha   89.94833716
_cell_angle_beta   90.00728852
_cell_angle_gamma   90.07851400
_symmetry_Int_Tables_number   1
_chemical_formula_structural   V85Zn86O256
_chemical_formula_sum   'V85 Zn86 O256'
_cell_volume   4865.97358975
_cell_formula_units_Z   1
loop_
 _symmetry_equiv_pos_site_id
 _symmetry_equiv_pos_as_xyz
  1  'x, y, z'
loop_
 _atom_site_type_symbol
 _atom_site_label
 _atom_site_symmetry_multiplicity
 _atom_site_fract_x
 _atom_site_fract_y
 _atom_site_fract_z
 _atom_site_occupancy
  V  V0  1  0.37482040  0.62504813  0.74932955  1
  V  V1  1  0.36975279  0.36895490  0.49857838  1
  V  V2  1  0.62618184  0.00612387  0.11977955  1
  V  V3  1  0.12406251  0.49966040  0.62432698  1
  V  V4  1  0.62543871  0.75133738  0.87679016  1
  V  V5  1  0.24531081  0.12556697  0.38942602  1
  V  V6  1  0.50094026  0.87896060  0.37372335  1
  V  V7  1  0.62762108  0.75003367  0.37472659  1
  V  V8  1  0.37357465  0.62704799  0.25672393  1
  V  V9  1  0.00140288  0.62633693  0.62429530  1
  V  V10  1  0.24304053  0.51134397  0.24992969  1
  V  V11  1  0.49812328  0.37183724  0.36895351  1
  V  V12  1  0.62540377  0.12632791  0.49821035  1
  V  V13  1  0.62516003  0.49692406  0.62642817  1
  V  V14  1  0.37187254  0.12817325  0.25226651  1
  V  V15  1  0.75659249  0.75197638  -0.00540364  1
  V  V16  1  0.36932971  0.25243401  0.12760066  1
  V  V17  1  0.13363717  0.36896735  0.24281136  1
  V  V18  1  0.75058991  0.24968459  0.49792894  1
  V  V19  1  -0.00045775  0.49961123  0.49821503  1
  V  V20  1  -0.00576388  0.10969893  0.12721098  1
  V  V21  1  -0.00136702  0.37824067  0.88683707  1
  V  V22  1  0.37008720  0.37491895  0.00265030  1
  V  V23  1  0.00266266  0.12461458  0.61223001  1
  V  V24  1  0.00069687  0.37396024  0.36947538  1
  V  V25  1  0.12782054  0.87622746  0.74659152  1
  V  V26  1  0.74243208  0.48811673  0.24310083  1
  V  V27  1  0.62966771  0.62313119  0.50048699  1
  V  V28  1  0.37417433  0.87896572  0.00322053  1
  V  V29  1  0.75758134  0.12703306  0.36845842  1
  V  V30  1  0.75384788  0.87336750  0.12209026  1
  V  V31  1  0.92653312  0.06792908  0.81219439  1
  V  V32  1  0.88240767  0.88619228  -0.01298057  1
  V  V33  1  -0.00072320  0.85850327  0.38120758  1
  V  V34  1  0.24842351  0.74473700  0.48537131  1
  V  V35  1  0.24324801  0.87912590  0.12660545  1
  V  V36  1  0.12394653  0.37031776  0.75664324  1
  V  V37  1  0.24613130  0.36694171  0.62083164  1
  V  V38  1  0.37512843  0.74817222  0.62283079  1
  V  V39  1  0.87626988  0.49475971  0.89196636  1
  V  V40  1  0.87608833  0.26753739  0.12285345  1
  V  V41  1  0.87670999  0.61971017  0.75019822  1
  V  V42  1  0.25212426  0.87390710  0.62281522  1
  V  V43  1  0.12722963  0.62698110  0.48356220  1
  V  V44  1  0.23709361  0.00336773  0.24950016  1
  V  V45  1  0.49788521  0.35738014  0.86942471  1
  V  V46  1  0.11491214  0.86102366  0.25063799  1
  V  V47  1  0.75198181  0.76591802  0.50821239  1
  V  V48  1  0.62787933  0.87797767  0.74970050  1
  V  V49  1  0.74382882  0.26240740  0.00214377  1
  V  V50  1  0.26310703  -0.00061570  0.75359369  1
  V  V51  1  0.76234280  0.00331211  0.24620898  1
  V  V52  1  0.24032812  0.25062032  -0.00072900  1
  V  V53  1  0.37581922  0.87364325  0.49764759  1
  V  V54  1  0.75014472  0.62547560  0.87591861  1
  V  V55  1  0.72797346  0.12871135  0.88827299  1
  V  V56  1  0.49459305  0.88007126  0.87637346  1
  V  V57  1  0.62098776  0.36169722  0.75301476  1
  V  V58  1  0.63193548  -0.00209024  0.62334610  1
  V  V59  1  -0.00072358  0.75048765  0.75201564  1
  V  V60  1  -0.00297577  0.25144534  0.75936297  1
  V  V61  1  0.49896073  0.49804217  0.49718689  1
  V  V62  1  0.62032386  0.25116806  0.36729281  1
  V  V63  1  0.87380181  0.24612215  0.63117876  1
  V  V64  1  0.62564140  0.87884512  0.24766862  1
  V  V65  1  0.50008781  0.50224770  -0.00246604  1
  V  V66  1  0.12704403  0.24595084  0.38809275  1
  V  V67  1  0.87431543  0.37482194  0.49854537  1
  V  V68  1  0.74805122  0.01188091  0.75559932  1
  V  V69  1  0.12044929  0.10808893  0.00382357  1
  V  V70  1  0.50097888  0.13051335  0.63144324  1
  V  V71  1  0.74944356  0.49513782  0.75159310  1
  V  V72  1  0.49930046  0.00753228  -0.00178142  1
  V  V73  1  0.49952701  0.62395552  0.62535485  1
  V  V74  1  0.25206079  0.62413977  0.88160056  1
  V  V75  1  0.87900571  -0.00304486  0.38568860  1
  V  V76  1  0.50172627  0.12896319  0.13113296  1
  V  V77  1  0.50100811  0.00147631  0.49850293  1
  V  V78  1  0.37645674  0.24958753  0.63176651  1
  V  V79  1  -0.00098138  0.62331812  0.12567227  1
  V  V80  1  0.24954286  0.49996615  0.74867732  1
  V  V81  1  0.50669045  0.62549814  0.12621408  1
  V  V82  1  0.12540752  0.74942230  0.87788937  1
  V  V83  1  0.25430214  0.12535638  0.87818073  1
  V  V84  1  0.50126855  0.75169002  0.24770228  1
  Zn  Zn85  1  0.87270459  0.62838196  0.25193944  1
  Zn  Zn86  1  0.87024346  0.49951753  0.36851989  1
  Zn  Zn87  1  0.62764955  0.47461216  0.12398320  1
  Zn  Zn88  1  0.13569450  0.01234553  0.61780381  1
  Zn  Zn89  1  0.37683132  0.49935178  0.87410290  1
  Zn  Zn90  1  0.12397735  0.49602547  0.11457377  1
  Zn  Zn91  1  0.25077690  0.75130909  0.00290341  1
  Zn  Zn92  1  0.11358889  0.61742245  -0.00246433  1
  Zn  Zn93  1  0.37269447  0.00236331  0.37416202  1
  Zn  Zn94  1  0.87624187  0.76151603  0.61806069  1
  Zn  Zn95  1  0.36909602  0.50082030  0.37615594  1
  Zn  Zn96  1  0.00274401  0.88786588  0.87619502  1
  Zn  Zn97  1  -0.00667044  0.24127012  0.24870505  1
  Zn  Zn98  1  0.75203567  0.62071090  0.37245732  1
  Zn  Zn99  1  0.55685543  0.31132899  0.20381548  1
  Zn  Zn100  1  0.50083103  0.75091514  0.75079465  1
  Zn  Zn101  1  0.74836581  0.37174406  0.62616138  1
  Zn  Zn102  1  0.89121776  0.75579244  0.13535249  1
  Zn  Zn103  1  0.00966868  -0.00551987  0.49715360  1
  Zn  Zn104  1  0.62823731  0.62341049  0.00444506  1
  Zn  Zn105  1  0.37320886  0.75024090  0.12526219  1
  Zn  Zn106  1  0.38096991  0.12754319  0.75947456  1
  Zn  Zn107  1  0.18424439  0.18660927  0.18516819  1
  Zn  Zn108  1  0.18641845  0.19002696  0.69183981  1
  Zn  Zn109  1  0.18287570  0.68913338  0.18337045  1
  Zn  Zn110  1  0.18785341  0.68785904  0.68516131  1
  Zn  Zn111  1  0.69514050  0.18818960  0.18161262  1
  Zn  Zn112  1  0.68948914  0.18486920  0.68827399  1
  Zn  Zn113  1  0.70337055  0.69094205  0.19235254  1
  Zn  Zn114  1  0.68759303  0.68683453  0.68956272  1
  Zn  Zn115  1  0.30793742  0.31022479  0.31378263  1
  Zn  Zn116  1  0.31084887  0.31023528  0.81496212  1
  Zn  Zn117  1  0.31222808  0.81547943  0.30860960  1
  Zn  Zn118  1  0.31504405  0.81072238  0.81323366  1
  Zn  Zn119  1  0.81396438  0.31219565  0.30520318  1
  Zn  Zn120  1  0.81124195  0.31018910  0.81924892  1
  Zn  Zn121  1  0.81544170  0.81328756  0.31551193  1
  Zn  Zn122  1  0.83054878  0.83537732  0.78200817  1
  Zn  Zn123  1  0.18675856  0.43909031  0.43302249  1
  Zn  Zn124  1  0.18873159  0.43706668  0.93695594  1
  Zn  Zn125  1  0.18380328  0.93679836  0.43541451  1
  Zn  Zn126  1  0.19009130  0.93701558  0.93434326  1
  Zn  Zn127  1  0.68674742  0.43454639  0.43157010  1
  Zn  Zn128  1  0.68080437  0.43758977  0.93648881  1
  Zn  Zn129  1  0.68943742  0.94007419  0.43450994  1
  Zn  Zn130  1  0.68767241  0.94018489  0.93648498  1
  Zn  Zn131  1  0.31195943  0.06115051  0.06459027  1
  Zn  Zn132  1  0.31639233  0.06052301  0.56472922  1
  Zn  Zn133  1  0.31212242  0.56059038  0.06951614  1
  Zn  Zn134  1  0.30959882  0.55915779  0.55935888  1
  Zn  Zn135  1  0.81735601  0.06385318  0.05772541  1
  Zn  Zn136  1  0.81450272  0.06480841  0.56316285  1
  Zn  Zn137  1  0.81206662  0.56357093  0.07123089  1
  Zn  Zn138  1  0.81288092  0.56248558  0.56358394  1
  Zn  Zn139  1  0.42985865  0.44426365  0.18371375  1
  Zn  Zn140  1  0.43636751  0.43658037  0.68745183  1
  Zn  Zn141  1  0.43315496  0.94259257  0.18731261  1
  Zn  Zn142  1  0.44205402  0.93877783  0.68499086  1
  Zn  Zn143  1  0.93774790  0.44594756  0.18720484  1
  Zn  Zn144  1  0.93620852  0.43420559  0.68833271  1
  Zn  Zn145  1  0.93863937  0.93473769  0.18671868  1
  Zn  Zn146  1  0.93975712  0.93552632  0.67815380  1
  Zn  Zn147  1  0.06098160  0.06162249  0.31178603  1
  Zn  Zn148  1  0.09061675  0.06675747  0.81096872  1
  Zn  Zn149  1  0.05482173  0.56156812  0.30469670  1
  Zn  Zn150  1  0.06334968  0.55967237  0.81622714  1
  Zn  Zn151  1  0.56599000  0.06534678  0.30833365  1
  Zn  Zn152  1  0.56140905  0.06432133  0.81399334  1
  Zn  Zn153  1  0.56677236  0.55911945  0.31005120  1
  Zn  Zn154  1  0.56326037  0.56141630  0.81382338  1
  Zn  Zn155  1  0.43441895  0.18955328  0.44057321  1
  Zn  Zn156  1  0.43228982  0.18446607  0.94297352  1
  Zn  Zn157  1  0.44097189  0.68775888  0.43603277  1
  Zn  Zn158  1  0.43700870  0.69089236  0.93863499  1
  Zn  Zn159  1  0.93627272  0.18980514  0.43396722  1
  Zn  Zn160  1  0.94037117  0.19531481  0.95035494  1
  Zn  Zn161  1  0.93129041  0.68469540  0.43874227  1
  Zn  Zn162  1  0.93711057  0.68691670  0.94041364  1
  Zn  Zn163  1  0.05898670  0.30844386  0.06691973  1
  Zn  Zn164  1  0.05856772  0.31118315  0.56551044  1
  Zn  Zn165  1  0.06166658  0.81080027  0.06292847  1
  Zn  Zn166  1  0.06631729  0.81045239  0.55948614  1
  Zn  Zn167  1  0.55948590  0.30445927  0.04018683  1
  Zn  Zn168  1  0.56135384  0.31226924  0.55954300  1
  Zn  Zn169  1  0.56380530  0.81434284  0.06194675  1
  Zn  Zn170  1  0.56422490  0.81326727  0.56401212  1
  O  O171  1  0.11812238  0.12783120  0.11030156  1
  O  O172  1  0.10630079  0.12780856  0.63477196  1
  O  O173  1  0.11605128  0.62305741  0.12166254  1
  O  O174  1  0.11447351  0.61945968  0.62237453  1
  O  O175  1  0.61522524  0.11723361  0.13258243  1
  O  O176  1  0.61871618  0.12094089  0.61805142  1
  O  O177  1  0.61102394  0.63348155  0.12504769  1
  O  O178  1  0.61923750  0.61840913  0.62003389  1
  O  O179  1  0.37814178  0.37183882  0.38411624  1
  O  O180  1  0.38522051  0.37716735  0.87709725  1
  O  O181  1  0.38377610  0.87815108  0.37934558  1
  O  O182  1  0.38819274  0.87219259  0.88067448  1
  O  O183  1  0.88447167  0.37142852  0.38199832  1
  O  O184  1  0.88201456  0.38877386  0.87008273  1
  O  O185  1  0.88967138  0.88297287  0.36923639  1
  O  O186  1  0.87944725  0.87331438  0.88237397  1
  O  O187  1  0.25049372  0.00821219  0.36714506  1
  O  O188  1  0.24594756  0.00831229  0.86421762  1
  O  O189  1  0.25225439  0.49564016  0.35749674  1
  O  O190  1  0.25488446  0.50884970  0.86529578  1
  O  O191  1  0.75632512  0.00622831  0.36651370  1
  O  O192  1  0.74192357  0.01743317  0.87025302  1
  O  O193  1  0.74818939  0.50013742  0.36531192  1
  O  O194  1  0.75724015  0.50227773  0.86950637  1
  O  O195  1  0.24765014  0.49956884  0.14402905  1
  O  O196  1  0.24445356  0.48935569  0.63066136  1
  O  O197  1  0.25338918  0.98868176  0.13470253  1
  O  O198  1  0.25358444  0.99066654  0.63221886  1
  O  O199  1  0.74268058  0.50055324  0.13525328  1
  O  O200  1  0.74394611  0.49628913  0.63365998  1
  O  O201  1  0.74594291  0.99493211  0.12789810  1
  O  O202  1  0.73848389  1.01231104  0.63467085  1
  O  O203  1  0.00933460  0.37637465  0.26108477  1
  O  O204  1  0.00602408  0.36795972  0.75456693  1
  O  O205  1  0.00921268  0.87391832  0.25593275  1
  O  O206  1  0.01177422  0.86692821  0.75274185  1
  O  O207  1  0.48507442  0.37726329  0.26465123  1
  O  O208  1  0.50395962  0.37946145  0.76251422  1
  O  O209  1  0.50465126  0.87302226  0.25377591  1
  O  O210  1  0.50991911  0.87787130  0.75877794  1
  O  O211  1  0.48867862  0.11936690  0.23988624  1
  O  O212  1  0.49840997  0.11919643  0.73597685  1
  O  O213  1  0.49556714  0.63023591  0.24470584  1
  O  O214  1  0.49389762  0.62499572  0.74317187  1
  O  O215  1  1.01083986  0.12595161  0.23124909  1
  O  O216  1  0.99443116  0.12912534  0.75575277  1
  O  O217  1  0.99314072  0.62533044  0.23683453  1
  O  O218  1  0.99975204  0.62903319  0.74273576  1
  O  O219  1  0.36790319  0.25604525  0.00890691  1
  O  O220  1  0.37567004  0.26280200  0.51163468  1
  O  O221  1  0.37444922  0.76560935  0.00191143  1
  O  O222  1  0.37153090  0.75236642  0.50497278  1
  O  O223  1  0.86377818  0.24804192  0.01371245  1
  O  O224  1  0.87207303  0.25869926  0.50579454  1
  O  O225  1  0.86339055  0.75895633  -0.00107988  1
  O  O226  1  0.85647691  0.74956912  0.50223507  1
  O  O227  1  0.12068703  0.25435995  0.48666451  1
  O  O228  1  0.13895777  0.24971787  1.00650374  1
  O  O229  1  0.13678018  0.73867775  0.50342549  1
  O  O230  1  0.12965355  0.75046910  0.98594915  1
  O  O231  1  0.63174353  0.24468409  0.49164070  1
  O  O232  1  0.64470904  0.24135309  1.00062904  1
  O  O233  1  0.62989992  0.74314154  0.49550518  1
  O  O234  1  0.63173955  0.75281017  0.98755565  1
  O  O235  1  0.48937975  0.24140467  0.12359288  1
  O  O236  1  0.49155844  0.24116025  0.61954675  1
  O  O237  1  0.49876873  0.74661677  0.13189111  1
  O  O238  1  0.49291156  0.74348365  0.62624015  1
  O  O239  1  0.98667638  0.24206872  0.12452069  1
  O  O240  1  0.99411747  0.24046164  0.63525247  1
  O  O241  1  1.00350000  0.73707315  0.12518809  1
  O  O242  1  0.99919749  0.74277732  0.63202908  1
  O  O243  1  0.00891667  0.25401384  0.36957716  1
  O  O244  1  -0.00976078  0.25936876  0.86555138  1
  O  O245  1  -0.00553993  0.76032737  0.37743104  1
  O  O246  1  0.01102659  0.74707639  0.86763752  1
  O  O247  1  0.50826960  0.25648687  0.38018508  1
  O  O248  1  0.49485963  0.25888499  0.87777627  1
  O  O249  1  0.51213405  0.75704401  0.37085020  1
  O  O250  1  0.50870143  0.75844548  0.87318570  1
  O  O251  1  0.25530811  0.12034700  0.48847069  1
  O  O252  1  0.24374228  0.12866575  0.99787974  1
  O  O253  1  0.23981659  0.63163445  0.50373790  1
  O  O254  1  0.25979769  0.62850535  0.98771751  1
  O  O255  1  0.74572246  0.13058257  0.49121510  1
  O  O256  1  0.74797003  0.12355496  0.98951392  1
  O  O257  1  0.73714098  0.62600893  0.49964050  1
  O  O258  1  0.74888456  0.63518561  0.99495860  1
  O  O259  1  0.26384102  0.36558339  -0.01142172  1
  O  O260  1  0.25663956  0.38218354  0.50949086  1
  O  O261  1  0.25675410  0.87774935  0.00754094  1
  O  O262  1  0.25662074  0.86596489  0.50344181  1
  O  O263  1  0.74705834  0.36118198  -0.01146187  1
  O  O264  1  0.75782012  0.36799698  0.50085710  1
  O  O265  1  0.75777772  0.87202379  0.00244864  1
  O  O266  1  0.74242814  0.86462701  0.50334371  1
  O  O267  1  0.13310675  0.48967249  0.25169925  1
  O  O268  1  0.12948227  0.49300919  0.74298068  1
  O  O269  1  0.13469598  0.99120055  0.25361349  1
  O  O270  1  0.13833407  0.99032708  0.74075187  1
  O  O271  1  0.63360842  0.49730793  0.24400421  1
  O  O272  1  0.63482718  0.49409809  0.74770509  1
  O  O273  1  0.63369847  0.99561460  0.24029071  1
  O  O274  1  0.62931890  0.99861459  0.74256468  1
  O  O275  1  0.36470062  0.01280952  0.25218699  1
  O  O276  1  0.36667566  0.00293073  0.74473004  1
  O  O277  1  0.36296347  0.50918915  0.25170542  1
  O  O278  1  0.36817761  0.50900934  0.74835081  1
  O  O279  1  0.86467929  -0.00448575  0.25642310  1
  O  O280  1  0.86690764  0.00807236  0.75176199  1
  O  O281  1  0.86000013  0.50069892  0.24966983  1
  O  O282  1  0.86223622  0.50195730  0.74966816  1
  O  O283  1  0.11963893  0.36405389  0.36898383  1
  O  O284  1  0.11681821  0.38229613  0.86151886  1
  O  O285  1  0.10923364  0.87743875  0.36362686  1
  O  O286  1  0.12504456  0.86880362  0.86377096  1
  O  O287  1  0.61156221  0.36266865  0.38076697  1
  O  O288  1  0.60646736  0.37756254  0.86773047  1
  O  O289  1  0.62058465  0.87057141  0.36898889  1
  O  O290  1  0.61420304  0.87053464  0.87197055  1
  O  O291  1  0.38012846  0.13095145  0.13266621  1
  O  O292  1  0.38345251  0.13384266  0.62472496  1
  O  O293  1  0.38584592  0.62817447  0.13627993  1
  O  O294  1  0.37890233  0.62886901  0.62832905  1
  O  O295  1  0.89159516  0.12442742  0.11869814  1
  O  O296  1  0.88633198  0.13667980  0.62268326  1
  O  O297  1  0.88545142  0.63079660  0.12442346  1
  O  O298  1  0.88673104  0.62707970  0.63059258  1
  O  O299  1  0.26201119  0.24418968  0.11694225  1
  O  O300  1  0.25388824  0.26118669  0.62763041  1
  O  O301  1  0.25201432  0.76399563  0.12388768  1
  O  O302  1  0.25993857  0.75491326  0.61983444  1
  O  O303  1  0.76239626  0.24677676  0.11283337  1
  O  O304  1  0.75846645  0.24885248  0.61878363  1
  O  O305  1  0.73704962  0.76634457  0.10970234  1
  O  O306  1  0.74570640  0.74518754  0.61047142  1
  O  O307  1  0.23548582  0.24208527  0.37505671  1
  O  O308  1  0.25442185  0.23991141  0.88618121  1
  O  O309  1  0.25691161  0.75167917  0.38667042  1
  O  O310  1  0.24340923  0.74173557  0.87359847  1
  O  O311  1  0.74570826  0.24280859  0.37691036  1
  O  O312  1  0.75819165  0.23530321  0.88758308  1
  O  O313  1  0.73771926  0.75243021  0.38859522  1
  O  O314  1  0.74284762  0.74744677  0.88039195  1
  O  O315  1  0.01491522  0.12735742  0.00708336  1
  O  O316  1  -0.00066229  0.12828018  0.51122881  1
  O  O317  1  -0.00125341  0.62816901  0.01327803  1
  O  O318  1  0.00542536  0.62142753  0.50783079  1
  O  O319  1  0.49262031  0.11422423  0.01294131  1
  O  O320  1  0.50439598  0.11901479  0.50708611  1
  O  O321  1  0.49862445  0.61860043  0.00702398  1
  O  O322  1  0.51015154  0.61998449  0.50480939  1
  O  O323  1  0.49067898  0.37969703  0.49266049  1
  O  O324  1  0.48946968  0.38035818  0.98497651  1
  O  O325  1  0.49740165  0.88113984  0.49431550  1
  O  O326  1  0.49439577  0.88390539  0.99526721  1
  O  O327  1  0.99367521  0.37724319  0.49187075  1
  O  O328  1  1.00751987  0.36935836  0.98527519  1
  O  O329  1  1.00205392  0.87261831  0.48654275  1
  O  O330  1  0.98737711  0.87130193  0.99467873  1
  O  O331  1  0.49873511  0.49105566  0.38211614  1
  O  O332  1  0.49687312  0.50094147  0.88766086  1
  O  O333  1  0.50202385  0.99811736  0.38238778  1
  O  O334  1  0.50578837  0.99398903  0.88711176  1
  O  O335  1  0.99805089  0.48927262  0.38173557  1
  O  O336  1  0.98432252  0.49414616  0.87021480  1
  O  O337  1  0.99102415  0.99824652  0.37682813  1
  O  O338  1  0.99651871  1.00832486  0.85826978  1
  O  O339  1  -0.00191146  0.01032929  0.12455674  1
  O  O340  1  -0.00361951  0.01534190  0.62300528  1
  O  O341  1  0.00560318  0.51420615  0.12718375  1
  O  O342  1  0.00355075  0.50542415  0.61943841  1
  O  O343  1  0.50783840  0.00646228  0.12061419  1
  O  O344  1  0.51093102  0.00685722  0.61682822  1
  O  O345  1  0.49989361  0.50827724  0.11432214  1
  O  O346  1  0.50480032  0.50366477  0.61772100  1
  O  O347  1  0.23652776  0.38021069  0.25262996  1
  O  O348  1  0.24179712  0.37833265  0.74508780  1
  O  O349  1  0.24190708  0.88302354  0.24560436  1
  O  O350  1  0.24803809  0.88032851  0.74632319  1
  O  O351  1  0.74700785  0.38783131  0.25506767  1
  O  O352  1  0.74113988  0.38011784  0.75208121  1
  O  O353  1  0.74497355  0.88453046  0.23950288  1
  O  O354  1  0.73227016  0.89569298  0.76642399  1
  O  O355  1  0.25224255  0.11851245  0.25515662  1
  O  O356  1  0.24913951  0.11784231  0.75932468  1
  O  O357  1  0.25556637  0.61863998  0.24808735  1
  O  O358  1  0.25545545  0.62124292  0.75629565  1
  O  O359  1  0.74556238  0.11529488  0.25807237  1
  O  O360  1  0.74504295  0.11947431  0.76470826  1
  O  O361  1  0.74619155  0.60925267  0.25484988  1
  O  O362  1  0.75417155  0.61652023  0.75625847  1
  O  O363  1  0.36564825  0.12776930  0.36860948  1
  O  O364  1  0.36226263  0.12433675  0.87599567  1
  O  O365  1  0.38363863  0.62279301  0.36110216  1
  O  O366  1  0.36956755  0.62673135  0.86580439  1
  O  O367  1  0.86440501  0.11830338  0.37736941  1
  O  O368  1  0.87618107  0.12230660  0.87922395  1
  O  O369  1  0.87044864  0.61773267  0.37412002  1
  O  O370  1  0.87035026  0.61174441  0.87033319  1
  O  O371  1  0.11861867  0.37515136  0.14095964  1
  O  O372  1  0.12972658  0.37798336  0.63171080  1
  O  O373  1  0.12953626  0.87272743  0.13827371  1
  O  O374  1  0.13350095  0.86813642  0.63703844  1
  O  O375  1  0.60799739  0.36412071  0.12160795  1
  O  O376  1  0.62339954  0.38115441  0.63233898  1
  O  O377  1  0.63176393  0.88478415  0.12847884  1
  O  O378  1  0.61977670  0.88626573  0.63598145  1
  O  O379  1  0.12394183  0.26128180  0.25520860  1
  O  O380  1  0.11242568  0.25990305  0.74805897  1
  O  O381  1  0.13179760  0.76425800  0.25585427  1
  O  O382  1  0.11907311  0.75431843  0.75695444  1
  O  O383  1  0.62634458  0.24078426  0.26285515  1
  O  O384  1  0.62741259  0.26284781  0.74438018  1
  O  O385  1  0.62381862  0.75765305  0.25872203  1
  O  O386  1  0.62632997  0.76009636  0.75922280  1
  O  O387  1  0.36637009  0.23777790  0.24347227  1
  O  O388  1  0.37073429  0.24861643  0.73642566  1
  O  O389  1  0.38320907  0.74470150  0.24972487  1
  O  O390  1  0.37755109  0.74200454  0.74157860  1
  O  O391  1  0.87430424  0.24987830  0.23126265  1
  O  O392  1  0.88178432  0.25680898  0.74081236  1
  O  O393  1  0.83989136  0.74176209  0.23622713  1
  O  O394  1  0.89228205  0.73518848  0.76132247  1
  O  O395  1  0.38053057  0.48973918  0.49844263  1
  O  O396  1  0.37982119  0.49107709  1.00064506  1
  O  O397  1  0.38417666  0.99197564  0.49816717  1
  O  O398  1  0.38494087  0.98890207  1.00600287  1
  O  O399  1  0.87924388  0.48641105  0.50238181  1
  O  O400  1  0.86735164  0.49954373  0.98920553  1
  O  O401  1  0.87526833  1.00002823  0.48873076  1
  O  O402  1  0.87256003  0.98396946  0.99607980  1
  O  O403  1  0.12668521  0.00957306  -0.00072409  1
  O  O404  1  0.12339402  -0.00539857  0.50821732  1
  O  O405  1  0.13686659  0.50642716  0.00193207  1
  O  O406  1  0.11933082  0.50508014  0.50591829  1
  O  O407  1  0.61615666  -0.00492559  0.01285786  1
  O  O408  1  0.62289249  0.00513207  0.50634910  1
  O  O409  1  0.61512752  0.50385165  0.00376886  1
  O  O410  1  0.62007280  0.50586522  0.50459409  1
  O  O411  1  0.38068235  0.36545264  0.11436363  1
  O  O412  1  0.36706640  0.36966159  0.62054101  1
  O  O413  1  0.36753037  0.87468104  0.11877222  1
  O  O414  1  0.37401029  0.86767345  0.61809521  1
  O  O415  1  0.88360612  0.36583194  0.12223381  1
  O  O416  1  0.87548102  0.36339058  0.61656907  1
  O  O417  1  0.86797398  0.87333068  0.11381405  1
  O  O418  1  0.86227201  0.85962585  0.67145792  1
  O  O419  1  0.12962076  0.13858945  0.37066522  1
  O  O420  1  0.13765850  0.12803992  0.89284756  1
  O  O421  1  0.11755907  0.61804738  0.38545600  1
  O  O422  1  0.13482801  0.63202619  0.87427930  1
  O  O423  1  0.63364980  0.12956936  0.38057626  1
  O  O424  1  0.62935538  0.13065867  0.87843849  1
  O  O425  1  0.62277607  0.63461867  0.38432862  1
  O  O426  1  0.63143398  0.63480294  0.87552668  1
