# generated using pymatgen
data_V85Zn86O256
_symmetry_space_group_name_H-M   'P 1'
_cell_length_a   16.95799096
_cell_length_b   16.93590655
_cell_length_c   16.94835930
_cell_angle_alpha   89.88825139
_cell_angle_beta   90.00111915
_cell_angle_gamma   90.02889520
_symmetry_Int_Tables_number   1
_chemical_formula_structural   V85Zn86O256
_chemical_formula_sum   'V85 Zn86 O256'
_cell_volume   4867.54111816
_cell_formula_units_Z   1
loop_
 _symmetry_equiv_pos_site_id
 _symmetry_equiv_pos_as_xyz
  1  'x, y, z'
loop_
 _atom_site_type_symbol
 _atom_site_label
 _atom_site_symmetry_multiplicity
 _atom_site_fract_x
 _atom_site_fract_y
 _atom_site_fract_z
 _atom_site_occupancy
  V  V0  1  0.00169963  0.62433811  0.12364491  1
  V  V1  1  0.25097878  0.74177352  -0.00085625  1
  V  V2  1  0.49777952  0.74525904  0.75250346  1
  V  V3  1  0.00037619  0.24823008  0.75188714  1
  V  V4  1  0.74505465  0.00047331  0.75004247  1
  V  V5  1  0.62356097  0.37553048  0.23861106  1
  V  V6  1  0.25082207  0.37458336  0.12033418  1
  V  V7  1  0.37824377  0.25129898  0.12314177  1
  V  V8  1  0.37687548  0.38395459  0.49813936  1
  V  V9  1  0.62542561  0.62017375  0.00943050  1
  V  V10  1  0.62888967  0.87627683  0.24241058  1
  V  V11  1  0.74562556  0.36989482  0.62873465  1
  V  V12  1  0.61781768  0.49702644  0.61094763  1
  V  V13  1  0.75165468  0.88517160  0.11946097  1
  V  V14  1  0.36101317  0.49680941  0.87994663  1
  V  V15  1  -0.00179787  0.49810680  0.00121082  1
  V  V16  1  0.12223565  0.13159730  0.49436478  1
  V  V17  1  0.24918685  -0.00160194  0.75263528  1
  V  V18  1  0.87205832  0.74878367  0.62522969  1
  V  V19  1  0.12533273  0.23949209  0.88182947  1
  V  V20  1  0.67123525  0.05370794  0.57136764  1
  V  V21  1  -0.00208065  0.12895525  0.13162650  1
  V  V22  1  0.37442446  0.88055654  0.49431119  1
  V  V23  1  0.75414656  0.75405061  -0.00040513  1
  V  V24  1  0.74171910  0.12630247  0.89001344  1
  V  V25  1  0.37307673  0.74972999  0.62793192  1
  V  V26  1  0.24736656  0.00152624  0.25315146  1
  V  V27  1  0.87374081  0.49727702  0.87612240  1
  V  V28  1  0.87313973  0.62385991  0.25745384  1
  V  V29  1  0.25288818  0.24166614  0.00077058  1
  V  V30  1  0.00273399  0.75013559  0.25082066  1
  V  V31  1  0.00651317  0.36963065  0.36995500  1
  V  V32  1  0.87321682  -0.00344902  0.88558110  1
  V  V33  1  0.49871102  0.88079495  0.37161142  1
  V  V34  1  -0.00045216  0.12671870  0.62572639  1
  V  V35  1  0.12671104  0.50146580  0.63269081  1
  V  V36  1  0.12843459  0.74837706  0.87130175  1
  V  V37  1  0.62599917  0.74867199  0.87443342  1
  V  V38  1  0.49723490  0.11895074  0.62818602  1
  V  V39  1  0.62729390  0.74261218  0.36979276  1
  V  V40  1  0.37589972  0.87010773  0.00265329  1
  V  V41  1  0.24789929  0.25379499  0.49621063  1
  V  V42  1  0.51032131  0.38342191  0.38285253  1
  V  V43  1  -0.00210962  0.88119890  0.37324459  1
  V  V44  1  0.62717154  0.25663851  0.88466624  1
  V  V45  1  0.49747800  0.00597007  0.49568168  1
  V  V46  1  0.51154993  0.00280699  0.00809010  1
  V  V47  1  0.73874580  0.86910236  0.62011891  1
  V  V48  1  0.87092108  0.12298838  0.74929253  1
  V  V49  1  0.37674158  0.00077625  0.87808934  1
  V  V50  1  0.12951454  0.00767488  0.11600298  1
  V  V51  1  0.25005709  0.75163810  0.49713865  1
  V  V52  1  0.49126574  0.75234294  0.24264767  1
  V  V53  1  0.00037298  0.37184205  0.87650890  1
  V  V54  1  0.87405153  0.62347124  0.74957942  1
  V  V55  1  0.75020042  0.73669106  0.49163722  1
  V  V56  1  0.12486876  0.62563941  0.49911737  1
  V  V57  1  0.48917751  0.62641383  0.12192896  1
  V  V58  1  0.61989164  0.87823257  0.74618713  1
  V  V59  1  0.24546077  0.87729630  0.62687203  1
  V  V60  1  0.87667479  0.75526816  0.12020952  1
  V  V61  1  0.50040055  0.49123963  0.00356897  1
  V  V62  1  0.87221946  0.87608137  0.49540201  1
  V  V63  1  0.25215337  0.86988581  0.12515139  1
  V  V64  1  0.00084659  0.76071097  0.74914543  1
  V  V65  1  0.73997506  0.50763984  0.25020556  1
  V  V66  1  0.73675042  0.49590655  0.75242717  1
  V  V67  1  0.00106127  -0.00140120  0.49865247  1
  V  V68  1  -0.00179738  0.87376736  0.88551691  1
  V  V69  1  0.12592997  0.37603471  0.75249565  1
  V  V70  1  0.35987372  0.62034943  0.75685767  1
  V  V71  1  0.24996675  0.49912854  0.25210095  1
  V  V72  1  0.87006753  0.35914030  0.00074945  1
  V  V73  1  0.86843091  0.37285138  0.50131076  1
  V  V74  1  0.50242315  0.25228918  0.25891218  1
  V  V75  1  0.76199595  0.00271850  0.26241011  1
  V  V76  1  -0.00172739  0.49965262  0.49964387  1
  V  V77  1  0.87445606  0.24736964  0.14750601  1
  V  V78  1  0.12391354  -0.00010418  0.63012528  1
  V  V79  1  0.74944822  0.62416450  0.87799348  1
  V  V80  1  0.37904505  0.12129250  0.26034439  1
  V  V81  1  0.37455767  0.24957570  0.62639873  1
  V  V82  1  0.24779585  0.12634797  0.37490432  1
  V  V83  1  0.49888061  0.37662892  0.86826245  1
  V  V84  1  0.25107372  0.37850261  0.63198419  1
  Zn  Zn85  1  -0.00166162  0.62619869  0.62551415  1
  Zn  Zn86  1  0.00213393  0.00183339  0.00174009  1
  Zn  Zn87  1  0.12457587  0.75193103  0.37442394  1
  Zn  Zn88  1  0.12559007  0.87684873  0.24979876  1
  Zn  Zn89  1  0.50067710  0.24930276  0.75324953  1
  Zn  Zn90  1  0.74286151  0.14706320  0.37298980  1
  Zn  Zn91  1  0.49537683  0.61649527  0.62199953  1
  Zn  Zn92  1  0.86850794  0.25033378  0.62826036  1
  Zn  Zn93  1  0.12899542  0.62005931  -0.00600104  1
  Zn  Zn94  1  0.37250451  0.12661969  0.75390003  1
  Zn  Zn95  1  0.87074111  0.50369498  0.37696992  1
  Zn  Zn96  1  0.12685776  0.36361823  0.25080612  1
  Zn  Zn97  1  0.74729743  0.37750721  0.12165060  1
  Zn  Zn98  1  0.61660270  0.61896962  0.49192337  1
  Zn  Zn99  1  0.51253518  0.13078964  0.11714299  1
  Zn  Zn100  1  0.37104598  0.62835840  0.24968758  1
  Zn  Zn101  1  0.24514937  0.11822071  0.88205205  1
  Zn  Zn102  1  0.25303080  0.62494200  0.37362614  1
  Zn  Zn103  1  0.92297962  0.06343461  0.31974906  1
  Zn  Zn104  1  0.50084990  0.87639038  0.87676577  1
  Zn  Zn105  1  0.12316388  0.49593139  0.12712526  1
  Zn  Zn106  1  0.37748058  0.50538523  0.37707544  1
  Zn  Zn107  1  0.19110822  0.18635037  0.18394268  1
  Zn  Zn108  1  0.18781936  0.18679384  0.68892910  1
  Zn  Zn109  1  0.18625603  0.68538455  0.18461249  1
  Zn  Zn110  1  0.18377813  0.68999306  0.68670656  1
  Zn  Zn111  1  0.69224644  0.19256280  0.18398209  1
  Zn  Zn112  1  0.68289492  0.19423773  0.70080491  1
  Zn  Zn113  1  0.68686155  0.68955908  0.18497240  1
  Zn  Zn114  1  0.68452576  0.68320847  0.68573842  1
  Zn  Zn115  1  0.31427132  0.31379924  0.31262666  1
  Zn  Zn116  1  0.31236952  0.31395609  0.81480410  1
  Zn  Zn117  1  0.31300430  0.81420548  0.31325291  1
  Zn  Zn118  1  0.31084973  0.81536181  0.81465110  1
  Zn  Zn119  1  0.81193352  0.32582923  0.31387926  1
  Zn  Zn120  1  0.80870075  0.30936533  0.81440196  1
  Zn  Zn121  1  0.81414665  0.81170638  0.31004456  1
  Zn  Zn122  1  0.81258208  0.81479913  0.81141100  1
  Zn  Zn123  1  0.18777965  0.44045733  0.43944500  1
  Zn  Zn124  1  0.18453158  0.42895531  0.94392676  1
  Zn  Zn125  1  0.18363569  0.94096169  0.43507392  1
  Zn  Zn126  1  0.18558886  0.92802954  0.93566890  1
  Zn  Zn127  1  0.68806593  0.31946884  0.44371842  1
  Zn  Zn128  1  0.68610802  0.43682163  0.94085000  1
  Zn  Zn129  1  0.68408413  0.93103358  0.42953613  1
  Zn  Zn130  1  0.68770162  0.93531120  0.93462924  1
  Zn  Zn131  1  0.31976344  0.06398438  0.06626854  1
  Zn  Zn132  1  0.31318968  0.06406046  0.55912837  1
  Zn  Zn133  1  0.31415925  0.55893415  0.06261396  1
  Zn  Zn134  1  0.31009308  0.56406782  0.56728202  1
  Zn  Zn135  1  0.81641725  0.06705628  0.06782169  1
  Zn  Zn136  1  0.84317419  0.08610568  0.51930469  1
  Zn  Zn137  1  0.81458276  0.56135441  0.06792555  1
  Zn  Zn138  1  0.80788268  0.55679895  0.56482989  1
  Zn  Zn139  1  0.43457803  0.43833822  0.18736546  1
  Zn  Zn140  1  0.43560296  0.44035075  0.69278299  1
  Zn  Zn141  1  0.43467008  0.93875790  0.18634727  1
  Zn  Zn142  1  0.43488433  0.93751743  0.68657037  1
  Zn  Zn143  1  0.93337982  0.43692980  0.18741555  1
  Zn  Zn144  1  0.93605637  0.43809166  0.68764143  1
  Zn  Zn145  1  0.94117657  0.93464550  0.18131457  1
  Zn  Zn146  1  0.93108680  0.93763059  0.68538930  1
  Zn  Zn147  1  0.06037193  0.18803287  0.30581947  1
  Zn  Zn148  1  0.06104602  0.05873787  0.81224344  1
  Zn  Zn149  1  0.06598602  0.55913290  0.31356015  1
  Zn  Zn150  1  0.05996508  0.56653224  0.81328936  1
  Zn  Zn151  1  0.59227080  0.08254856  0.27021602  1
  Zn  Zn152  1  0.56028147  0.06286986  0.81459341  1
  Zn  Zn153  1  0.56005224  0.56207572  0.30736356  1
  Zn  Zn154  1  0.55687977  0.56444998  0.81694161  1
  Zn  Zn155  1  0.56560688  0.18408561  0.42991815  1
  Zn  Zn156  1  0.43788557  0.18615081  0.93992183  1
  Zn  Zn157  1  0.43941222  0.68784097  0.43478229  1
  Zn  Zn158  1  0.43570066  0.68463280  0.93615541  1
  Zn  Zn159  1  0.92877889  0.20029424  0.43553694  1
  Zn  Zn160  1  0.94051244  0.17824690  0.94116520  1
  Zn  Zn161  1  0.93988192  0.69009279  0.43717308  1
  Zn  Zn162  1  0.93838437  0.68658007  0.93638903  1
  Zn  Zn163  1  0.06288643  0.30825599  0.06679468  1
  Zn  Zn164  1  0.06053228  0.31428727  0.56353736  1
  Zn  Zn165  1  0.06906112  0.81370652  0.06139531  1
  Zn  Zn166  1  0.06231705  0.81232980  0.56363036  1
  Zn  Zn167  1  0.56054663  0.30996219  0.06079021  1
  Zn  Zn168  1  0.55756347  0.31627552  0.57058133  1
  Zn  Zn169  1  0.56471188  0.81265889  0.06154227  1
  Zn  Zn170  1  0.55460141  0.79424297  0.55479589  1
  O  O171  1  0.11967291  0.11240323  0.12742698  1
  O  O172  1  0.11984563  0.11768858  0.61894332  1
  O  O173  1  0.11057000  0.62267964  0.11985649  1
  O  O174  1  0.12288842  0.61871961  0.61693320  1
  O  O175  1  0.61458080  0.11879444  0.16180665  1
  O  O176  1  0.61810888  0.11908674  0.63293455  1
  O  O177  1  0.61759948  0.62963924  0.11250256  1
  O  O178  1  0.62433839  0.60785946  0.62588783  1
  O  O179  1  0.38375501  0.37775549  0.38427219  1
  O  O180  1  0.38076026  0.38967881  0.87113908  1
  O  O181  1  0.38396249  0.87134659  0.38406263  1
  O  O182  1  0.37571901  0.88561782  0.88270826  1
  O  O183  1  0.88851988  0.38255089  0.38596181  1
  O  O184  1  0.87958447  0.37569635  0.88433962  1
  O  O185  1  0.88304068  0.86567666  0.38636330  1
  O  O186  1  0.88214064  0.88590294  0.86850945  1
  O  O187  1  0.24294306  0.00977184  0.36437727  1
  O  O188  1  0.25278920  -0.00332956  0.86813928  1
  O  O189  1  0.25260698  0.50115403  0.36693730  1
  O  O190  1  0.26189513  0.49381147  0.88513144  1
  O  O191  1  0.75681085  -0.01211363  0.36251980  1
  O  O192  1  0.75479216  0.00735283  0.87033090  1
  O  O193  1  0.75658501  0.50161994  0.35006556  1
  O  O194  1  0.75534041  0.50398656  0.87063431  1
  O  O195  1  0.24898600  0.49067802  0.12834735  1
  O  O196  1  0.23848042  0.49108394  0.62297742  1
  O  O197  1  0.24359564  0.99596348  0.12644484  1
  O  O198  1  0.24411853  0.99547229  0.62924146  1
  O  O199  1  0.76210362  0.49372239  0.14142178  1
  O  O200  1  0.73829230  0.49350947  0.63478725  1
  O  O201  1  0.76135518  0.98744008  0.13159336  1
  O  O202  1  0.73644142  0.99258238  0.62731664  1
  O  O203  1  0.00254507  0.38563103  0.26758362  1
  O  O204  1  0.00329126  0.36857429  0.75718300  1
  O  O205  1  0.00052435  0.86730956  0.25663639  1
  O  O206  1  -0.00873319  0.86408726  0.75481952  1
  O  O207  1  0.50519833  0.37265147  0.25690409  1
  O  O208  1  0.49807651  0.37463746  0.76467495  1
  O  O209  1  0.50713140  0.87251546  0.25183598  1
  O  O210  1  0.50584926  0.86992038  0.75217365  1
  O  O211  1  0.48601030  0.13524242  0.25870195  1
  O  O212  1  0.49287498  0.12263425  0.74178578  1
  O  O213  1  0.49937126  0.63421419  0.23838952  1
  O  O214  1  0.49057795  0.63301826  0.74825406  1
  O  O215  1  0.99424260  0.11798589  0.24254253  1
  O  O216  1  0.99060079  0.12675087  0.74605604  1
  O  O217  1  0.99563344  0.63048601  0.24385266  1
  O  O218  1  0.98577224  0.63350342  0.74944361  1
  O  O219  1  0.36848778  0.24668670  0.01074981  1
  O  O220  1  0.36356956  0.26629505  0.51765606  1
  O  O221  1  0.36816698  0.76201581  -0.00958416  1
  O  O222  1  0.36538713  0.76095530  0.50605908  1
  O  O223  1  0.87697943  0.25901302  -0.00285835  1
  O  O224  1  0.88103673  0.26896842  0.51241270  1
  O  O225  1  0.86294305  0.74241671  0.00564713  1
  O  O226  1  0.86872093  0.75589085  0.50506773  1
  O  O227  1  0.13484894  0.24238870  0.51121517  1
  O  O228  1  0.13438533  0.25509290  0.99041118  1
  O  O229  1  0.13184327  0.74267226  0.50175185  1
  O  O230  1  0.13369979  0.74804699  0.99115676  1
  O  O231  1  0.61651945  0.25404606  0.50068946  1
  O  O232  1  0.61613550  0.24277989  0.98538658  1
  O  O233  1  0.63815956  0.75504565  0.48626953  1
  O  O234  1  0.63570497  0.74303132  0.99402049  1
  O  O235  1  0.49261026  0.25090249  0.13577052  1
  O  O236  1  0.49080076  0.23890735  0.62939139  1
  O  O237  1  0.50563056  0.74255436  0.13207938  1
  O  O238  1  0.48832418  0.75765871  0.64254823  1
  O  O239  1  0.98874386  0.24204101  0.12517315  1
  O  O240  1  1.00028635  0.24498571  0.63691991  1
  O  O241  1  0.99556195  0.74606600  0.12834020  1
  O  O242  1  0.99252786  0.74999114  0.63258740  1
  O  O243  1  0.00097535  0.26401764  0.37618329  1
  O  O244  1  0.00692108  0.25073128  0.87272634  1
  O  O245  1  0.00147377  0.75887856  0.36623303  1
  O  O246  1  0.00108935  0.75743284  0.86856841  1
  O  O247  1  0.49723985  0.26429907  0.36416157  1
  O  O248  1  0.50206146  0.25986363  0.87772281  1
  O  O249  1  0.50777987  0.76088319  0.36327770  1
  O  O250  1  0.50464319  0.75150393  0.86601401  1
  O  O251  1  0.24267173  0.13295565  0.49742631  1
  O  O252  1  0.25228868  0.13656406  1.00184453  1
  O  O253  1  0.24306384  0.63559412  0.50179528  1
  O  O254  1  0.24985298  0.63781399  1.00591478  1
  O  O255  1  0.73137394  0.11097233  0.51586355  1
  O  O256  1  0.75212372  0.12073114  0.98800269  1
  O  O257  1  0.74658134  0.63458667  0.50205336  1
  O  O258  1  0.74390697  0.62864409  0.99835880  1
  O  O259  1  0.24971492  0.36445797  0.01396311  1
  O  O260  1  0.25162148  0.37004125  0.51038677  1
  O  O261  1  0.25676241  0.86636578  0.00654496  1
  O  O262  1  0.25532873  0.87277437  0.50331856  1
  O  O263  1  0.76676027  0.38127324  0.00239371  1
  O  O264  1  0.75879035  0.38365975  0.51400221  1
  O  O265  1  0.74701166  0.86530240  0.00548343  1
  O  O266  1  0.75559860  0.86848556  0.50444746  1
  O  O267  1  0.13708626  0.49738157  0.24758614  1
  O  O268  1  0.11591814  0.49746484  0.73910786  1
  O  O269  1  0.14209527  0.99734416  0.23481053  1
  O  O270  1  0.13057882  1.00204390  0.73744037  1
  O  O271  1  0.63391779  0.49722612  0.24751746  1
  O  O272  1  0.63578250  0.50596312  0.75496262  1
  O  O273  1  0.64544474  0.97982190  0.25200178  1
  O  O274  1  0.62742705  0.98542674  0.75516898  1
  O  O275  1  0.36708281  0.01457141  0.24221341  1
  O  O276  1  0.36680610  -0.00117775  0.75974268  1
  O  O277  1  0.36158493  0.50321930  0.24964830  1
  O  O278  1  0.37406155  0.51240816  0.76197824  1
  O  O279  1  0.86678404  -0.01166315  0.25114652  1
  O  O280  1  0.86748320  0.00923085  0.75471718  1
  O  O281  1  0.87339583  0.51135129  0.25110446  1
  O  O282  1  0.86973380  0.50812404  0.75639721  1
  O  O283  1  0.10901450  0.38029269  0.37945116  1
  O  O284  1  0.11872630  0.36631938  0.86990538  1
  O  O285  1  0.11333833  0.87358817  0.37240224  1
  O  O286  1  0.11152207  0.86295990  0.87395175  1
  O  O287  1  0.61192590  0.37940706  0.36798905  1
  O  O288  1  0.61846378  0.36426294  0.88122095  1
  O  O289  1  0.61742192  0.86374706  0.36426082  1
  O  O290  1  0.62530646  0.86555577  0.86363847  1
  O  O291  1  0.37901382  0.13674328  0.13632416  1
  O  O292  1  0.38065715  0.13334830  0.62402179  1
  O  O293  1  0.38611623  0.62794817  0.12364093  1
  O  O294  1  0.37462035  0.63045525  0.63814091  1
  O  O295  1  0.87965537  0.14012369  0.12906709  1
  O  O296  1  0.88099018  0.12680659  0.62825972  1
  O  O297  1  0.88578811  0.63588121  0.13109474  1
  O  O298  1  0.87329148  0.62922336  0.63325241  1
  O  O299  1  0.25751841  0.25439186  0.11774491  1
  O  O300  1  0.25423628  0.25701523  0.62075603  1
  O  O301  1  0.24279793  0.75989058  0.11550152  1
  O  O302  1  0.25153588  0.75871222  0.61685332  1
  O  O303  1  0.76862989  0.25665454  0.13057046  1
  O  O304  1  0.74747754  0.26544765  0.63778222  1
  O  O305  1  0.75872851  0.75587240  0.11699152  1
  O  O306  1  0.75201500  0.75355245  0.61677206  1
  O  O307  1  0.25629082  0.24764342  0.39133706  1
  O  O308  1  0.24366670  0.24828201  0.88333112  1
  O  O309  1  0.24609662  0.75214091  0.38707373  1
  O  O310  1  0.23899483  0.75777848  0.88296696  1
  O  O311  1  0.76049005  0.25768731  0.38413770  1
  O  O312  1  0.73921716  0.23848212  0.87525953  1
  O  O313  1  0.74201747  0.75339825  0.38005713  1
  O  O314  1  0.74785500  0.74509828  0.88136983  1
  O  O315  1  -0.00480941  0.11792594  0.02087590  1
  O  O316  1  0.00531532  0.12273957  0.50631039  1
  O  O317  1  -0.00234838  0.61592547  0.00705451  1
  O  O318  1  0.00671091  0.62008138  0.50310569  1
  O  O319  1  0.49636261  0.10793386  0.00217359  1
  O  O320  1  0.50110118  0.10975906  0.50442008  1
  O  O321  1  0.50699699  0.62051372  0.00436238  1
  O  O322  1  0.51062055  0.66000216  0.51600854  1
  O  O323  1  0.49190053  0.37457170  0.48906529  1
  O  O324  1  0.50308502  0.38717001  0.99268623  1
  O  O325  1  0.49198806  0.87855597  0.49442152  1
  O  O326  1  0.49195918  0.87994329  0.99911327  1
  O  O327  1  0.99535441  0.38357540  0.49563819  1
  O  O328  1  0.99119695  0.37952723  0.99596813  1
  O  O329  1  0.99323906  0.87552269  0.49322071  1
  O  O330  1  0.99958297  0.87550931  0.98910161  1
  O  O331  1  0.49656351  0.48724180  0.37022933  1
  O  O332  1  0.49304604  0.49335700  0.88204307  1
  O  O333  1  0.50557964  0.98379894  0.38358297  1
  O  O334  1  0.49143093  0.99752143  0.88472237  1
  O  O335  1  0.99940609  0.49683417  0.38893370  1
  O  O336  1  0.99329441  0.49373547  0.88106176  1
  O  O337  1  0.99440830  0.98835409  0.38200953  1
  O  O338  1  0.99245041  0.99216093  0.87647911  1
  O  O339  1  0.01546865  0.00126505  0.12481583  1
  O  O340  1  0.00784989  0.00250428  0.62167409  1
  O  O341  1  -0.00226100  0.50721217  0.11778594  1
  O  O342  1  0.00648973  0.50096066  0.61536426  1
  O  O343  1  0.49704380  -0.00164433  0.11061818  1
  O  O344  1  0.49349802  0.01112652  0.61724720  1
  O  O345  1  0.49304960  0.50870333  0.11348509  1
  O  O346  1  0.51352108  0.49862845  0.63137285  1
  O  O347  1  0.25012557  0.38181157  0.24130420  1
  O  O348  1  0.24245848  0.37076644  0.73931563  1
  O  O349  1  0.25213472  0.88214377  0.24279761  1
  O  O350  1  0.25292194  0.88638903  0.73953436  1
  O  O351  1  0.73875514  0.38617315  0.24668584  1
  O  O352  1  0.75760936  0.38715374  0.74536307  1
  O  O353  1  0.74724718  0.87411783  0.23874101  1
  O  O354  1  0.74239986  0.87960373  0.74001227  1
  O  O355  1  0.25861235  0.11829567  0.25208299  1
  O  O356  1  0.25147928  0.11033855  0.75104109  1
  O  O357  1  0.25015392  0.61754435  0.25029874  1
  O  O358  1  0.26163026  0.63080624  0.74910155  1
  O  O359  1  0.75737098  0.10530583  0.25475917  1
  O  O360  1  0.75528713  0.11799663  0.75564962  1
  O  O361  1  0.75863648  0.61796924  0.23986122  1
  O  O362  1  0.75857283  0.62004384  0.75596641  1
  O  O363  1  0.36335130  0.12718041  0.36034713  1
  O  O364  1  0.37002659  0.11178550  0.87604953  1
  O  O365  1  0.37256425  0.62399481  0.37141857  1
  O  O366  1  0.37568013  0.61379305  0.86488318  1
  O  O367  1  0.86230957  0.11611019  0.40333183  1
  O  O368  1  0.86540320  0.11840526  0.86800957  1
  O  O369  1  0.87961793  0.62785842  0.36082536  1
  O  O370  1  0.86840925  0.61940523  0.86893022  1
  O  O371  1  0.13385584  0.37574491  0.12823882  1
  O  O372  1  0.13029058  0.38283028  0.63168111  1
  O  O373  1  0.13583726  0.88439732  0.12666091  1
  O  O374  1  0.13728335  0.88385082  0.61712882  1
  O  O375  1  0.62405044  0.37374211  0.13420830  1
  O  O376  1  0.63071890  0.38815165  0.62824601  1
  O  O377  1  0.63891300  0.86754143  0.13087720  1
  O  O378  1  0.63270202  0.86217585  0.63006707  1
  O  O379  1  0.13581197  0.25028879  0.25512198  1
  O  O380  1  0.12002410  0.25465706  0.75851795  1
  O  O381  1  0.11259842  0.75108944  0.24957861  1
  O  O382  1  0.11204679  0.74638021  0.75540622  1
  O  O383  1  0.61449718  0.26369559  0.24967898  1
  O  O384  1  0.61533603  0.24324668  0.77566073  1
  O  O385  1  0.62024761  0.75789641  0.25296160  1
  O  O386  1  0.61718545  0.75478513  0.75317666  1
  O  O387  1  0.37901824  0.24094122  0.24577652  1
  O  O388  1  0.37373714  0.24872387  0.73957457  1
  O  O389  1  0.38807147  0.75226664  0.25068058  1
  O  O390  1  0.37906839  0.74104088  0.75232441  1
  O  O391  1  0.87940988  0.25784448  0.24516742  1
  O  O392  1  0.87896301  0.23668271  0.75233487  1
  O  O393  1  0.88532969  0.74470465  0.24129764  1
  O  O394  1  0.87771389  0.74270500  0.74505829  1
  O  O395  1  0.36800371  0.48803836  0.50320272  1
  O  O396  1  0.38433674  0.50770526  0.98559076  1
  O  O397  1  0.38227079  0.98900389  0.50244351  1
  O  O398  1  0.37820372  0.98926539  0.99472989  1
  O  O399  1  0.88244367  0.49492595  0.50095704  1
  O  O400  1  0.88434533  0.49410191  0.99573267  1
  O  O401  1  0.88609149  0.98105295  0.51355597  1
  O  O402  1  0.87529282  1.00249365  0.98825455  1
  O  O403  1  0.12737093  -0.00500297  0.01249215  1
  O  O404  1  0.11981262  0.00857997  0.51006720  1
  O  O405  1  0.11028443  0.49933430  0.00018994  1
  O  O406  1  0.11895705  0.50761680  0.51023636  1
  O  O407  1  0.60950528  -0.00824506  -0.00411133  1
  O  O408  1  0.61771765  -0.00896444  0.50691263  1
  O  O409  1  0.61489475  0.50984751  -0.00521695  1
  O  O410  1  0.62289101  0.50142099  0.51259464  1
  O  O411  1  0.36721876  0.35988682  0.13253263  1
  O  O412  1  0.36759499  0.37310326  0.62463805  1
  O  O413  1  0.36173730  0.87889467  0.11679354  1
  O  O414  1  0.36282021  0.87076794  0.61841160  1
  O  O415  1  0.88108967  0.36137606  0.11544307  1
  O  O416  1  0.86451045  0.37792877  0.62074215  1
  O  O417  1  0.87080513  0.86116257  0.12384911  1
  O  O418  1  0.86000123  0.86695721  0.62087606  1
  O  O419  1  0.12706159  0.12842805  0.38978881  1
  O  O420  1  0.12560182  0.13500738  0.87118434  1
  O  O421  1  0.12654075  0.62741587  0.38908495  1
  O  O422  1  0.11693329  0.64097717  0.87775913  1
  O  O423  1  0.63108774  0.11665791  0.36938076  1
  O  O424  1  0.63822811  0.12577790  0.87525991  1
  O  O425  1  0.61761277  0.63813349  0.37307643  1
  O  O426  1  0.63081419  0.63073228  0.88380441  1
