# generated using pymatgen
data_V85Zn86O256
_symmetry_space_group_name_H-M   'P 1'
_cell_length_a   16.93691299
_cell_length_b   16.93098210
_cell_length_c   16.93810242
_cell_angle_alpha   90.05132132
_cell_angle_beta   89.95760400
_cell_angle_gamma   89.95332164
_symmetry_Int_Tables_number   1
_chemical_formula_structural   V85Zn86O256
_chemical_formula_sum   'V85 Zn86 O256'
_cell_volume   4857.14114736
_cell_formula_units_Z   1
loop_
 _symmetry_equiv_pos_site_id
 _symmetry_equiv_pos_as_xyz
  1  'x, y, z'
loop_
 _atom_site_type_symbol
 _atom_site_label
 _atom_site_symmetry_multiplicity
 _atom_site_fract_x
 _atom_site_fract_y
 _atom_site_fract_z
 _atom_site_occupancy
  V  V0  1  0.25089477  0.25524425  0.50062415  1
  V  V1  1  0.88326767  -0.00288393  0.87311449  1
  V  V2  1  0.87598416  0.62380832  0.75153228  1
  V  V3  1  0.50134605  0.49425413  -0.00431590  1
  V  V4  1  0.87249051  0.62582741  0.25193889  1
  V  V5  1  0.73812902  0.87469454  0.62556364  1
  V  V6  1  0.75235512  0.36866222  0.62731308  1
  V  V7  1  0.12545781  0.62733181  0.49901575  1
  V  V8  1  0.12759397  0.37269720  0.75784587  1
  V  V9  1  0.24525457  0.14205607  0.87211181  1
  V  V10  1  0.24929505  0.37223638  0.11706390  1
  V  V11  1  0.50257295  0.76757399  0.75095010  1
  V  V12  1  0.75278255  0.62442144  0.87477609  1
  V  V13  1  0.62356714  -0.00884100  0.13435659  1
  V  V14  1  0.37853642  0.36643817  -0.00648195  1
  V  V15  1  0.12560340  -0.01177655  0.62571468  1
  V  V16  1  0.00141531  0.76569894  0.75188282  1
  V  V17  1  0.88230319  0.87725311  -0.00485503  1
  V  V18  1  0.62637600  0.62567440  -0.00025929  1
  V  V19  1  0.24820565  0.00191610  0.24385459  1
  V  V20  1  0.24899329  0.51273858  0.75617554  1
  V  V21  1  0.75267493  0.75175201  -0.00203870  1
  V  V22  1  0.00075259  0.75093095  0.25073771  1
  V  V23  1  0.36907181  0.12565556  0.74518393  1
  V  V24  1  0.24942781  0.74278996  -0.00522170  1
  V  V25  1  -0.00145178  0.62666806  0.62637884  1
  V  V26  1  0.12463257  0.76351656  0.86987237  1
  V  V27  1  0.38188283  0.37896562  0.49361382  1
  V  V28  1  0.87120760  0.75246353  0.61932557  1
  V  V29  1  0.37475605  0.75085651  0.12392821  1
  V  V30  1  0.13056539  0.12715491  0.50329657  1
  V  V31  1  0.87233736  0.88339390  0.50014230  1
  V  V32  1  0.62110430  0.25396602  0.87920433  1
  V  V33  1  0.12157246  0.87927971  0.24551710  1
  V  V34  1  0.87612609  0.12895095  0.74661629  1
  V  V35  1  0.75112067  0.50006535  0.75381997  1
  V  V36  1  0.39056102  0.62383953  0.74823038  1
  V  V37  1  0.38142192  0.12187416  0.25151883  1
  V  V38  1  0.49997992  0.50356095  0.49128383  1
  V  V39  1  0.62050303  0.76617333  0.87498770  1
  V  V40  1  0.00134869  0.62318854  0.12297446  1
  V  V41  1  0.37587928  -0.01321375  0.38603052  1
  V  V42  1  0.12374211  0.25446891  0.37287035  1
  V  V43  1  0.02021918  -0.00392853  -0.00496986  1
  V  V44  1  0.62179937  0.37553102  0.26127133  1
  V  V45  1  0.87456947  0.36595184  0.50338237  1
  V  V46  1  0.51049698  0.12449556  0.61768602  1
  V  V47  1  0.74043428  -0.00426951  0.74767510  1
  V  V48  1  0.37626111  0.25257187  0.62368951  1
  V  V49  1  0.12629624  0.50138840  0.62675257  1
  V  V50  1  0.12474173  0.62106458  -0.01148129  1
  V  V51  1  0.00024349  0.13230371  0.62441704  1
  V  V52  1  -0.00294898  0.50008929  0.50112744  1
  V  V53  1  0.50242401  0.62507536  0.12613951  1
  V  V54  1  0.87559361  0.24615062  0.12467249  1
  V  V55  1  0.50949010  -0.00767881  0.50364156  1
  V  V56  1  0.87245086  0.49846979  0.37634205  1
  V  V57  1  0.62925362  0.63392264  0.50152239  1
  V  V58  1  0.49850888  0.25392854  0.75352289  1
  V  V59  1  0.25070632  0.38244295  0.62601956  1
  V  V60  1  0.24618381  0.87488339  0.12294144  1
  V  V61  1  0.49753190  0.25425150  0.25683144  1
  V  V62  1  0.62370655  0.12235454  0.00405897  1
  V  V63  1  0.37900837  0.62553238  0.25004028  1
  V  V64  1  0.37158141  0.50479236  0.88031268  1
  V  V65  1  0.13017025  0.14715521  -0.00464651  1
  V  V66  1  -0.00698176  0.88327335  0.37402677  1
  V  V67  1  0.76022486  -0.00396244  0.25852977  1
  V  V68  1  0.61657949  0.50358238  0.62645149  1
  V  V69  1  0.24524673  -0.01326326  0.74775669  1
  V  V70  1  -0.00905821  0.37737207  0.87326752  1
  V  V71  1  0.00289403  0.24894861  0.75565406  1
  V  V72  1  0.50842247  0.76614208  0.25552179  1
  V  V73  1  0.87614971  0.75155565  0.12309479  1
  V  V74  1  0.25075381  0.12552171  0.37452086  1
  V  V75  1  0.74954908  0.37171389  0.12637162  1
  V  V76  1  0.24850323  0.49984802  0.24516455  1
  V  V77  1  0.75147658  0.12561500  0.87544380  1
  V  V78  1  0.62540380  0.49750556  0.12639881  1
  V  V79  1  0.24929185  0.62595135  0.37381502  1
  V  V80  1  0.62777986  0.23376260  0.38068371  1
  V  V81  1  0.62139149  0.37484002  0.75290596  1
  V  V82  1  0.37265899  0.24659411  0.12151166  1
  V  V83  1  0.00578944  0.12008447  0.12278511  1
  V  V84  1  -0.01051934  0.50074031  -0.00575508  1
  Zn  Zn85  1  0.74973580  0.87491382  0.12711501  1
  Zn  Zn86  1  0.75136400  0.63306454  0.38293102  1
  Zn  Zn87  1  0.37882685  0.76925671  0.61837657  1
  Zn  Zn88  1  0.75049640  0.24905575  0.00087261  1
  Zn  Zn89  1  0.50522708  -0.01388837  -0.01307163  1
  Zn  Zn90  1  0.12281096  0.49773845  0.12094112  1
  Zn  Zn91  1  0.12405783  0.37471752  0.24688103  1
  Zn  Zn92  1  0.74877955  0.49963757  0.25258044  1
  Zn  Zn93  1  0.25875365  0.77037885  0.50527681  1
  Zn  Zn94  1  0.00186019  0.25093708  0.24754831  1
  Zn  Zn95  1  0.37764172  -0.00135706  0.87601259  1
  Zn  Zn96  1  0.63137079  0.76967107  0.38064937  1
  Zn  Zn97  1  0.74496250  0.24144411  0.50734727  1
  Zn  Zn98  1  0.87849904  0.12243567  0.25505781  1
  Zn  Zn99  1  0.76262560  0.11720921  0.38661800  1
  Zn  Zn100  1  0.49968276  0.12179166  0.12295780  1
  Zn  Zn101  1  0.00040011  0.37612212  0.37080517  1
  Zn  Zn102  1  0.38281910  0.87511545  -0.00817117  1
  Zn  Zn103  1  0.12614058  0.75241894  0.37567993  1
  Zn  Zn104  1  -0.00236700  0.00699568  0.49518412  1
  Zn  Zn105  1  0.87120711  0.37554248  -0.00301117  1
  Zn  Zn106  1  0.37921319  0.49525437  0.36943045  1
  Zn  Zn107  1  0.18771786  0.18645041  0.18355510  1
  Zn  Zn108  1  0.18699884  0.19149455  0.68525572  1
  Zn  Zn109  1  0.18435846  0.68690946  0.18449684  1
  Zn  Zn110  1  0.18973400  0.69173207  0.69000990  1
  Zn  Zn111  1  0.68771264  0.18200674  0.19336792  1
  Zn  Zn112  1  0.68736064  0.18611701  0.69025548  1
  Zn  Zn113  1  0.68997222  0.68970193  0.18909299  1
  Zn  Zn114  1  0.68109764  0.69058557  0.68684443  1
  Zn  Zn115  1  0.30927332  0.31369915  0.31052165  1
  Zn  Zn116  1  0.31388332  0.31736588  0.81378787  1
  Zn  Zn117  1  0.31164413  0.81017543  0.31195180  1
  Zn  Zn118  1  0.31307892  0.80936839  0.81109878  1
  Zn  Zn119  1  0.81177833  0.30861443  0.31146001  1
  Zn  Zn120  1  0.81215473  0.30929215  0.81165955  1
  Zn  Zn121  1  0.80754577  0.81501556  0.31498638  1
  Zn  Zn122  1  0.81317875  0.81314932  0.81094505  1
  Zn  Zn123  1  0.19008142  0.44250307  0.43667859  1
  Zn  Zn124  1  0.18577217  0.43384871  0.93765650  1
  Zn  Zn125  1  0.17986315  0.94254872  0.42896485  1
  Zn  Zn126  1  0.21517965  0.92858642  0.92343672  1
  Zn  Zn127  1  0.69023337  0.43823864  0.44073304  1
  Zn  Zn128  1  0.68872597  0.43570443  0.93777365  1
  Zn  Zn129  1  0.68815169  0.94036090  0.44434741  1
  Zn  Zn130  1  0.69396256  0.94197401  0.94149974  1
  Zn  Zn131  1  0.31027880  0.06187116  0.05705736  1
  Zn  Zn132  1  0.30849964  -0.06094134  0.56282585  1
  Zn  Zn133  1  0.31240884  0.56262280  0.06257093  1
  Zn  Zn134  1  0.31848919  0.62513106  0.56231790  1
  Zn  Zn135  1  0.81165943  0.06051076  0.06434170  1
  Zn  Zn136  1  0.81034412  0.06402642  0.56471964  1
  Zn  Zn137  1  0.81173180  0.56141371  0.06559211  1
  Zn  Zn138  1  0.80807188  0.55925837  0.56665177  1
  Zn  Zn139  1  0.43763425  0.43515773  0.18378995  1
  Zn  Zn140  1  0.43638895  0.44017702  0.68642110  1
  Zn  Zn141  1  0.43237284  0.94050967  0.17744001  1
  Zn  Zn142  1  0.43957821  0.94389680  0.69075949  1
  Zn  Zn143  1  0.93783928  0.43570948  0.18750564  1
  Zn  Zn144  1  0.93592164  0.43836290  0.68785918  1
  Zn  Zn145  1  0.93887919  0.94010392  0.17980928  1
  Zn  Zn146  1  0.93624062  0.94370875  0.68280962  1
  Zn  Zn147  1  0.06275072  0.06469107  0.31078951  1
  Zn  Zn148  1  0.06814861  0.06156881  0.81429901  1
  Zn  Zn149  1  0.06105963  0.56015723  0.31192965  1
  Zn  Zn150  1  0.05967867  0.56338860  0.81358281  1
  Zn  Zn151  1  0.55968386  -0.05361114  0.31660203  1
  Zn  Zn152  1  0.56049325  0.06724485  0.81226162  1
  Zn  Zn153  1  0.56528545  0.56468808  0.31574603  1
  Zn  Zn154  1  0.56611353  0.56159083  0.81968744  1
  Zn  Zn155  1  0.43910424  0.18496629  0.43603664  1
  Zn  Zn156  1  0.43864146  0.17784821  0.93395356  1
  Zn  Zn157  1  0.44413679  0.68596500  0.43470279  1
  Zn  Zn158  1  0.43937709  0.68882194  0.93546141  1
  Zn  Zn159  1  0.93799420  0.18698722  0.43610632  1
  Zn  Zn160  1  0.93964049  0.18703644  0.93802645  1
  Zn  Zn161  1  0.93662792  0.69236366  0.43632335  1
  Zn  Zn162  1  0.94023998  0.68920064  0.93262339  1
  Zn  Zn163  1  0.05881656  0.31499122  0.06293363  1
  Zn  Zn164  1  0.06090155  0.31371229  0.56561395  1
  Zn  Zn165  1  0.06375720  0.81188494  0.05985027  1
  Zn  Zn166  1  0.05940749  0.81022810  0.55826453  1
  Zn  Zn167  1  0.56045535  0.30955798  0.06738043  1
  Zn  Zn168  1  0.56296251  0.31517972  0.56242965  1
  Zn  Zn169  1  0.56100655  0.81234413  0.06251927  1
  Zn  Zn170  1  0.55589306  0.81358019  0.56799559  1
  O  O171  1  0.12063410  0.12978673  0.10694286  1
  O  O172  1  0.12027886  0.12311998  0.61767618  1
  O  O173  1  0.11554358  0.62499447  0.11259760  1
  O  O174  1  0.11917513  0.61990378  0.61825620  1
  O  O175  1  0.62468487  0.11640444  0.11871468  1
  O  O176  1  0.60884679  0.13093024  0.62838117  1
  O  O177  1  0.62340941  0.61784634  0.11937060  1
  O  O178  1  0.62850577  0.61589054  0.61549044  1
  O  O179  1  0.36685900  0.37744121  0.38932604  1
  O  O180  1  0.37402951  0.38321016  0.88836180  1
  O  O181  1  0.37070270  0.88845516  0.37159111  1
  O  O182  1  0.33026297  0.88939396  0.88830720  1
  O  O183  1  0.87435386  0.38215260  0.38312937  1
  O  O184  1  0.88599120  0.37270948  0.87454066  1
  O  O185  1  0.88168130  0.87043471  0.38668777  1
  O  O186  1  0.87308726  0.88453441  0.88167819  1
  O  O187  1  0.25791120  0.00688854  0.36370043  1
  O  O188  1  0.23907008  0.01805810  0.85305522  1
  O  O189  1  0.25316776  0.50853774  0.36180361  1
  O  O190  1  0.25912210  0.49315548  0.86873584  1
  O  O191  1  0.74754819  -0.00159164  0.36150047  1
  O  O192  1  0.76077201  0.00510830  0.86508155  1
  O  O193  1  0.76247234  0.50455975  0.37471172  1
  O  O194  1  0.74471972  0.50661909  0.86240587  1
  O  O195  1  0.24874278  0.49271512  0.12934818  1
  O  O196  1  0.24277825  0.49582841  0.63792355  1
  O  O197  1  0.25501692  0.99018748  0.13556225  1
  O  O198  1  0.23441081  1.00384238  0.63478819  1
  O  O199  1  0.74293084  0.49094641  0.12714416  1
  O  O200  1  0.74007496  0.49284783  0.63735487  1
  O  O201  1  0.73893849  0.99906251  0.13115646  1
  O  O202  1  0.75622641  0.98916194  0.64014053  1
  O  O203  1  0.00573167  0.37124001  0.25172518  1
  O  O204  1  0.00438344  0.37040202  0.75434930  1
  O  O205  1  0.00384801  0.87336109  0.25214543  1
  O  O206  1  -0.00674246  0.86445980  0.74578084  1
  O  O207  1  0.50793530  0.36644531  0.24521700  1
  O  O208  1  0.50463304  0.36263519  0.74430554  1
  O  O209  1  0.49666693  0.86933386  0.24744297  1
  O  O210  1  0.49543874  0.86610919  0.75794035  1
  O  O211  1  0.48494003  0.13307879  0.24671973  1
  O  O212  1  0.49226265  0.13626277  0.74012441  1
  O  O213  1  0.49294756  0.62522969  0.24451242  1
  O  O214  1  0.49209167  0.62482878  0.75953306  1
  O  O215  1  1.00338346  0.12695083  0.23559215  1
  O  O216  1  0.99761996  0.13245585  0.74708630  1
  O  O217  1  0.99117772  0.62844214  0.24452431  1
  O  O218  1  0.99066450  0.62941086  0.74535567  1
  O  O219  1  0.38420515  0.25535783  0.00778651  1
  O  O220  1  0.37168653  0.25936719  0.50352708  1
  O  O221  1  0.36389348  0.74704669  0.00367782  1
  O  O222  1  0.37009352  0.72169313  0.50918303  1
  O  O223  1  0.87336992  0.25178726  0.01051067  1
  O  O224  1  0.87575931  0.26411407  0.49992233  1
  O  O225  1  0.87400991  0.75667029  0.00138687  1
  O  O226  1  0.87892032  0.75696219  0.51462287  1
  O  O227  1  0.13067286  0.24835884  0.49535213  1
  O  O228  1  0.12479251  0.24525313  0.99651683  1
  O  O229  1  0.12608914  0.73584593  0.49814087  1
  O  O230  1  0.12707457  0.74268050  0.98878236  1
  O  O231  1  0.62302723  0.25774824  0.48347144  1
  O  O232  1  0.62575079  0.24467786  0.99484930  1
  O  O233  1  0.61300653  0.73548987  0.50291813  1
  O  O234  1  0.63284822  0.74319961  0.99488701  1
  O  O235  1  0.48872810  0.24717343  0.13699555  1
  O  O236  1  0.49521751  0.24429004  0.62910107  1
  O  O237  1  0.49486149  0.74378069  0.13543014  1
  O  O238  1  0.49634080  0.75157408  0.64609363  1
  O  O239  1  0.99349683  0.23942932  0.12179701  1
  O  O240  1  1.00389841  0.24040843  0.63693043  1
  O  O241  1  0.99482268  0.74304117  0.12920739  1
  O  O242  1  0.99366062  0.74442648  0.63247842  1
  O  O243  1  0.01510363  0.25340662  0.37565608  1
  O  O244  1  -0.00230653  0.25778622  0.86316955  1
  O  O245  1  0.00089629  0.76105933  0.36655058  1
  O  O246  1  0.01298809  0.74753865  0.86535183  1
  O  O247  1  0.50827692  0.24627035  0.36411292  1
  O  O248  1  0.50855969  0.24411507  0.86516522  1
  O  O249  1  0.50416451  0.74567283  0.35711000  1
  O  O250  1  0.51039492  0.74562332  0.86596878  1
  O  O251  1  0.23798713  0.13636842  0.49479602  1
  O  O252  1  0.23589915  0.12383021  0.99030826  1
  O  O253  1  0.23714357  0.60751554  0.48487787  1
  O  O254  1  0.23999287  0.63503491  1.00672297  1
  O  O255  1  0.75142749  0.12918811  0.50072987  1
  O  O256  1  0.74058307  0.12506196  0.99389400  1
  O  O257  1  0.73436994  0.62129850  0.50346780  1
  O  O258  1  0.74876363  0.62881808  0.99216043  1
  O  O259  1  0.25967248  0.37864532  0.01002042  1
  O  O260  1  0.25633066  0.37611654  0.50783416  1
  O  O261  1  0.23800953  0.85959155  0.01606718  1
  O  O262  1  0.24297647  0.87906720  0.49356510  1
  O  O263  1  0.75032292  0.37315647  0.01264146  1
  O  O264  1  0.75705722  0.37364178  0.51081681  1
  O  O265  1  0.76510474  0.87003830  0.00198779  1
  O  O266  1  0.75746879  0.88164537  0.51761136  1
  O  O267  1  0.13736914  0.50158289  0.24491518  1
  O  O268  1  0.13260585  0.49739854  0.74886189  1
  O  O269  1  0.13633739  0.99262188  0.25303667  1
  O  O270  1  0.13208353  1.00529088  0.73584261  1
  O  O271  1  0.62462053  0.49306515  0.24464872  1
  O  O272  1  0.62905334  0.49554251  0.74577618  1
  O  O273  1  0.63126454  0.99937259  0.23793409  1
  O  O274  1  0.64285119  1.00870503  0.75402999  1
  O  O275  1  0.37046587  0.00648242  0.25648374  1
  O  O276  1  0.35810694  0.01103917  0.74876351  1
  O  O277  1  0.36694842  0.50633744  0.24676587  1
  O  O278  1  0.37183270  0.50308684  0.76255907  1
  O  O279  1  0.86382642  0.00175485  0.24147501  1
  O  O280  1  0.87304501  0.00981483  0.75744941  1
  O  O281  1  0.87555754  0.50749151  0.25881288  1
  O  O282  1  0.86610761  0.51481660  0.74445699  1
  O  O283  1  0.12741551  0.36802761  0.37322420  1
  O  O284  1  0.11420009  0.37983834  0.86265628  1
  O  O285  1  0.11670941  0.87186441  0.36043503  1
  O  O286  1  0.12679297  0.86153375  0.87739037  1
  O  O287  1  0.63044004  0.37572354  0.36269015  1
  O  O288  1  0.62951083  0.36200679  0.87013381  1
  O  O289  1  0.61537691  0.88025605  0.38569681  1
  O  O290  1  0.63612072  0.86401704  0.87994563  1
  O  O291  1  0.37273386  0.13187972  0.13151865  1
  O  O292  1  0.38006009  0.13844668  0.63841002  1
  O  O293  1  0.37920872  0.63007652  0.13396273  1
  O  O294  1  0.38706703  0.60622178  0.64980362  1
  O  O295  1  0.88542615  0.13115443  0.12238469  1
  O  O296  1  0.88810976  0.11801050  0.63569342  1
  O  O297  1  0.88187353  0.63057752  0.13080081  1
  O  O298  1  0.87611298  0.63295235  0.63082691  1
  O  O299  1  0.26419525  0.25797655  0.12964570  1
  O  O300  1  0.25601885  0.26153106  0.61936012  1
  O  O301  1  0.25496490  0.75434097  0.12026966  1
  O  O302  1  0.26426107  0.72337428  0.61479112  1
  O  O303  1  0.75579213  0.25491041  0.12557195  1
  O  O304  1  0.74508922  0.26454380  0.62915176  1
  O  O305  1  0.75844260  0.75051273  0.11633501  1
  O  O306  1  0.75820880  0.76531895  0.63774776  1
  O  O307  1  0.24222411  0.24604683  0.38003949  1
  O  O308  1  0.24840633  0.24244479  0.86979258  1
  O  O309  1  0.24857742  0.73546338  0.37463013  1
  O  O310  1  0.23553175  0.74659243  0.88201554  1
  O  O311  1  0.73541161  0.24934875  0.37366981  1
  O  O312  1  0.74250964  0.24282824  0.87640079  1
  O  O313  1  0.74115515  0.74392149  0.36612143  1
  O  O314  1  0.74458798  0.74294419  0.87811081  1
  O  O315  1  0.01525152  0.11903840  0.00018805  1
  O  O316  1  0.01115543  0.12931504  0.50864581  1
  O  O317  1  0.00433919  0.61837332  0.00153322  1
  O  O318  1  0.00516607  0.62064507  0.50459084  1
  O  O319  1  0.51542273  0.12612488  0.00306889  1
  O  O320  1  0.49223333  0.12074024  0.51431297  1
  O  O321  1  0.50591426  0.61872804  0.00684555  1
  O  O322  1  0.51133184  0.60966145  0.49965344  1
  O  O323  1  0.49238023  0.38779522  0.50564456  1
  O  O324  1  0.49142112  0.38333620  1.00828039  1
  O  O325  1  0.49468169  0.89323917  0.51429326  1
  O  O326  1  0.49617454  0.87048466  0.99576254  1
  O  O327  1  0.99209548  0.38368423  0.50157271  1
  O  O328  1  0.99852709  0.38303707  0.99032827  1
  O  O329  1  0.99274807  0.87610794  0.49005255  1
  O  O330  1  0.99144980  0.88278519  1.00334859  1
  O  O331  1  0.49992134  0.49841381  0.38720440  1
  O  O332  1  0.49468088  0.50057843  0.88981365  1
  O  O333  1  0.48465634  1.00370891  0.38962801  1
  O  O334  1  0.49105212  1.01179243  0.87473895  1
  O  O335  1  0.98884803  0.49922788  0.38165559  1
  O  O336  1  1.00007258  0.49187823  0.88178175  1
  O  O337  1  1.00588065  0.98762730  0.37549102  1
  O  O338  1  0.99109194  1.00504820  0.88055016  1
  O  O339  1  -0.00054872  0.01244393  0.11040498  1
  O  O340  1  0.01245345  0.01355547  0.62565403  1
  O  O341  1  0.00072646  0.50632243  0.11574875  1
  O  O342  1  0.00524417  0.50740324  0.62176945  1
  O  O343  1  0.51376052  0.00224755  0.12410640  1
  O  O344  1  0.49375208  0.01667935  0.61794721  1
  O  O345  1  0.50523320  0.50536930  0.11602531  1
  O  O346  1  0.51286477  0.49532320  0.61879062  1
  O  O347  1  0.25154124  0.38412922  0.23734913  1
  O  O348  1  0.24313831  0.38292099  0.74668924  1
  O  O349  1  0.24233550  0.87853779  0.24193482  1
  O  O350  1  0.24414488  0.88861710  0.75154339  1
  O  O351  1  0.74250961  0.37610064  0.24023925  1
  O  O352  1  0.74650843  0.38287879  0.74710881  1
  O  O353  1  0.75567674  0.88983529  0.24373439  1
  O  O354  1  0.75562525  0.88822335  0.74288109  1
  O  O355  1  0.25705563  0.11740072  0.25119533  1
  O  O356  1  0.25485547  0.12899890  0.75290872  1
  O  O357  1  0.25660963  0.61965095  0.25162544  1
  O  O358  1  0.26160607  0.61469322  0.75353173  1
  O  O359  1  0.75359957  0.10918976  0.25104784  1
  O  O360  1  0.75931016  0.11716967  0.75224963  1
  O  O361  1  0.76453587  0.62107676  0.24622618  1
  O  O362  1  0.75369899  0.62032177  0.75544508  1
  O  O363  1  0.36731383  0.12057143  0.36747051  1
  O  O364  1  0.36267830  0.12826054  0.86236710  1
  O  O365  1  0.36925208  0.62062690  0.36157464  1
  O  O366  1  0.37744835  0.61067667  0.87151028  1
  O  O367  1  0.87625327  0.12772053  0.36866346  1
  O  O368  1  0.87069445  0.11826523  0.87026500  1
  O  O369  1  0.87530969  0.61936474  0.36799628  1
  O  O370  1  0.86239140  0.63107434  0.86631067  1
  O  O371  1  0.13539910  0.37569684  0.12386204  1
  O  O372  1  0.12824358  0.38296403  0.63580059  1
  O  O373  1  0.12907398  0.86971051  0.13746405  1
  O  O374  1  0.11651829  0.88990764  0.61973198  1
  O  O375  1  0.63138963  0.37760408  0.13342842  1
  O  O376  1  0.63218311  0.38258898  0.63335217  1
  O  O377  1  0.62951567  0.88810589  0.11971019  1
  O  O378  1  0.63972350  0.87084131  0.62545106  1
  O  O379  1  0.12782951  0.25057756  0.25946215  1
  O  O380  1  0.11632681  0.26184116  0.74581258  1
  O  O381  1  0.11636657  0.75603724  0.25060465  1
  O  O382  1  0.11804715  0.74471550  0.76159961  1
  O  O383  1  0.61624031  0.25509650  0.25751421  1
  O  O384  1  0.61814796  0.25366539  0.75875442  1
  O  O385  1  0.60935669  0.74929695  0.24487710  1
  O  O386  1  0.61075359  0.74774210  0.75963611  1
  O  O387  1  0.37961960  0.24566893  0.24635544  1
  O  O388  1  0.38185971  0.25017820  0.74557714  1
  O  O389  1  0.38472885  0.74356284  0.24546281  1
  O  O390  1  0.38592004  0.73638762  0.75912528  1
  O  O391  1  0.87797256  0.24867088  0.23573184  1
  O  O392  1  0.88229633  0.23641992  0.75309148  1
  O  O393  1  0.88131614  0.74343671  0.24377336  1
  O  O394  1  0.88179194  0.74183783  0.74354511  1
  O  O395  1  0.39124191  0.49775914  0.49944159  1
  O  O396  1  0.38155049  0.49417931  0.99692696  1
  O  O397  1  0.37289797  1.00400292  0.48743972  1
  O  O398  1  0.38028324  0.99783928  0.99858624  1
  O  O399  1  0.87850838  0.49606717  0.49449991  1
  O  O400  1  0.88570748  0.49884940  1.00195442  1
  O  O401  1  0.88169549  0.98694404  0.50993466  1
  O  O402  1  0.88142302  0.99396727  0.99163576  1
  O  O403  1  0.11957049  -0.00647880  -0.01250843  1
  O  O404  1  0.12224760  0.01153501  0.50916557  1
  O  O405  1  0.11577284  0.50641563  -0.00080050  1
  O  O406  1  0.11604033  0.50751364  0.50390825  1
  O  O407  1  0.62681427  0.00741951  0.00931363  1
  O  O408  1  0.60756379  0.00409317  0.50212282  1
  O  O409  1  0.61847816  0.50352389  0.00400952  1
  O  O410  1  0.61711255  0.50171946  0.50789024  1
  O  O411  1  0.36981383  0.36781537  0.11459865  1
  O  O412  1  0.36951420  0.37295079  0.61645203  1
  O  O413  1  0.36270783  0.86606601  0.12306333  1
  O  O414  1  0.36745670  0.87917798  0.63602537  1
  O  O415  1  0.86594861  0.36780432  0.12331336  1
  O  O416  1  0.86450797  0.38383996  0.61669745  1
  O  O417  1  0.87648356  0.86637757  0.11469919  1
  O  O418  1  0.87102812  0.86868348  0.61984653  1
  O  O419  1  0.13000005  0.13203600  0.38249461  1
  O  O420  1  0.12862883  0.12915812  0.88673971  1
  O  O421  1  0.13064672  0.62502546  0.38054504  1
  O  O422  1  0.12153459  0.63000314  0.88564720  1
  O  O423  1  0.62809225  0.13705902  0.37493048  1
  O  O424  1  0.63225257  0.13555607  0.88145315  1
  O  O425  1  0.62827679  0.62124898  0.39275953  1
  O  O426  1  0.63754518  0.63009884  0.88190204  1
