# generated using pymatgen
data_V85Zn86O256
_symmetry_space_group_name_H-M   'P 1'
_cell_length_a   16.95970965
_cell_length_b   16.98538243
_cell_length_c   16.99555012
_cell_angle_alpha   89.98946641
_cell_angle_beta   89.95161503
_cell_angle_gamma   89.90705295
_symmetry_Int_Tables_number   1
_chemical_formula_structural   V85Zn86O256
_chemical_formula_sum   'V85 Zn86 O256'
_cell_volume   4895.85149125
_cell_formula_units_Z   1
loop_
 _symmetry_equiv_pos_site_id
 _symmetry_equiv_pos_as_xyz
  1  'x, y, z'
loop_
 _atom_site_type_symbol
 _atom_site_label
 _atom_site_symmetry_multiplicity
 _atom_site_fract_x
 _atom_site_fract_y
 _atom_site_fract_z
 _atom_site_occupancy
  V  V0  1  0.00531681  0.37643201  0.37134108  1
  V  V1  1  0.37583379  0.49800747  0.87802806  1
  V  V2  1  0.74466572  0.37735808  0.12865113  1
  V  V3  1  0.00115234  0.12575195  0.12452065  1
  V  V4  1  0.75204174  0.12909793  0.87104680  1
  V  V5  1  0.62309169  0.88057239  0.74378311  1
  V  V6  1  0.49675003  0.13206347  0.12937510  1
  V  V7  1  0.74529979  0.62310904  0.87417465  1
  V  V8  1  0.50111661  0.74982143  0.74804075  1
  V  V9  1  0.74750287  0.88117537  0.62233336  1
  V  V10  1  0.62113097  0.75189414  0.87538644  1
  V  V11  1  0.62442906  0.62680711  0.49167664  1
  V  V12  1  0.62421308  0.87336638  0.25683700  1
  V  V13  1  0.25404122  0.87784929  0.63263070  1
  V  V14  1  0.00432585  0.25062631  0.25505277  1
  V  V15  1  0.62492419  0.62452837  0.00523256  1
  V  V16  1  0.74943829  0.50051693  0.74257694  1
  V  V17  1  0.13765455  0.49584877  0.12966341  1
  V  V18  1  0.87463434  0.25272241  0.12652305  1
  V  V19  1  0.86714310  0.63246822  0.74876898  1
  V  V20  1  0.24669171  0.75258895  0.50131153  1
  V  V21  1  0.88546259  0.50811753  0.36362146  1
  V  V22  1  0.36166964  0.23868107  0.61176892  1
  V  V23  1  -0.00363668  0.87272284  0.87672288  1
  V  V24  1  0.49974838  0.26016882  0.25877811  1
  V  V25  1  -0.00231586  0.00095232  0.00139571  1
  V  V26  1  0.62582857  0.25209623  0.87055814  1
  V  V27  1  0.12699101  0.88171169  0.75237301  1
  V  V28  1  0.25510979  0.75076514  0.00059827  1
  V  V29  1  0.08548016  0.06258408  0.56674123  1
  V  V30  1  0.62604693  0.12903345  0.00287057  1
  V  V31  1  0.74736736  0.00818036  0.25582670  1
  V  V32  1  0.11564006  0.64534030  0.50932089  1
  V  V33  1  0.51128200  0.49808692  -0.00018897  1
  V  V34  1  0.87915585  0.00476372  0.37501712  1
  V  V35  1  0.25804359  0.00231331  0.25655057  1
  V  V36  1  0.75819240  0.63227270  0.36793485  1
  V  V37  1  0.12575108  0.87471958  0.24186261  1
  V  V38  1  0.50459048  0.11812320  0.62359222  1
  V  V39  1  0.74815145  0.87747128  0.12245301  1
  V  V40  1  0.11535628  0.26655173  0.86692222  1
  V  V41  1  0.87083976  0.00059038  0.87345682  1
  V  V42  1  0.75226069  0.50681448  0.24346428  1
  V  V43  1  0.37391586  0.38446025  0.49990088  1
  V  V44  1  0.87336281  0.12715535  0.25453169  1
  V  V45  1  0.00215824  0.50477000  0.50055919  1
  V  V46  1  -0.01112060  0.75324164  0.25250423  1
  V  V47  1  0.12448193  0.74916313  0.87573118  1
  V  V48  1  -0.00228963  0.75583729  0.74950803  1
  V  V49  1  0.75105679  0.25115502  0.00071875  1
  V  V50  1  0.62222369  0.00446282  0.12962463  1
  V  V51  1  0.87171249  0.87121171  0.00247078  1
  V  V52  1  0.14260860  0.23696164  0.38386834  1
  V  V53  1  0.49518390  0.25154170  0.74687950  1
  V  V54  1  0.74968275  0.37227715  0.62042818  1
  V  V55  1  0.13323580  0.12459384  -0.00858400  1
  V  V56  1  0.13545223  0.49857015  0.63099419  1
  V  V57  1  0.37360545  0.61985185  0.74632753  1
  V  V58  1  0.74490305  0.75247927  0.49348629  1
  V  V59  1  0.37778826  0.74787679  0.13007750  1
  V  V60  1  0.36841386  0.25821613  0.12812588  1
  V  V61  1  0.24813339  0.25979722  -0.00063998  1
  V  V62  1  0.37790686  0.74648073  0.62079321  1
  V  V63  1  0.87723747  0.75786903  0.62258243  1
  V  V64  1  0.88870766  0.24486891  0.62128641  1
  V  V65  1  0.48682402  -0.00032504  0.49998355  1
  V  V66  1  0.87175895  0.88146126  0.49452795  1
  V  V67  1  0.37456644  0.11939710  0.76632984  1
  V  V68  1  0.74658775  0.00486944  0.74146658  1
  V  V69  1  0.75117290  0.24601675  0.49072561  1
  V  V70  1  -0.00826701  0.62163103  0.13668463  1
  V  V71  1  0.50120517  0.74554893  0.25684463  1
  V  V72  1  0.25019908  0.62006242  0.87088263  1
  V  V73  1  0.62121058  0.38454893  0.25866241  1
  V  V74  1  0.49983041  0.62034430  0.12875614  1
  V  V75  1  0.25991151  -0.00387115  0.77266994  1
  V  V76  1  0.88846877  0.12530058  0.74369814  1
  V  V77  1  0.87719872  0.37502030  0.49577038  1
  V  V78  1  0.49471127  0.87459238  0.37587779  1
  V  V79  1  0.14166628  0.37321505  0.24701515  1
  V  V80  1  0.15645097  0.72624031  0.34002993  1
  V  V81  1  0.62986884  0.11577527  0.49459805  1
  V  V82  1  0.02297549  0.88017941  0.38811624  1
  V  V83  1  0.12186888  0.62256403  0.00188143  1
  V  V84  1  0.50287908  0.61769501  0.61981164  1
  Zn  Zn85  1  0.23874703  0.36279223  0.63205025  1
  Zn  Zn86  1  0.37944024  0.88310388  -0.00519006  1
  Zn  Zn87  1  -0.00525013  0.62298252  0.62918360  1
  Zn  Zn88  1  0.74737089  0.75055462  0.00105207  1
  Zn  Zn89  1  0.00059994  0.49104931  -0.00218374  1
  Zn  Zn90  1  0.25653659  0.88080765  0.12235764  1
  Zn  Zn91  1  0.90669561  0.46647811  0.86083464  1
  Zn  Zn92  1  0.51074267  0.48464328  0.49414257  1
  Zn  Zn93  1  0.49366219  0.88882646  0.87374342  1
  Zn  Zn94  1  0.48880729  0.00538214  -0.00422521  1
  Zn  Zn95  1  0.86939213  0.74450987  0.12588269  1
  Zn  Zn96  1  0.41564282  0.48871361  0.34782242  1
  Zn  Zn97  1  0.62526366  0.25200977  0.37684398  1
  Zn  Zn98  1  0.29199490  0.57132885  0.29823192  1
  Zn  Zn99  1  0.50072501  0.37406546  0.87649740  1
  Zn  Zn100  1  0.87991209  0.37571729  -0.00291405  1
  Zn  Zn101  1  0.37252060  0.87565948  0.49671602  1
  Zn  Zn102  1  0.12594658  0.00073159  0.12632022  1
  Zn  Zn103  1  0.37425413  0.38020395  0.00359976  1
  Zn  Zn104  1  0.62845615  0.50015947  0.62035299  1
  Zn  Zn105  1  0.62220634  0.37548702  0.74415385  1
  Zn  Zn106  1  0.36124449  0.13290305  0.26309082  1
  Zn  Zn107  1  0.18761196  0.18500910  0.18701111  1
  Zn  Zn108  1  0.18835862  0.17818944  0.69874865  1
  Zn  Zn109  1  0.18539110  0.68618824  0.17431479  1
  Zn  Zn110  1  0.18741328  0.68787894  0.68724927  1
  Zn  Zn111  1  0.68457109  0.19164636  0.19370812  1
  Zn  Zn112  1  0.68867288  0.18910805  0.68064155  1
  Zn  Zn113  1  0.68588810  0.69074900  0.18736653  1
  Zn  Zn114  1  0.68541388  0.69335292  0.68067416  1
  Zn  Zn115  1  0.31618282  0.31544046  0.31942797  1
  Zn  Zn116  1  0.29854621  0.30725842  0.81463033  1
  Zn  Zn117  1  0.31587719  0.81785455  0.30805341  1
  Zn  Zn118  1  0.31660699  0.80739587  0.81637256  1
  Zn  Zn119  1  0.81488629  0.31760144  0.31251781  1
  Zn  Zn120  1  0.84825220  0.32459404  0.79705912  1
  Zn  Zn121  1  0.81244113  0.81966755  0.31168278  1
  Zn  Zn122  1  0.80566673  0.81497728  0.81419396  1
  Zn  Zn123  1  0.19511973  0.41784377  0.43951056  1
  Zn  Zn124  1  0.18558140  0.43879719  0.93867030  1
  Zn  Zn125  1  0.19807374  0.95877807  0.45043877  1
  Zn  Zn126  1  0.18572409  0.93506491  0.94337368  1
  Zn  Zn127  1  0.69222602  0.44409331  0.43251947  1
  Zn  Zn128  1  0.71885718  0.41992242  0.91765555  1
  Zn  Zn129  1  0.68369512  0.94262505  0.43312971  1
  Zn  Zn130  1  0.65635326  0.95536106  0.92377086  1
  Zn  Zn131  1  0.31241409  0.06404940  0.07140765  1
  Zn  Zn132  1  0.29867188  0.05814559  0.56923617  1
  Zn  Zn133  1  0.31665967  0.56645405  0.06219644  1
  Zn  Zn134  1  0.29519330  0.55732309  0.46951532  1
  Zn  Zn135  1  0.81189323  0.06303044  0.06414222  1
  Zn  Zn136  1  0.81522965  0.06513759  0.56096451  1
  Zn  Zn137  1  0.81653546  0.55654065  0.05497577  1
  Zn  Zn138  1  0.81501424  0.56527331  0.55795971  1
  Zn  Zn139  1  0.43211222  0.44216955  0.18337805  1
  Zn  Zn140  1  0.39098339  0.41205031  0.70921248  1
  Zn  Zn141  1  0.43721544  0.93631725  0.18122733  1
  Zn  Zn142  1  0.43724262  0.93882391  0.68741365  1
  Zn  Zn143  1  0.94154870  0.43588876  0.18334041  1
  Zn  Zn144  1  0.94261025  0.43476801  0.68345289  1
  Zn  Zn145  1  0.93767842  0.93799411  0.19024606  1
  Zn  Zn146  1  0.94510539  0.94899726  0.67923916  1
  Zn  Zn147  1  0.06474924  0.06037553  0.31304841  1
  Zn  Zn148  1  0.06615916  0.05995584  0.81524541  1
  Zn  Zn149  1  0.11971896  0.54740786  0.33681214  1
  Zn  Zn150  1  0.06253900  0.56285856  0.80607090  1
  Zn  Zn151  1  0.52510492  0.07905347  0.32970851  1
  Zn  Zn152  1  0.56329264  0.06677740  0.80929166  1
  Zn  Zn153  1  0.57374009  0.56798952  0.31270840  1
  Zn  Zn154  1  0.56271739  0.56047686  0.81018351  1
  Zn  Zn155  1  0.43483204  0.18543316  0.43516878  1
  Zn  Zn156  1  0.43920136  0.19151492  0.94298129  1
  Zn  Zn157  1  0.43204628  0.67937736  0.43017146  1
  Zn  Zn158  1  0.43815473  0.68982649  0.93715435  1
  Zn  Zn159  1  0.95310330  0.17984013  0.44501156  1
  Zn  Zn160  1  0.93927804  0.19129080  0.93659784  1
  Zn  Zn161  1  0.93845767  0.69566546  0.43608461  1
  Zn  Zn162  1  0.95159135  0.65212692  0.92049624  1
  Zn  Zn163  1  0.06331914  0.31358868  0.06128408  1
  Zn  Zn164  1  0.06717320  0.31487829  0.55788997  1
  Zn  Zn165  1  0.05846812  0.80692813  0.06322969  1
  Zn  Zn166  1  0.06666781  0.86274318  0.55900520  1
  Zn  Zn167  1  0.56442492  0.31698456  0.06657224  1
  Zn  Zn168  1  0.55982838  0.30643847  0.56168181  1
  Zn  Zn169  1  0.55925032  0.81443194  0.06333197  1
  Zn  Zn170  1  0.56281502  0.81237025  0.56125514  1
  O  O171  1  0.11132595  0.12682785  0.11743373  1
  O  O172  1  0.10661488  0.12341068  0.64266329  1
  O  O173  1  0.11627357  0.61439866  0.11895418  1
  O  O174  1  0.11629814  0.62428441  0.62082398  1
  O  O175  1  0.62180796  0.12251682  0.12247639  1
  O  O176  1  0.61433195  0.13105943  0.61150204  1
  O  O177  1  0.61982454  0.63123326  0.11042295  1
  O  O178  1  0.61992213  0.62838509  0.61147784  1
  O  O179  1  0.37050753  0.38244192  0.39370132  1
  O  O180  1  0.37494631  0.38976785  0.87944924  1
  O  O181  1  0.39050199  0.87143500  0.37767950  1
  O  O182  1  0.38400497  0.86315561  0.88131140  1
  O  O183  1  0.88503292  0.38617556  0.37796814  1
  O  O184  1  0.82787499  0.38231882  0.89064965  1
  O  O185  1  0.87793284  0.88759789  0.37956466  1
  O  O186  1  0.87456315  0.88210456  0.88184815  1
  O  O187  1  0.25091240  -0.01216550  0.35591634  1
  O  O188  1  0.25302413  -0.00804343  0.87149952  1
  O  O189  1  0.22263099  0.51270612  0.38493151  1
  O  O190  1  0.25827547  0.51348893  0.88555379  1
  O  O191  1  0.75782719  -0.00361355  0.36120797  1
  O  O192  1  0.75124269  0.00880152  0.86360427  1
  O  O193  1  0.76406332  0.51069278  0.36372535  1
  O  O194  1  0.73927621  0.51795946  0.86005330  1
  O  O195  1  0.23594222  0.51034480  0.12310506  1
  O  O196  1  0.23166539  0.50659851  0.61703032  1
  O  O197  1  0.24245820  0.99711005  0.13618651  1
  O  O198  1  0.26718994  0.97951421  0.64833028  1
  O  O199  1  0.75971985  0.49443214  0.13666086  1
  O  O200  1  0.75220089  0.49274500  0.62594295  1
  O  O201  1  0.74673626  0.99669295  0.13724085  1
  O  O202  1  0.75459030  0.99652743  0.63433909  1
  O  O203  1  0.00721219  0.36606754  0.25352105  1
  O  O204  1  -0.05560312  0.38919423  0.78116994  1
  O  O205  1  0.00738964  0.86967120  0.25491702  1
  O  O206  1  0.00772265  0.87552455  0.75575435  1
  O  O207  1  0.51137196  0.37294254  0.24033294  1
  O  O208  1  0.49405716  0.36000865  0.74970807  1
  O  O209  1  0.50615658  0.87079211  0.25697254  1
  O  O210  1  0.50864718  0.87075276  0.75064915  1
  O  O211  1  0.51460994  0.14430036  0.23495548  1
  O  O212  1  0.49320626  0.12914799  0.74269809  1
  O  O213  1  0.51382607  0.63447146  0.23935882  1
  O  O214  1  0.49851919  0.63080749  0.73952570  1
  O  O215  1  0.99532063  0.13078267  0.24238574  1
  O  O216  1  0.98636710  0.11370322  0.75516848  1
  O  O217  1  1.00140218  0.63541884  0.23672131  1
  O  O218  1  0.98456708  0.63877674  0.74693489  1
  O  O219  1  0.36232715  0.25051368  0.00603906  1
  O  O220  1  0.37327681  0.24224045  0.50974381  1
  O  O221  1  0.36677102  0.74565211  0.00753045  1
  O  O222  1  0.36599306  0.74929108  0.50735813  1
  O  O223  1  0.86653769  0.24897525  0.00870789  1
  O  O224  1  0.87229054  0.25020880  0.50261644  1
  O  O225  1  0.86889676  0.76711587  -0.00083788  1
  O  O226  1  0.86080159  0.75525607  0.50667443  1
  O  O227  1  0.12465013  0.25318950  0.48229278  1
  O  O228  1  0.13383993  0.24269729  0.99802473  1
  O  O229  1  0.12864047  0.75127673  0.51286018  1
  O  O230  1  0.13192787  0.74262234  0.99591737  1
  O  O231  1  0.63387717  0.24180380  0.49679821  1
  O  O232  1  0.62975505  0.24713778  0.99265277  1
  O  O233  1  0.63901497  0.74659316  0.50258521  1
  O  O234  1  0.62582760  0.74426751  0.99082562  1
  O  O235  1  0.49262864  0.24801621  0.12956311  1
  O  O236  1  0.49167249  0.23546596  0.63162099  1
  O  O237  1  0.49602318  0.74203463  0.13244226  1
  O  O238  1  0.49488335  0.74441803  0.62872873  1
  O  O239  1  0.99617711  0.24452701  0.13699263  1
  O  O240  1  0.98696139  0.26109884  0.61878401  1
  O  O241  1  0.99377855  0.74047770  0.13194292  1
  O  O242  1  0.98337315  0.75854604  0.63164913  1
  O  O243  1  0.00100398  0.25338642  0.36394392  1
  O  O244  1  0.01652767  0.24781750  0.87779489  1
  O  O245  1  -0.00332756  0.76432877  0.36395481  1
  O  O246  1  0.00276047  0.75354900  0.86919303  1
  O  O247  1  0.50030447  0.25623346  0.36101736  1
  O  O248  1  0.50802833  0.25112697  0.86749054  1
  O  O249  1  0.49711677  0.75215389  0.36307707  1
  O  O250  1  0.51226811  0.74523743  0.86642689  1
  O  O251  1  0.18682305  0.04785230  0.52624819  1
  O  O252  1  0.23473550  0.13077169  1.00861257  1
  O  O253  1  0.23245928  0.64602169  0.50708799  1
  O  O254  1  0.24054745  0.63329915  0.99647760  1
  O  O255  1  0.73710737  0.13015194  0.50384276  1
  O  O256  1  0.74618774  0.13222254  0.99432782  1
  O  O257  1  0.74703063  0.63464575  0.49209695  1
  O  O258  1  0.74242009  0.62578445  0.99072366  1
  O  O259  1  0.25019986  0.36268370  0.00223581  1
  O  O260  1  0.26614800  0.37053030  0.51348054  1
  O  O261  1  0.24711900  0.85931459  0.00380737  1
  O  O262  1  0.25292828  0.86984181  0.51465628  1
  O  O263  1  0.74147666  0.36559063  0.01697588  1
  O  O264  1  0.75771063  0.36958440  0.50165667  1
  O  O265  1  0.75240181  0.88119139  0.01380289  1
  O  O266  1  0.75321382  0.87166856  0.50009639  1
  O  O267  1  0.12271704  0.48854692  0.23832622  1
  O  O268  1  0.12103096  0.50793386  0.73115987  1
  O  O269  1  0.13019578  0.98819855  0.24910295  1
  O  O270  1  0.13821550  0.98727128  0.76125681  1
  O  O271  1  0.64102392  0.49608671  0.24987016  1
  O  O272  1  0.63503613  0.49847624  0.74174026  1
  O  O273  1  0.63234098  0.99661801  0.24231366  1
  O  O274  1  0.63471040  0.99287441  0.74855879  1
  O  O275  1  0.36022646  -0.00320066  0.24185187  1
  O  O276  1  0.37723052  0.01088987  0.75556389  1
  O  O277  1  0.36452675  0.50070089  0.24919282  1
  O  O278  1  0.38700872  0.51572293  0.76079412  1
  O  O279  1  0.86738183  0.00688402  0.25542923  1
  O  O280  1  0.86822525  0.00500198  0.75134122  1
  O  O281  1  0.87456366  0.49773521  0.26007189  1
  O  O282  1  0.85825252  0.51977199  0.74644663  1
  O  O283  1  0.12155980  0.36342119  0.36530769  1
  O  O284  1  0.12606438  0.36639448  0.87702550  1
  O  O285  1  0.12696053  0.84254685  0.34865340  1
  O  O286  1  0.11750144  0.86731662  0.87261523  1
  O  O287  1  0.63569291  0.37390249  0.36167156  1
  O  O288  1  0.62776640  0.36239979  0.86663904  1
  O  O289  1  0.62041504  0.87588990  0.36150851  1
  O  O290  1  0.63101818  0.86343097  0.85871986  1
  O  O291  1  0.38346717  0.13877001  0.13447392  1
  O  O292  1  0.37914130  0.12774775  0.62694723  1
  O  O293  1  0.38741898  0.63598592  0.12212927  1
  O  O294  1  0.38490155  0.63579640  0.63210602  1
  O  O295  1  0.88466917  0.13205928  0.12996301  1
  O  O296  1  0.87742961  0.13157547  0.63001700  1
  O  O297  1  0.88880118  0.62592130  0.11827924  1
  O  O298  1  0.86914184  0.63963756  0.63314416  1
  O  O299  1  0.25656676  0.24432965  0.11381768  1
  O  O300  1  0.25970642  0.23801954  0.62745082  1
  O  O301  1  0.26062154  0.74756206  0.11682914  1
  O  O302  1  0.26043523  0.75610814  0.62283894  1
  O  O303  1  0.75524361  0.25660287  0.12379802  1
  O  O304  1  0.75756804  0.25675320  0.61144070  1
  O  O305  1  0.75135853  0.76159402  0.12230097  1
  O  O306  1  0.75856516  0.76198089  0.61744786  1
  O  O307  1  0.24259526  0.24397232  0.37238586  1
  O  O308  1  0.24203748  0.24781877  0.89344277  1
  O  O309  1  0.24965560  0.75902758  0.38688314  1
  O  O310  1  0.24614247  0.73748702  0.88305454  1
  O  O311  1  0.75463411  0.25313055  0.38781302  1
  O  O312  1  0.74201013  0.24117349  0.87943689  1
  O  O313  1  0.75888826  0.74502863  0.38126830  1
  O  O314  1  0.73577850  0.74167408  0.87447477  1
  O  O315  1  0.00530479  0.12151183  0.00767060  1
  O  O316  1  0.02194260  0.11072783  0.50490185  1
  O  O317  1  0.01529509  0.63405849  0.01480136  1
  O  O318  1  -0.00072748  0.62552564  0.50688555  1
  O  O319  1  0.50797853  0.12831659  0.01364942  1
  O  O320  1  0.50818089  0.11658860  0.50700579  1
  O  O321  1  0.50770500  0.62164223  0.00662102  1
  O  O322  1  0.51279052  0.63425868  0.50459283  1
  O  O323  1  0.48280766  0.37068392  0.50739003  1
  O  O324  1  0.50042528  0.38512394  0.99813993  1
  O  O325  1  0.49953175  0.88068918  0.49443794  1
  O  O326  1  0.50400425  0.88274429  0.99568098  1
  O  O327  1  0.99661244  0.38648928  0.49062494  1
  O  O328  1  0.99376671  0.37699438  1.00542342  1
  O  O329  1  0.97401148  0.85155028  0.49100985  1
  O  O330  1  0.99060890  0.87939966  0.99668345  1
  O  O331  1  0.51812330  0.50301809  0.38322988  1
  O  O332  1  0.49425762  0.49913032  0.88212418  1
  O  O333  1  0.51076351  0.98386506  0.39050383  1
  O  O334  1  0.54186470  0.99489113  0.89089378  1
  O  O335  1  1.00169574  0.49954357  0.38038168  1
  O  O336  1  0.99055572  0.54103811  0.88725462  1
  O  O337  1  0.99044890  0.98527278  0.36220917  1
  O  O338  1  0.99190154  0.99155631  0.88241956  1
  O  O339  1  -0.00038702  0.00944115  0.11978420  1
  O  O340  1  0.03034731  -0.01881436  0.60847284  1
  O  O341  1  0.00691521  0.51311403  0.12616751  1
  O  O342  1  -0.00297259  0.50320199  0.61419428  1
  O  O343  1  0.50953989  0.01297380  0.13056185  1
  O  O344  1  0.49782545  0.00989699  0.61793257  1
  O  O345  1  0.49778550  0.51339336  0.11572226  1
  O  O346  1  0.50545187  0.51572008  0.61742607  1
  O  O347  1  0.24039584  0.36825306  0.25006409  1
  O  O348  1  0.28322741  0.38035228  0.73549171  1
  O  O349  1  0.24261502  0.87837323  0.24170832  1
  O  O350  1  0.24559237  0.87492255  0.75240175  1
  O  O351  1  0.74710447  0.38599627  0.24606858  1
  O  O352  1  0.75236993  0.38601810  0.73557802  1
  O  O353  1  0.74290917  0.88270185  0.24081581  1
  O  O354  1  0.74419910  0.88527416  0.74327221  1
  O  O355  1  0.24774105  0.10878736  0.24879402  1
  O  O356  1  0.26686308  0.11065889  0.75237076  1
  O  O357  1  0.21136851  0.64843594  0.27720658  1
  O  O358  1  0.26057213  0.63114771  0.75986832  1
  O  O359  1  0.75874539  0.11885680  0.24688872  1
  O  O360  1  0.75358952  0.11882732  0.75139643  1
  O  O361  1  0.74781189  0.62102928  0.25603815  1
  O  O362  1  0.74879732  0.62455484  0.75111055  1
  O  O363  1  0.41556340  0.11063210  0.35791791  1
  O  O364  1  0.38496482  0.12727733  0.86380089  1
  O  O365  1  0.36667043  0.59981448  0.38748244  1
  O  O366  1  0.36985493  0.61896678  0.86922716  1
  O  O367  1  0.88704440  0.11195213  0.37294023  1
  O  O368  1  0.86884257  0.12065075  0.86766886  1
  O  O369  1  0.86806132  0.62047550  0.37838442  1
  O  O370  1  0.85701642  0.64307506  0.85766552  1
  O  O371  1  0.12371550  0.38851421  0.13172973  1
  O  O372  1  0.12529833  0.39152214  0.61830946  1
  O  O373  1  0.12210999  0.87475243  0.13232285  1
  O  O374  1  0.14158692  0.86414613  0.64380743  1
  O  O375  1  0.63872681  0.37197944  0.13972192  1
  O  O376  1  0.63761401  0.37269386  0.62315889  1
  O  O377  1  0.63038042  0.88536044  0.13321684  1
  O  O378  1  0.63160561  0.86978437  0.63640293  1
  O  O379  1  0.11942884  0.25545140  0.25330639  1
  O  O380  1  0.13643573  0.24929174  0.76985154  1
  O  O381  1  0.11099067  0.75298595  0.23918039  1
  O  O382  1  0.11934539  0.75690956  0.75854863  1
  O  O383  1  0.61898672  0.26321547  0.25553869  1
  O  O384  1  0.61517664  0.24865299  0.75413318  1
  O  O385  1  0.61454156  0.76339910  0.24249132  1
  O  O386  1  0.61928391  0.75652322  0.75373691  1
  O  O387  1  0.38161851  0.25305668  0.24514955  1
  O  O388  1  0.38003690  0.23326039  0.74349695  1
  O  O389  1  0.38618925  0.75121329  0.24214135  1
  O  O390  1  0.38319203  0.73797026  0.74434415  1
  O  O391  1  0.88238319  0.24541789  0.24727296  1
  O  O392  1  0.86715304  0.23481679  0.73289197  1
  O  O393  1  0.88507612  0.75935529  0.24514353  1
  O  O394  1  0.87335862  0.75307756  0.74078397  1
  O  O395  1  0.37698759  0.48514148  0.51591589  1
  O  O396  1  0.38640451  0.50335166  0.99306035  1
  O  O397  1  0.38313940  0.99864884  0.50668014  1
  O  O398  1  0.37723235  0.99764561  1.01196233  1
  O  O399  1  0.88507276  0.49909890  0.48828559  1
  O  O400  1  0.88096504  0.49643423  0.98796949  1
  O  O401  1  0.86915336  0.99209841  0.48972492  1
  O  O402  1  0.87755542  0.99307981  0.99446255  1
  O  O403  1  0.11806809  0.01041252  0.00217291  1
  O  O404  1  0.09035239  -0.07384385  0.46091316  1
  O  O405  1  0.12291308  0.50680124  0.01111626  1
  O  O406  1  0.10928260  0.51811920  0.50813726  1
  O  O407  1  0.63536618  0.01243089  0.02140020  1
  O  O408  1  0.62154703  0.01219156  0.50107081  1
  O  O409  1  0.61457233  0.50975177  -0.00748791  1
  O  O410  1  0.63101389  0.51259976  0.50244222  1
  O  O411  1  0.37831946  0.36175500  0.12061511  1
  O  O412  1  0.37822606  0.34666367  0.61439058  1
  O  O413  1  0.37710953  0.85883451  0.11977905  1
  O  O414  1  0.37384774  0.85963454  0.62763115  1
  O  O415  1  0.86371064  0.36662274  0.12927428  1
  O  O416  1  0.86525580  0.36855507  0.61292183  1
  O  O417  1  0.86592480  0.87854403  0.11836534  1
  O  O418  1  0.86867451  0.87628630  0.61508322  1
  O  O419  1  0.12100213  0.13950706  0.36957503  1
  O  O420  1  0.12208076  0.12773027  0.89035973  1
  O  O421  1  0.10640685  0.64858539  0.39284177  1
  O  O422  1  0.13313149  0.62910001  0.88206334  1
  O  O423  1  0.61675258  0.12860511  0.39182925  1
  O  O424  1  0.63136881  0.13750437  0.87910385  1
  O  O425  1  0.64407585  0.62895797  0.38483584  1
  O  O426  1  0.62719919  0.63238882  0.88231052  1
