# generated using pymatgen
data_V85Zn86O256
_symmetry_space_group_name_H-M   'P 1'
_cell_length_a   16.95759811
_cell_length_b   16.96967599
_cell_length_c   16.96966826
_cell_angle_alpha   90.01858676
_cell_angle_beta   89.99154915
_cell_angle_gamma   89.93863494
_symmetry_Int_Tables_number   1
_chemical_formula_structural   V85Zn86O256
_chemical_formula_sum   'V85 Zn86 O256'
_cell_volume   4883.27255198
_cell_formula_units_Z   1
loop_
 _symmetry_equiv_pos_site_id
 _symmetry_equiv_pos_as_xyz
  1  'x, y, z'
loop_
 _atom_site_type_symbol
 _atom_site_label
 _atom_site_symmetry_multiplicity
 _atom_site_fract_x
 _atom_site_fract_y
 _atom_site_fract_z
 _atom_site_occupancy
  V  V0  1  0.12608244  0.12984031  -0.01206015  1
  V  V1  1  -0.00752914  0.87964256  0.37347648  1
  V  V2  1  0.00335569  0.11969923  0.12285833  1
  V  V3  1  0.87297272  0.74536848  0.62398846  1
  V  V4  1  0.62343851  0.74546777  0.36863385  1
  V  V5  1  0.61352960  0.37215822  0.75153617  1
  V  V6  1  0.75189808  0.49798546  0.25155654  1
  V  V7  1  0.38373206  0.12355969  0.24301953  1
  V  V8  1  0.50599662  0.37422612  0.36442835  1
  V  V9  1  0.74358411  0.87546033  0.63205705  1
  V  V10  1  0.62974930  0.49836040  0.62612243  1
  V  V11  1  0.51530642  -0.00155021  0.50521680  1
  V  V12  1  0.48928743  0.37039166  0.88552580  1
  V  V13  1  0.00045939  0.62717853  0.62740081  1
  V  V14  1  0.74896101  0.49380499  0.75169251  1
  V  V15  1  0.49897673  -0.00517102  -0.00872547  1
  V  V16  1  0.88387477  0.87657799  -0.01510292  1
  V  V17  1  -0.01191449  0.49861473  0.50002635  1
  V  V18  1  0.62213716  0.86823727  0.24601950  1
  V  V19  1  0.75367717  -0.00392388  0.25174521  1
  V  V20  1  0.00143863  0.37250407  0.87679226  1
  V  V21  1  0.49730553  0.86837945  0.36927939  1
  V  V22  1  0.12709994  0.37018180  0.75583843  1
  V  V23  1  0.87597919  0.37387896  0.00164583  1
  V  V24  1  0.62622967  0.62279868  0.49729255  1
  V  V25  1  0.62501741  0.63234008  0.00264714  1
  V  V26  1  0.25395256  0.00596710  0.74181522  1
  V  V27  1  -0.00073547  0.74812532  0.24142971  1
  V  V28  1  0.87646896  0.11939446  0.25358672  1
  V  V29  1  -0.00336218  0.25125238  0.75141089  1
  V  V30  1  0.87422371  0.50156543  0.87760104  1
  V  V31  1  0.36818044  0.63179234  0.76366546  1
  V  V32  1  0.37429829  0.50082423  0.37464661  1
  V  V33  1  0.74995935  0.12217496  0.37968079  1
  V  V34  1  0.25707381  0.25371025  -0.00721438  1
  V  V35  1  0.12451337  0.75259960  0.87374506  1
  V  V36  1  0.12921229  0.63006497  0.50338742  1
  V  V37  1  0.12620949  0.25390282  0.37284151  1
  V  V38  1  0.12308291  0.37795883  0.24893541  1
  V  V39  1  0.00067891  0.25018411  0.24953429  1
  V  V40  1  0.24770247  0.87495478  0.12199111  1
  V  V41  1  0.24357991  0.86588556  0.61944790  1
  V  V42  1  0.61771680  0.00299165  0.12632763  1
  V  V43  1  0.12583029  0.49751794  0.62516819  1
  V  V44  1  0.75258765  0.74478056  0.49854673  1
  V  V45  1  0.75539949  0.12026635  0.88144694  1
  V  V46  1  0.74577071  0.37280564  0.12826195  1
  V  V47  1  0.62688041  0.24713529  0.38011822  1
  V  V48  1  0.25374765  0.37067414  0.62549018  1
  V  V49  1  0.87525020  0.24764084  0.12364430  1
  V  V50  1  0.37517276  0.37246617  0.49704240  1
  V  V51  1  0.24858562  0.62981333  0.37887667  1
  V  V52  1  0.37585246  0.00036115  0.37906694  1
  V  V53  1  0.12150782  0.88177846  0.75198395  1
  V  V54  1  -0.01171940  0.37955975  0.37962014  1
  V  V55  1  0.74628182  0.62630416  0.88064503  1
  V  V56  1  0.12182354  0.50895819  0.12630694  1
  V  V57  1  0.76145120  0.62285050  0.37464715  1
  V  V58  1  0.12059904  0.12677438  0.49930309  1
  V  V59  1  0.87938324  0.62186615  0.23912356  1
  V  V60  1  -0.01242348  0.12195362  0.62029793  1
  V  V61  1  0.49975993  0.62932202  0.13161766  1
  V  V62  1  0.12540040  0.75382114  0.37859419  1
  V  V63  1  0.49042598  0.62885493  0.63175909  1
  V  V64  1  0.62195628  0.49615322  0.12776283  1
  V  V65  1  0.49951435  0.49957422  0.49990198  1
  V  V66  1  0.50728568  0.24388392  0.24375059  1
  V  V67  1  0.24819605  0.00175233  0.24730261  1
  V  V68  1  0.75315452  0.86860245  0.11352424  1
  V  V69  1  0.39502335  0.12838836  0.74171572  1
  V  V70  1  0.25112181  0.12844651  0.37304593  1
  V  V71  1  0.24680060  0.50403494  0.25089484  1
  V  V72  1  0.00057742  0.50453731  0.00398274  1
  V  V73  1  0.61619461  0.12985742  0.00339732  1
  V  V74  1  0.87152609  0.11477698  0.75212703  1
  V  V75  1  -0.00206332  0.75330009  0.75572312  1
  V  V76  1  0.87046273  0.88521687  0.49839989  1
  V  V77  1  0.25209251  0.25012143  0.49646998  1
  V  V78  1  0.61814650  0.75653731  0.86435409  1
  V  V79  1  0.36581037  0.86421169  0.49879231  1
  V  V80  1  0.86722394  0.26644635  0.62150461  1
  V  V81  1  0.37618157  0.62950729  0.25169303  1
  V  V82  1  0.25045098  0.74942450  -0.00874607  1
  V  V83  1  0.37690024  0.75244548  0.12951665  1
  V  V84  1  0.12378090  0.62778472  -0.00345442  1
  Zn  Zn85  1  0.87294678  0.62436989  0.75193986  1
  Zn  Zn86  1  0.74280066  -0.00727778  0.75567427  1
  Zn  Zn87  1  0.48962298  0.49769090  0.00379090  1
  Zn  Zn88  1  0.25328888  0.37717822  0.11723613  1
  Zn  Zn89  1  0.37857746  0.87429477  -0.00233088  1
  Zn  Zn90  1  0.87547968  0.74641250  0.11574523  1
  Zn  Zn91  1  0.25218963  0.50298758  0.75556746  1
  Zn  Zn92  1  0.42217549  0.80148098  0.66796223  1
  Zn  Zn93  1  0.12639571  0.00042711  0.11698561  1
  Zn  Zn94  1  -0.01024853  0.00615082  0.49102390  1
  Zn  Zn95  1  0.75296111  0.26496322  0.49831939  1
  Zn  Zn96  1  0.39602408  0.24699135  0.62497719  1
  Zn  Zn97  1  0.12128322  0.87627349  0.24853185  1
  Zn  Zn98  1  0.11968590  0.00243217  0.62063536  1
  Zn  Zn99  1  0.25106788  0.12781616  0.86620397  1
  Zn  Zn100  1  0.62445744  0.25167899  0.87500321  1
  Zn  Zn101  1  0.55512225  0.13714489  0.59422186  1
  Zn  Zn102  1  0.37404139  -0.00283612  0.86944580  1
  Zn  Zn103  1  0.37852496  0.25346459  0.11911974  1
  Zn  Zn104  1  0.36423178  0.49973832  0.88670286  1
  Zn  Zn105  1  0.74890156  0.25054508  0.00001609  1
  Zn  Zn106  1  0.00036842  0.00086136  -0.01836081  1
  Zn  Zn107  1  0.19011880  0.18832793  0.18103322  1
  Zn  Zn108  1  0.18292798  0.19020301  0.68176807  1
  Zn  Zn109  1  0.18583232  0.68947793  0.18747590  1
  Zn  Zn110  1  0.18952106  0.68968187  0.69180921  1
  Zn  Zn111  1  0.68686893  0.18574530  0.19000321  1
  Zn  Zn112  1  0.69211516  0.19389065  0.69374683  1
  Zn  Zn113  1  0.68985271  0.68676431  0.18650183  1
  Zn  Zn114  1  0.68620670  0.68101410  0.68891939  1
  Zn  Zn115  1  0.32331372  0.32201783  0.28899262  1
  Zn  Zn116  1  0.31429280  0.30607660  0.81020660  1
  Zn  Zn117  1  0.30815394  0.81352756  0.31073941  1
  Zn  Zn118  1  0.45554309  0.83716892  0.83052141  1
  Zn  Zn119  1  0.81055041  0.31018108  0.30957890  1
  Zn  Zn120  1  0.80957984  0.31005020  0.81485582  1
  Zn  Zn121  1  0.81319938  0.80921086  0.30908744  1
  Zn  Zn122  1  0.80516771  0.80245881  0.81409719  1
  Zn  Zn123  1  0.18357749  0.43926686  0.43781298  1
  Zn  Zn124  1  0.19025483  0.43683577  0.93543939  1
  Zn  Zn125  1  0.18330434  0.94069476  0.43610892  1
  Zn  Zn126  1  0.18929778  0.93986605  0.93213144  1
  Zn  Zn127  1  0.68431465  0.43713518  0.42988983  1
  Zn  Zn128  1  0.68210367  0.43981856  0.94095900  1
  Zn  Zn129  1  0.69254379  0.93104328  0.43113587  1
  Zn  Zn130  1  0.68475094  0.93938701  0.93586278  1
  Zn  Zn131  1  0.31250037  0.06794546  0.06153346  1
  Zn  Zn132  1  0.31450206  0.05947883  0.56361587  1
  Zn  Zn133  1  0.30900626  0.56434690  0.06112981  1
  Zn  Zn134  1  0.30998579  0.56032940  0.56467333  1
  Zn  Zn135  1  0.81160205  0.05623376  0.06308146  1
  Zn  Zn136  1  0.76602515  0.08233479  0.58334168  1
  Zn  Zn137  1  0.80980987  0.56100861  0.06284617  1
  Zn  Zn138  1  0.81010379  0.44117520  0.56331009  1
  Zn  Zn139  1  0.43425126  0.43720325  0.18512845  1
  Zn  Zn140  1  0.43459469  0.44285637  0.68973332  1
  Zn  Zn141  1  0.43737929  0.93752137  0.18644604  1
  Zn  Zn142  1  0.56649487  0.93434673  0.69022436  1
  Zn  Zn143  1  0.93604543  0.43788462  0.18751641  1
  Zn  Zn144  1  0.94261450  0.44364671  0.69380422  1
  Zn  Zn145  1  0.93636698  0.93661553  0.18387092  1
  Zn  Zn146  1  0.93755355  0.93760006  0.80822208  1
  Zn  Zn147  1  0.06322904  0.06172042  0.31250123  1
  Zn  Zn148  1  0.06462465  0.06887028  0.80712052  1
  Zn  Zn149  1  0.05779111  0.56461534  0.31712972  1
  Zn  Zn150  1  0.06684599  0.56358548  0.81450783  1
  Zn  Zn151  1  0.56596598  0.05910046  0.31748718  1
  Zn  Zn152  1  0.57025150  0.06515146  0.81571490  1
  Zn  Zn153  1  0.56430246  0.56073053  0.30861611  1
  Zn  Zn154  1  0.55619622  0.55828851  0.81670281  1
  Zn  Zn155  1  0.44084173  0.18561554  0.43841095  1
  Zn  Zn156  1  0.43675629  0.18524406  0.92845918  1
  Zn  Zn157  1  0.43853569  0.68765236  0.43897894  1
  Zn  Zn158  1  0.43956887  0.68488355  0.94493474  1
  Zn  Zn159  1  0.93247722  0.19463149  0.43642199  1
  Zn  Zn160  1  0.93880432  0.18586472  0.93611958  1
  Zn  Zn161  1  0.94103159  0.68764918  0.43600671  1
  Zn  Zn162  1  0.93650642  0.68974329  0.93883876  1
  Zn  Zn163  1  0.06747086  0.31108965  0.06305624  1
  Zn  Zn164  1  0.05836965  0.31198745  0.56381946  1
  Zn  Zn165  1  0.06101452  0.81667562  0.06193833  1
  Zn  Zn166  1  0.05740422  0.81556759  0.56266745  1
  Zn  Zn167  1  0.56246499  0.31259736  0.06360346  1
  Zn  Zn168  1  0.56818946  0.31760756  0.55961309  1
  Zn  Zn169  1  0.56286796  0.81120772  0.06163456  1
  Zn  Zn170  1  0.56336474  0.81050046  0.55239848  1
  O  O171  1  0.11739849  0.12249181  0.11704841  1
  O  O172  1  0.10989587  0.13011465  0.61245061  1
  O  O173  1  0.12264700  0.61402270  0.12176185  1
  O  O174  1  0.12248504  0.61938758  0.62108859  1
  O  O175  1  0.63486636  0.11340826  0.11581419  1
  O  O176  1  0.66212591  0.12005541  0.61722487  1
  O  O177  1  0.61812347  0.62146230  0.12244934  1
  O  O178  1  0.61459613  0.61467329  0.62029159  1
  O  O179  1  0.38173308  0.38304632  0.37719341  1
  O  O180  1  0.38815287  0.37363220  0.86700353  1
  O  O181  1  0.37914013  0.88080308  0.37512100  1
  O  O182  1  0.37280720  0.88470717  0.88561872  1
  O  O183  1  0.88972795  0.37030439  0.36687008  1
  O  O184  1  0.88029867  0.38140210  0.88236461  1
  O  O185  1  0.88180276  0.86344296  0.38482121  1
  O  O186  1  0.86918909  0.87350373  0.88095094  1
  O  O187  1  0.25695814  0.00475689  0.36706349  1
  O  O188  1  0.24692304  0.00339963  0.85491071  1
  O  O189  1  0.25250357  0.50926076  0.37121897  1
  O  O190  1  0.25048315  0.49778382  0.86852886  1
  O  O191  1  0.74528047  0.00475543  0.35934727  1
  O  O192  1  0.74795860  0.01580941  0.87726199  1
  O  O193  1  0.74198977  0.50911572  0.35841029  1
  O  O194  1  0.75271787  0.50719798  0.87265838  1
  O  O195  1  0.23870986  0.49838552  0.13385118  1
  O  O196  1  0.24329374  0.48645326  0.62692740  1
  O  O197  1  0.25206197  0.99383122  0.13107816  1
  O  O198  1  0.24178111  0.99674921  0.62935382  1
  O  O199  1  0.74353584  0.49313181  0.13249035  1
  O  O200  1  0.73979653  0.50127639  0.63602557  1
  O  O201  1  0.74147696  0.98877625  0.13365522  1
  O  O202  1  0.75673101  0.97611299  0.62624375  1
  O  O203  1  0.00863022  0.37358547  0.25540641  1
  O  O204  1  0.00710125  0.37021294  0.75535207  1
  O  O205  1  -0.00221851  0.86712401  0.25610115  1
  O  O206  1  0.01151069  0.86788183  0.74775720  1
  O  O207  1  0.49659702  0.36599456  0.26135031  1
  O  O208  1  0.51033313  0.38217994  0.75748718  1
  O  O209  1  0.50974209  0.87861483  0.25626029  1
  O  O210  1  0.48985108  0.86517452  0.73054200  1
  O  O211  1  0.49502267  0.12954347  0.25693058  1
  O  O212  1  0.49430855  0.12075975  0.74553265  1
  O  O213  1  0.49390221  0.62333572  0.23963512  1
  O  O214  1  0.49307989  0.61918572  0.73539556  1
  O  O215  1  0.99530357  0.12812631  0.24323664  1
  O  O216  1  0.99046095  0.13540721  0.73962980  1
  O  O217  1  0.98881124  0.63311198  0.25690342  1
  O  O218  1  1.00125187  0.63243796  0.74337077  1
  O  O219  1  0.36157614  0.24003012  0.00145602  1
  O  O220  1  0.36889470  0.25588198  0.49836895  1
  O  O221  1  0.36528287  0.74769813  0.01226283  1
  O  O222  1  0.37207201  0.76470490  0.49070640  1
  O  O223  1  0.87518968  0.25558349  0.00844816  1
  O  O224  1  0.87504006  0.25238234  0.51778415  1
  O  O225  1  0.87941410  0.76809787  0.00086045  1
  O  O226  1  0.86865840  0.74673885  0.50570292  1
  O  O227  1  0.12842575  0.24281551  0.49390317  1
  O  O228  1  0.13336693  0.23587623  1.00447522  1
  O  O229  1  0.11573737  0.74113666  0.49170201  1
  O  O230  1  0.12440240  0.74586562  0.99411468  1
  O  O231  1  0.63277783  0.25455788  0.48440152  1
  O  O232  1  0.62854944  0.24074243  1.00348060  1
  O  O233  1  0.63148741  0.74145216  0.48858112  1
  O  O234  1  0.62280920  0.73580323  0.99762014  1
  O  O235  1  0.49779952  0.25520429  0.13976512  1
  O  O236  1  0.50737002  0.23822149  0.60693919  1
  O  O237  1  0.48922475  0.74279606  0.12191248  1
  O  O238  1  0.49938876  0.73124667  0.61024386  1
  O  O239  1  0.99658087  0.24008127  0.13033510  1
  O  O240  1  0.98834608  0.24565080  0.63139542  1
  O  O241  1  0.99963003  0.75436746  0.13831648  1
  O  O242  1  0.99360889  0.74767195  0.63479933  1
  O  O243  1  0.00644918  0.25752326  0.36777365  1
  O  O244  1  -0.00772209  0.25598102  0.85949238  1
  O  O245  1  0.00829801  0.75764409  0.36722847  1
  O  O246  1  0.00527257  0.74672219  0.86193750  1
  O  O247  1  0.50871106  0.25617454  0.37205374  1
  O  O248  1  0.50500939  0.26479626  0.87779378  1
  O  O249  1  0.50457812  0.76140114  0.37757064  1
  O  O250  1  0.51231474  0.75009433  0.88283296  1
  O  O251  1  0.24181550  0.12974857  0.49363144  1
  O  O252  1  0.24005638  0.13096435  0.99593952  1
  O  O253  1  0.23671710  0.62090982  0.49725934  1
  O  O254  1  0.23230192  0.63720526  1.01199321  1
  O  O255  1  0.76949091  0.12846425  0.47903721  1
  O  O256  1  0.74645688  0.12458607  0.99393079  1
  O  O257  1  0.74125806  0.62880699  0.48648960  1
  O  O258  1  0.73869055  0.61739333  0.99297119  1
  O  O259  1  0.24015468  0.35688764  0.00123799  1
  O  O260  1  0.25505265  0.37192959  0.50469853  1
  O  O261  1  0.24784393  0.86965851  0.01058959  1
  O  O262  1  0.25095840  0.88295558  0.50928327  1
  O  O263  1  0.75604847  0.37675762  0.01215615  1
  O  O264  1  0.75202404  0.37891042  0.49371813  1
  O  O265  1  0.75679514  0.88078574  0.01081976  1
  O  O266  1  0.75452035  0.86273596  0.50098243  1
  O  O267  1  0.12260762  0.49774405  0.24380173  1
  O  O268  1  0.12425072  0.49270504  0.73822213  1
  O  O269  1  0.13971656  1.00055595  0.24940285  1
  O  O270  1  0.12746858  0.99488387  0.74309673  1
  O  O271  1  0.63561950  0.50565303  0.23598493  1
  O  O272  1  0.62886749  0.49572595  0.74418124  1
  O  O273  1  0.63083537  0.98942128  0.24352039  1
  O  O274  1  0.63052245  0.99499684  0.75597313  1
  O  O275  1  0.36794366  0.00405615  0.25822440  1
  O  O276  1  0.35738898  0.01280096  0.74373125  1
  O  O277  1  0.36856172  0.51049452  0.25748737  1
  O  O278  1  0.37309136  0.51551888  0.75087746  1
  O  O279  1  0.86617088  0.00749242  0.24334748  1
  O  O280  1  0.86717306  0.01260031  0.74784281  1
  O  O281  1  0.86613248  0.50910758  0.24451102  1
  O  O282  1  0.86731737  0.50153510  0.75958006  1
  O  O283  1  0.11576672  0.37129854  0.36882804  1
  O  O284  1  0.11737976  0.37797163  0.86165045  1
  O  O285  1  0.11686641  0.86838314  0.37287376  1
  O  O286  1  0.13013423  0.86339990  0.86484345  1
  O  O287  1  0.61439481  0.36625501  0.37133975  1
  O  O288  1  0.61541740  0.37785398  0.86612640  1
  O  O289  1  0.61779716  0.86686469  0.36435372  1
  O  O290  1  0.63416182  0.85460344  0.87956071  1
  O  O291  1  0.37304150  0.12790870  0.14111493  1
  O  O292  1  0.37211830  0.12569301  0.63704848  1
  O  O293  1  0.38075506  0.63282154  0.13215908  1
  O  O294  1  0.38815957  0.62017693  0.62297547  1
  O  O295  1  0.88119849  0.12889628  0.13093704  1
  O  O296  1  0.87118157  0.13571529  0.63494782  1
  O  O297  1  0.86995995  0.62851921  0.13418096  1
  O  O298  1  0.88460048  0.63806946  0.62946726  1
  O  O299  1  0.25313675  0.25079939  0.11049723  1
  O  O300  1  0.24688355  0.26197783  0.61469878  1
  O  O301  1  0.25359714  0.75925295  0.12075538  1
  O  O302  1  0.23926441  0.76703846  0.62345897  1
  O  O303  1  0.75621773  0.25761245  0.12694952  1
  O  O304  1  0.76490667  0.26015114  0.62585816  1
  O  O305  1  0.75053034  0.76584078  0.12763202  1
  O  O306  1  0.75454427  0.74795713  0.61938277  1
  O  O307  1  0.24468835  0.24696866  0.37719721  1
  O  O308  1  0.25188454  0.24610192  0.88735948  1
  O  O309  1  0.23392532  0.74618461  0.36980650  1
  O  O310  1  0.24011314  0.75057304  0.89112231  1
  O  O311  1  0.74350567  0.24111728  0.37010303  1
  O  O312  1  0.74623916  0.24037329  0.88102555  1
  O  O313  1  0.74419280  0.74042199  0.37611126  1
  O  O314  1  0.73836197  0.73244952  0.87424220  1
  O  O315  1  0.00997194  0.12625326  0.00595719  1
  O  O316  1  0.00201180  0.12870372  0.50145655  1
  O  O317  1  0.01063890  0.61746641  -0.00270146  1
  O  O318  1  0.01054437  0.61882491  0.50564671  1
  O  O319  1  0.51187794  0.11800399  -0.00367335  1
  O  O320  1  0.50102951  0.10354240  0.49094020  1
  O  O321  1  0.50675546  0.62099001  0.01617895  1
  O  O322  1  0.50391969  0.61289476  0.50171877  1
  O  O323  1  0.49618800  0.38641574  0.49068936  1
  O  O324  1  0.50133069  0.37613751  0.98950299  1
  O  O325  1  0.48943033  0.88207805  0.49107583  1
  O  O326  1  0.50084166  0.89110877  1.00658412  1
  O  O327  1  1.00526385  0.38566660  0.49202099  1
  O  O328  1  0.99842600  0.37973937  0.99482855  1
  O  O329  1  0.98837880  0.87662640  0.49172904  1
  O  O330  1  0.98810041  0.88002330  0.99864843  1
  O  O331  1  0.49763315  0.49324028  0.37913523  1
  O  O332  1  0.49597806  0.48598972  0.88112867  1
  O  O333  1  0.49211214  0.98692714  0.37669101  1
  O  O334  1  0.50190199  1.00161652  0.88936363  1
  O  O335  1  1.00462042  0.49222319  0.38822157  1
  O  O336  1  0.99682628  0.49537332  0.88579125  1
  O  O337  1  1.00175953  0.98463110  0.37220523  1
  O  O338  1  0.99438444  1.01017411  0.86938872  1
  O  O339  1  0.00210273  0.01263848  0.12477614  1
  O  O340  1  -0.00325682  0.02030719  0.61707157  1
  O  O341  1  0.00560866  0.49430259  0.11137392  1
  O  O342  1  0.00860153  0.50671073  0.62114393  1
  O  O343  1  0.51373565  -0.00216906  0.12199982  1
  O  O344  1  0.51040765  0.00010431  0.60580589  1
  O  O345  1  0.50668564  0.50536524  0.12901991  1
  O  O346  1  0.50482345  0.50750801  0.61551791  1
  O  O347  1  0.23072156  0.38655487  0.26082626  1
  O  O348  1  0.24239789  0.36971357  0.74103003  1
  O  O349  1  0.24891553  0.88411853  0.23885643  1
  O  O350  1  0.23573667  0.88910681  0.73174103  1
  O  O351  1  0.75716893  0.38388393  0.23775732  1
  O  O352  1  0.73845029  0.38902120  0.76131012  1
  O  O353  1  0.74437497  0.88009555  0.24315449  1
  O  O354  1  0.75500523  0.86903831  0.73465593  1
  O  O355  1  0.25668788  0.11919482  0.25460162  1
  O  O356  1  0.23817459  0.11351277  0.74550894  1
  O  O357  1  0.25396053  0.62158450  0.25687252  1
  O  O358  1  0.26487329  0.62364516  0.74388657  1
  O  O359  1  0.75892109  0.11569083  0.25365265  1
  O  O360  1  0.75806661  0.12791792  0.76563794  1
  O  O361  1  0.75851100  0.61881260  0.25364378  1
  O  O362  1  0.74932096  0.61130932  0.75994165  1
  O  O363  1  0.36974879  0.11514025  0.37008704  1
  O  O364  1  0.37337677  0.11806539  0.85635785  1
  O  O365  1  0.36944751  0.62192964  0.37198896  1
  O  O366  1  0.38058099  0.62540273  0.86577378  1
  O  O367  1  0.87281505  0.13203832  0.35785521  1
  O  O368  1  0.86330060  0.13199814  0.86857413  1
  O  O369  1  0.86453043  0.62878934  0.36647502  1
  O  O370  1  0.86509957  0.61919882  0.87737145  1
  O  O371  1  0.12550773  0.38607946  0.13423606  1
  O  O372  1  0.12978641  0.38176782  0.63011230  1
  O  O373  1  0.13271916  0.88021449  0.12804209  1
  O  O374  1  0.12776978  0.88064729  0.62654887  1
  O  O375  1  0.63440454  0.38298984  0.12245828  1
  O  O376  1  0.61752203  0.38946459  0.63784632  1
  O  O377  1  0.63446718  0.87900646  0.12856880  1
  O  O378  1  0.63956500  0.86518475  0.61865384  1
  O  O379  1  0.12030285  0.25926122  0.25084479  1
  O  O380  1  0.11138819  0.26118630  0.74009231  1
  O  O381  1  0.11533847  0.75025412  0.25784329  1
  O  O382  1  0.11963153  0.75660569  0.75697293  1
  O  O383  1  0.61528732  0.24346760  0.26010983  1
  O  O384  1  0.63039575  0.27048995  0.75167203  1
  O  O385  1  0.62884523  0.76098820  0.25194218  1
  O  O386  1  0.62445498  0.74144227  0.76578009  1
  O  O387  1  0.39147665  0.23400432  0.26231816  1
  O  O388  1  0.37286319  0.23187562  0.74339335  1
  O  O389  1  0.36795489  0.74464204  0.23824519  1
  O  O390  1  0.37780586  0.73140168  0.74684004  1
  O  O391  1  0.88234680  0.24272106  0.24089939  1
  O  O392  1  0.87991430  0.25014387  0.73984854  1
  O  O393  1  0.88244486  0.74029073  0.24610678  1
  O  O394  1  0.88256223  0.74821223  0.74442654  1
  O  O395  1  0.38138244  0.49474567  0.49395487  1
  O  O396  1  0.37517859  0.50055229  1.00241440  1
  O  O397  1  0.37682325  0.99209751  0.48754658  1
  O  O398  1  0.39313304  1.00739266  1.00536316  1
  O  O399  1  0.88952070  0.50613774  0.50950955  1
  O  O400  1  0.88341937  0.49531638  0.99784992  1
  O  O401  1  0.87032152  0.98469667  0.50018452  1
  O  O402  1  0.87809934  0.98118556  1.00618828  1
  O  O403  1  0.12385778  0.01412755  -0.00181361  1
  O  O404  1  0.11823003  0.01686180  0.49596526  1
  O  O405  1  0.11996974  0.50767230  0.00630122  1
  O  O406  1  0.12023072  0.50638720  0.51267388  1
  O  O407  1  0.61559296  0.00495648  0.00666816  1
  O  O408  1  0.61313901  -0.01054164  0.48792255  1
  O  O409  1  0.62157825  0.50940504  0.01476219  1
  O  O410  1  0.61753557  0.50374922  0.50618442  1
  O  O411  1  0.35664994  0.35968555  0.16644522  1
  O  O412  1  0.36896005  0.37151967  0.61908952  1
  O  O413  1  0.36799607  0.86821631  0.12207146  1
  O  O414  1  0.35451922  0.87546123  0.61173581  1
  O  O415  1  0.87013420  0.36789449  0.12003610  1
  O  O416  1  0.88039554  0.37005663  0.62989182  1
  O  O417  1  0.86225409  0.87198976  0.12170295  1
  O  O418  1  0.86025225  0.85581424  0.61090072  1
  O  O419  1  0.12915112  0.13372808  0.37848995  1
  O  O420  1  0.12522475  0.13068313  0.88575688  1
  O  O421  1  0.12783320  0.63233593  0.38442831  1
  O  O422  1  0.12257507  0.63913776  0.88328226  1
  O  O423  1  0.63813048  0.13181476  0.37078614  1
  O  O424  1  0.63594483  0.13065462  0.88660948  1
  O  O425  1  0.63025109  0.62969950  0.37487111  1
  O  O426  1  0.62663038  0.62631642  0.88503604  1
