# generated using pymatgen
data_V85Zn86O256
_symmetry_space_group_name_H-M   'P 1'
_cell_length_a   16.93675493
_cell_length_b   16.92265399
_cell_length_c   16.93177490
_cell_angle_alpha   90.01877413
_cell_angle_beta   89.92139641
_cell_angle_gamma   90.05056801
_symmetry_Int_Tables_number   1
_chemical_formula_structural   V85Zn86O256
_chemical_formula_sum   'V85 Zn86 O256'
_cell_volume   4852.89129719
_cell_formula_units_Z   1
loop_
 _symmetry_equiv_pos_site_id
 _symmetry_equiv_pos_as_xyz
  1  'x, y, z'
loop_
 _atom_site_type_symbol
 _atom_site_label
 _atom_site_symmetry_multiplicity
 _atom_site_fract_x
 _atom_site_fract_y
 _atom_site_fract_z
 _atom_site_occupancy
  V  V0  1  0.50890600  0.00201135  -0.00100136  1
  V  V1  1  0.74978847  0.87544887  0.62535755  1
  V  V2  1  0.12518690  0.50074753  0.12432273  1
  V  V3  1  0.49898584  0.25798383  0.25517064  1
  V  V4  1  0.62011930  0.75026326  0.87027999  1
  V  V5  1  0.11434063  0.62929727  0.50238302  1
  V  V6  1  0.62546587  0.50017679  0.12487019  1
  V  V7  1  0.12279081  0.37482782  0.24893794  1
  V  V8  1  0.37435403  0.00084314  0.37584247  1
  V  V9  1  0.37869566  0.25691242  0.62498421  1
  V  V10  1  0.86986553  0.00008624  0.37162744  1
  V  V11  1  0.74810467  0.62511981  0.37767972  1
  V  V12  1  0.12559010  0.25039108  0.37483054  1
  V  V13  1  0.75509494  0.37516709  0.62033257  1
  V  V14  1  0.36695955  0.00438498  0.87702571  1
  V  V15  1  0.61335871  0.36810215  0.75265105  1
  V  V16  1  0.87621589  0.49832307  0.86849433  1
  V  V17  1  0.24866003  -0.01477211  0.24538571  1
  V  V18  1  0.12867106  0.23900010  0.87267962  1
  V  V19  1  0.50691740  0.75201810  0.24755414  1
  V  V20  1  0.49373087  0.87012920  0.87115407  1
  V  V21  1  0.62307724  0.62491665  -0.00124347  1
  V  V22  1  0.12661657  0.37545239  0.74991490  1
  V  V23  1  0.25482255  0.24906064  0.50079128  1
  V  V24  1  0.12681930  0.12200678  0.00257465  1
  V  V25  1  0.49804388  0.00011086  0.49982151  1
  V  V26  1  0.74625223  0.24559298  -0.00150218  1
  V  V27  1  -0.00638546  0.37831807  0.38322032  1
  V  V28  1  0.87945983  0.73548459  0.62974972  1
  V  V29  1  0.62836537  0.12745553  0.50209919  1
  V  V30  1  0.49754864  0.63244202  0.62153939  1
  V  V31  1  0.36694044  0.75296198  0.12971874  1
  V  V32  1  0.62328486  0.50587769  0.62112753  1
  V  V33  1  0.25189060  0.37968236  0.61870463  1
  V  V34  1  0.00029655  0.24436895  0.74548800  1
  V  V35  1  0.25172206  0.50217154  0.25178875  1
  V  V36  1  0.49980656  0.48882231  0.49651517  1
  V  V37  1  0.10927759  0.00161891  0.62174690  1
  V  V38  1  0.38023282  0.48819556  0.87806206  1
  V  V39  1  0.37032641  0.13118607  0.75375960  1
  V  V40  1  0.62362339  0.00079184  0.62774379  1
  V  V41  1  0.75052234  0.50052676  0.24937328  1
  V  V42  1  0.74875783  0.50122270  0.74967469  1
  V  V43  1  0.25209017  0.25414835  -0.00639798  1
  V  V44  1  0.73998190  0.87305226  0.13709223  1
  V  V45  1  0.62648193  0.75093796  0.37355175  1
  V  V46  1  0.00019693  0.75725413  0.25376418  1
  V  V47  1  0.11295035  0.12233455  0.50346719  1
  V  V48  1  0.62249631  0.25898175  0.37810152  1
  V  V49  1  0.87927384  0.24977338  0.61765323  1
  V  V50  1  0.37131377  0.86398968  0.49915280  1
  V  V51  1  0.50452622  0.87594168  0.37062877  1
  V  V52  1  0.87946187  0.88044156  0.50243496  1
  V  V53  1  0.74663143  0.12209971  0.36557240  1
  V  V54  1  0.75336282  0.37342072  0.12497770  1
  V  V55  1  0.49808949  0.48143124  -0.00213835  1
  V  V56  1  0.25268708  0.62682347  0.38634391  1
  V  V57  1  0.00519765  0.88445296  0.37695807  1
  V  V58  1  -0.00473013  0.62582123  0.12217053  1
  V  V59  1  0.37449961  0.25784577  0.11994334  1
  V  V60  1  0.87539321  0.62813452  0.24641662  1
  V  V61  1  0.24626737  0.00241690  0.74715385  1
  V  V62  1  0.75026316  0.62486490  0.87340554  1
  V  V63  1  0.24579046  0.87150308  0.62020923  1
  V  V64  1  0.50492038  0.12597520  0.12190990  1
  V  V65  1  -0.00034074  0.49904171  -0.00010482  1
  V  V66  1  0.11764824  0.50721738  0.62601174  1
  V  V67  1  0.37715336  0.48672687  0.38076186  1
  V  V68  1  0.91999787  0.80859954  0.06650361  1
  V  V69  1  0.25582557  0.50708317  0.75070805  1
  V  V70  1  0.88247339  -0.01465128  0.87962116  1
  V  V71  1  0.12763072  -0.00983024  0.12834563  1
  V  V72  1  0.61774715  0.87493894  0.74849340  1
  V  V73  1  0.62604358  -0.00070552  0.14140019  1
  V  V74  1  0.37031946  0.12760330  0.24944088  1
  V  V75  1  0.12851509  0.75430726  0.37744368  1
  V  V76  1  0.00052327  0.37174161  0.87488663  1
  V  V77  1  0.74885389  0.75918597  -0.00014677  1
  V  V78  1  0.49742394  0.12907130  0.62760522  1
  V  V79  1  0.36836464  0.87780119  0.00670734  1
  V  V80  1  0.12465387  0.75619603  0.87604221  1
  V  V81  1  0.49865906  0.62503427  0.12326517  1
  V  V82  1  0.87732757  0.12170584  0.74727533  1
  V  V83  1  0.74736504  0.12202778  0.87820197  1
  V  V84  1  0.74578928  0.74805924  0.50091494  1
  Zn  Zn85  1  0.87481766  0.12202480  0.24476861  1
  Zn  Zn86  1  0.25415994  0.74765994  0.00148697  1
  Zn  Zn87  1  0.75048000  -0.00050451  0.75181928  1
  Zn  Zn88  1  0.37805561  0.62414406  0.25601484  1
  Zn  Zn89  1  0.13301075  0.62450727  -0.00029901  1
  Zn  Zn90  1  0.37316983  0.75297907  0.63261691  1
  Zn  Zn91  1  0.61302068  0.25615438  0.87911578  1
  Zn  Zn92  1  -0.00051541  0.74494454  0.75031414  1
  Zn  Zn93  1  0.87409939  0.37130673  -0.00091072  1
  Zn  Zn94  1  -0.00470538  0.24712866  0.24657972  1
  Zn  Zn95  1  0.75607537  0.25437584  0.49731778  1
  Zn  Zn96  1  0.24856894  0.12279978  0.37623144  1
  Zn  Zn97  1  0.87228279  0.49698926  0.38038416  1
  Zn  Zn98  1  0.87624340  0.24070343  0.12341826  1
  Zn  Zn99  1  0.25258354  0.37834826  0.11938672  1
  Zn  Zn100  1  0.11693696  0.87851383  0.75650644  1
  Zn  Zn101  1  -0.01068514  0.50093185  0.51026262  1
  Zn  Zn102  1  0.25575108  0.62780702  0.88086978  1
  Zn  Zn103  1  0.38873973  0.63997886  0.76049582  1
  Zn  Zn104  1  0.62302027  0.37854017  0.25498163  1
  Zn  Zn105  1  -0.00055958  0.12418695  0.12730873  1
  Zn  Zn106  1  -0.00055073  -0.00627712  0.00063749  1
  Zn  Zn107  1  0.18749132  0.18620238  0.18391836  1
  Zn  Zn108  1  0.18781398  0.18550286  0.68387186  1
  Zn  Zn109  1  0.18387856  0.68439629  0.19312347  1
  Zn  Zn110  1  0.18874921  0.68948178  0.68955197  1
  Zn  Zn111  1  0.68549995  0.18867935  0.18680980  1
  Zn  Zn112  1  0.69235559  0.18840444  0.68946492  1
  Zn  Zn113  1  0.68769023  0.68963421  0.18671554  1
  Zn  Zn114  1  0.68510935  0.68699312  0.68782137  1
  Zn  Zn115  1  0.30923198  0.31366554  0.31069633  1
  Zn  Zn116  1  0.31140496  0.31483284  0.80938193  1
  Zn  Zn117  1  0.31642297  0.80871087  0.31491569  1
  Zn  Zn118  1  0.30722205  0.81270474  0.80947130  1
  Zn  Zn119  1  0.81112913  0.30774136  0.30908188  1
  Zn  Zn120  1  0.80987207  0.31078500  0.80944221  1
  Zn  Zn121  1  0.81742082  0.81278734  0.31161805  1
  Zn  Zn122  1  0.80958962  0.81039866  0.80824320  1
  Zn  Zn123  1  0.18406399  0.44033912  0.43996153  1
  Zn  Zn124  1  0.18865089  0.43601257  0.93517231  1
  Zn  Zn125  1  0.18829907  0.93999649  0.43716292  1
  Zn  Zn126  1  0.18961120  0.93783753  0.93889571  1
  Zn  Zn127  1  0.68728844  0.44051590  0.44125387  1
  Zn  Zn128  1  0.68474892  0.43344692  0.93733447  1
  Zn  Zn129  1  0.68702768  0.93750829  0.43760502  1
  Zn  Zn130  1  0.68783538  0.94045918  0.93554366  1
  Zn  Zn131  1  0.31111886  0.06903981  0.06204290  1
  Zn  Zn132  1  0.30851593  0.06224323  0.56285964  1
  Zn  Zn133  1  0.31742425  0.56122354  0.06216423  1
  Zn  Zn134  1  0.31603861  0.56462271  0.56164690  1
  Zn  Zn135  1  0.81182757  0.05542557  0.06140803  1
  Zn  Zn136  1  0.81463286  0.06249177  0.56188940  1
  Zn  Zn137  1  0.81357939  0.56398011  0.05773809  1
  Zn  Zn138  1  0.81121349  0.55902349  0.55736685  1
  Zn  Zn139  1  0.43675568  0.43865978  0.18915073  1
  Zn  Zn140  1  0.43751928  0.44171165  0.68721395  1
  Zn  Zn141  1  0.43833817  0.93890496  0.18890456  1
  Zn  Zn142  1  0.43356829  0.93860580  0.68817214  1
  Zn  Zn143  1  0.93587033  0.43633478  0.19092349  1
  Zn  Zn144  1  0.93662602  0.43456245  0.69004567  1
  Zn  Zn145  1  0.94067211  0.94462293  0.19167806  1
  Zn  Zn146  1  0.93768179  0.93076274  0.69322946  1
  Zn  Zn147  1  0.06389940  0.06354536  0.31176762  1
  Zn  Zn148  1  0.05915044  0.06020298  0.81309834  1
  Zn  Zn149  1  0.06256106  0.56472209  0.31363645  1
  Zn  Zn150  1  0.06885960  0.57008010  0.80955353  1
  Zn  Zn151  1  0.55932799  0.06962038  0.31278726  1
  Zn  Zn152  1  0.54135390  0.09428569  0.83133104  1
  Zn  Zn153  1  0.56363149  0.56421497  0.31503307  1
  Zn  Zn154  1  0.56085896  0.55837995  0.80959478  1
  Zn  Zn155  1  0.43756079  0.18989523  0.43942482  1
  Zn  Zn156  1  0.43610432  0.19232213  0.93818748  1
  Zn  Zn157  1  0.44180271  0.68110644  0.44157816  1
  Zn  Zn158  1  0.43287083  0.68607847  0.93921255  1
  Zn  Zn159  1  0.93794039  0.18780151  0.43082715  1
  Zn  Zn160  1  0.93555466  0.18272407  0.93901274  1
  Zn  Zn161  1  0.93400227  0.69035128  0.43726178  1
  Zn  Zn162  1  0.95718147  0.66499804  0.90052417  1
  Zn  Zn163  1  0.06265650  0.31065368  0.06223015  1
  Zn  Zn164  1  0.06568368  0.31218914  0.56325816  1
  Zn  Zn165  1  0.08321212  0.81371135  0.06368569  1
  Zn  Zn166  1  0.05908591  0.81190138  0.56512719  1
  Zn  Zn167  1  0.57021269  0.30837233  0.06713798  1
  Zn  Zn168  1  0.56523515  0.31520221  0.56706049  1
  Zn  Zn169  1  0.56101908  0.81543352  0.05927024  1
  Zn  Zn170  1  0.56334287  0.81269135  0.55684376  1
  O  O171  1  0.12537032  0.11543860  0.11743117  1
  O  O172  1  0.12684001  0.11903535  0.61149745  1
  O  O173  1  0.11375944  0.61846083  0.12488941  1
  O  O174  1  0.13135905  0.61886872  0.61575330  1
  O  O175  1  0.61538550  0.11635159  0.12877379  1
  O  O176  1  0.61789502  0.12381007  0.62137232  1
  O  O177  1  0.61892361  0.61990305  0.11988182  1
  O  O178  1  0.61928326  0.61215060  0.62762975  1
  O  O179  1  0.37116812  0.38728159  0.37293940  1
  O  O180  1  0.37603557  0.38818399  0.86997454  1
  O  O181  1  0.38233344  0.87963130  0.38185848  1
  O  O182  1  0.38026219  0.88388164  0.88198280  1
  O  O183  1  0.89133626  0.37152054  0.37003071  1
  O  O184  1  0.88138523  0.38057681  0.87382871  1
  O  O185  1  0.87928446  0.88055529  0.38341534  1
  O  O186  1  0.86869968  0.88713814  0.86882965  1
  O  O187  1  0.25578527  0.00218486  0.36256094  1
  O  O188  1  0.26018683  -0.00329382  0.86646699  1
  O  O189  1  0.25648062  0.50542956  0.37219817  1
  O  O190  1  0.26112184  0.49882984  0.86786970  1
  O  O191  1  0.75603399  0.00923686  0.38173731  1
  O  O192  1  0.76244235  0.00625422  0.87449423  1
  O  O193  1  0.74626860  0.50969868  0.36845393  1
  O  O194  1  0.75420771  0.50274582  0.86906832  1
  O  O195  1  0.24747312  0.49908591  0.13528006  1
  O  O196  1  0.24687279  0.49500672  0.62982802  1
  O  O197  1  0.24859163  1.00654449  0.13976538  1
  O  O198  1  0.24279141  0.99340217  0.63045130  1
  O  O199  1  0.74544611  0.49538435  0.12834495  1
  O  O200  1  0.74323254  0.49652636  0.63132662  1
  O  O201  1  0.73842952  0.98317207  0.11690596  1
  O  O202  1  0.74249450  0.99151549  0.62447297  1
  O  O203  1  0.01189054  0.37459143  0.25823955  1
  O  O204  1  0.00689491  0.36494823  0.75616823  1
  O  O205  1  -0.00534967  0.86699968  0.26088285  1
  O  O206  1  0.00721072  0.85894588  0.73903576  1
  O  O207  1  0.50246079  0.36202836  0.24598280  1
  O  O208  1  0.51480478  0.37715535  0.74308980  1
  O  O209  1  0.49532583  0.86814801  0.26329074  1
  O  O210  1  0.50499899  0.88274192  0.76044226  1
  O  O211  1  0.48866810  0.13296503  0.24187885  1
  O  O212  1  0.48490365  0.11341992  0.73168322  1
  O  O213  1  0.50169994  0.63149601  0.23934220  1
  O  O214  1  0.50132702  0.61370409  0.72860753  1
  O  O215  1  0.99683505  0.12779999  0.25013156  1
  O  O216  1  0.99371721  0.13676808  0.75365285  1
  O  O217  1  0.99282406  0.63139204  0.24404960  1
  O  O218  1  0.98385549  0.63779088  0.78808413  1
  O  O219  1  0.36607070  0.24493307  0.00739168  1
  O  O220  1  0.36286042  0.24747559  0.50739492  1
  O  O221  1  0.37698716  0.75932733  0.01244996  1
  O  O222  1  0.38000136  0.76165097  0.50233418  1
  O  O223  1  0.86245293  0.25219380  -0.00005836  1
  O  O224  1  0.87658033  0.24223093  0.51379169  1
  O  O225  1  0.86752991  0.74966496  0.00196924  1
  O  O226  1  0.86328804  0.75833468  0.50560409  1
  O  O227  1  0.13379893  0.24229387  0.49619185  1
  O  O228  1  0.13082426  0.24384370  0.99082281  1
  O  O229  1  0.12075225  0.74343078  0.48755711  1
  O  O230  1  0.13615119  0.74689186  0.99391223  1
  O  O231  1  0.62439241  0.24322162  0.49528540  1
  O  O232  1  0.63965158  0.25221561  0.99561643  1
  O  O233  1  0.63829526  0.75305471  0.49117560  1
  O  O234  1  0.63010978  0.74600312  0.99144792  1
  O  O235  1  0.49594622  0.24295453  0.13062374  1
  O  O236  1  0.48928224  0.24327200  0.61860548  1
  O  O237  1  0.49766378  0.74444429  0.13137732  1
  O  O238  1  0.50517390  0.73502039  0.61768338  1
  O  O239  1  0.99714699  0.24694970  0.12669074  1
  O  O240  1  0.99405778  0.25714776  0.63505727  1
  O  O241  1  0.99234118  0.75195758  0.12632846  1
  O  O242  1  0.98282327  0.74348737  0.61968775  1
  O  O243  1  0.01167616  0.26073788  0.37431870  1
  O  O244  1  0.00721974  0.25400535  0.86890081  1
  O  O245  1  0.00510298  0.75902380  0.36917375  1
  O  O246  1  0.02210798  0.75780585  0.88892042  1
  O  O247  1  0.50850046  0.24335009  0.36660250  1
  O  O248  1  0.51543474  0.20365382  0.86439801  1
  O  O249  1  0.50731629  0.75356198  0.37012453  1
  O  O250  1  0.50369767  0.76348028  0.88291091  1
  O  O251  1  0.24316066  0.13494981  0.49753879  1
  O  O252  1  0.23741423  0.13667405  1.00186742  1
  O  O253  1  0.24118771  0.62044743  0.49002306  1
  O  O254  1  0.25141209  0.62749577  1.00156159  1
  O  O255  1  0.73692375  0.12704651  0.49808464  1
  O  O256  1  0.75632597  0.12980730  0.98635609  1
  O  O257  1  0.75229874  0.63325266  0.48542726  1
  O  O258  1  0.74150320  0.63466393  0.99556676  1
  O  O259  1  0.24364893  0.36007313  0.00236465  1
  O  O260  1  0.24282516  0.36866702  0.51247541  1
  O  O261  1  0.26574740  0.87587409  0.00291903  1
  O  O262  1  0.26119889  0.88286561  0.50599898  1
  O  O263  1  0.75079349  0.36828350  0.00750277  1
  O  O264  1  0.74528836  0.37411389  0.51564376  1
  O  O265  1  0.74437981  0.86305363  0.00306173  1
  O  O266  1  0.75378305  0.86879190  0.50925403  1
  O  O267  1  0.13125148  0.49519404  0.24560238  1
  O  O268  1  0.13432620  0.49835591  0.74495349  1
  O  O269  1  0.14210734  1.00466706  0.24580709  1
  O  O270  1  0.13023546  1.00272149  0.74135912  1
  O  O271  1  0.63163298  0.50062189  0.24406141  1
  O  O272  1  0.63158956  0.49047840  0.74356436  1
  O  O273  1  0.61784700  1.00099990  0.24097840  1
  O  O274  1  0.62772306  0.98679231  0.74267436  1
  O  O275  1  0.36777133  0.00796114  0.25349186  1
  O  O276  1  0.36623890  0.00709067  0.75682650  1
  O  O277  1  0.36800808  0.50217317  0.25795527  1
  O  O278  1  0.37119074  0.50186619  0.76028030  1
  O  O279  1  0.87365644  -0.00033627  0.26718381  1
  O  O280  1  0.87425232  0.00626341  0.75667464  1
  O  O281  1  0.86706686  0.50756131  0.25660239  1
  O  O282  1  0.86730054  0.49674187  0.76141660  1
  O  O283  1  0.12019147  0.36933655  0.36915241  1
  O  O284  1  0.11951382  0.36637885  0.86742740  1
  O  O285  1  0.11710277  0.86794940  0.38167766  1
  O  O286  1  0.13479201  0.86315260  0.87419642  1
  O  O287  1  0.63018670  0.36241797  0.37563244  1
  O  O288  1  0.62681198  0.37340012  0.85854569  1
  O  O289  1  0.61746778  0.86438477  0.37908952  1
  O  O290  1  0.61604692  0.87360655  0.86675916  1
  O  O291  1  0.38102087  0.13520780  0.13274977  1
  O  O292  1  0.37922072  0.13459304  0.62760763  1
  O  O293  1  0.38546850  0.63222539  0.12986112  1
  O  O294  1  0.38715290  0.62966724  0.62496789  1
  O  O295  1  0.87754292  0.11941683  0.12574205  1
  O  O296  1  0.86867403  0.13160705  0.63864595  1
  O  O297  1  0.87891511  0.61971075  0.13708394  1
  O  O298  1  0.86468926  0.63790264  0.62146147  1
  O  O299  1  0.25888287  0.25194406  0.11726201  1
  O  O300  1  0.25503997  0.25839343  0.61858264  1
  O  O301  1  0.26456804  0.74482022  0.13442141  1
  O  O302  1  0.24792730  0.76750751  0.62688481  1
  O  O303  1  0.74881234  0.25697861  0.11757946  1
  O  O304  1  0.75994062  0.25840922  0.62433502  1
  O  O305  1  0.74412444  0.76218458  0.11579869  1
  O  O306  1  0.75169420  0.75528345  0.61683476  1
  O  O307  1  0.24080213  0.25213147  0.38328520  1
  O  O308  1  0.24050663  0.25450906  0.87919511  1
  O  O309  1  0.24100256  0.74017918  0.36798049  1
  O  O310  1  0.24384891  0.74884444  0.87966776  1
  O  O311  1  0.74131166  0.24191130  0.37946016  1
  O  O312  1  0.74760807  0.23764453  0.87853086  1
  O  O313  1  0.74517029  0.74745837  0.37935410  1
  O  O314  1  0.74386381  0.74247281  0.87968139  1
  O  O315  1  0.01560066  0.12278567  -0.00148004  1
  O  O316  1  0.01463035  0.13091066  0.49690735  1
  O  O317  1  -0.00141497  0.61090727  0.00232195  1
  O  O318  1  0.01106717  0.62224105  0.49173415  1
  O  O319  1  0.49102297  0.11568081  0.01554520  1
  O  O320  1  0.50844368  0.12179935  0.50838667  1
  O  O321  1  0.50466279  0.62172658  0.01130461  1
  O  O322  1  0.50102253  0.61340677  0.51384535  1
  O  O323  1  0.50160515  0.38917550  0.50392648  1
  O  O324  1  0.50665894  0.38243937  1.00541508  1
  O  O325  1  0.49383747  0.87961449  0.48927846  1
  O  O326  1  0.49142942  0.88436129  0.99140263  1
  O  O327  1  1.00876496  0.37713354  0.48566327  1
  O  O328  1  0.99971521  0.38423958  0.99335345  1
  O  O329  1  0.98805516  0.86862646  0.49122422  1
  O  O330  1  0.98689431  0.86624124  1.01638177  1
  O  O331  1  0.49393607  0.50600484  0.38764310  1
  O  O332  1  0.49020464  0.50164630  0.88423806  1
  O  O333  1  0.49630274  0.99337758  0.37811682  1
  O  O334  1  0.48825573  0.99831769  0.88312650  1
  O  O335  1  1.00192174  0.48543535  0.37338750  1
  O  O336  1  0.99344943  0.49353537  0.88037086  1
  O  O337  1  0.99505656  0.98893166  0.37385265  1
  O  O338  1  0.98823620  0.99731141  0.87753656  1
  O  O339  1  0.01273504  0.00013328  0.12255588  1
  O  O340  1  0.01020187  -0.00179217  0.62708903  1
  O  O341  1  0.00239618  0.50254027  0.11746208  1
  O  O342  1  0.01356907  0.49616098  0.62999196  1
  O  O343  1  0.50635431  0.00573068  0.12058959  1
  O  O344  1  0.50355073  0.00585979  0.61724757  1
  O  O345  1  0.50296462  0.50647693  0.11908476  1
  O  O346  1  0.50489339  0.50405403  0.61441737  1
  O  O347  1  0.23907800  0.38654380  0.25106744  1
  O  O348  1  0.24499756  0.38541647  0.73971999  1
  O  O349  1  0.25893449  0.88723063  0.25130993  1
  O  O350  1  0.24483232  0.88911209  0.73960814  1
  O  O351  1  0.74785970  0.38310769  0.24391914  1
  O  O352  1  0.74528765  0.38535307  0.74142685  1
  O  O353  1  0.74977291  0.86718865  0.23556427  1
  O  O354  1  0.74253450  0.87568489  0.73685018  1
  O  O355  1  0.26225587  0.12579967  0.25304256  1
  O  O356  1  0.25795543  0.11291094  0.74076896  1
  O  O357  1  0.24879008  0.61269513  0.26157225  1
  O  O358  1  0.25533753  0.61238251  0.74751348  1
  O  O359  1  0.74655465  0.12543831  0.26317387  1
  O  O360  1  0.75901327  0.12292488  0.75924943  1
  O  O361  1  0.75611748  0.62294859  0.25560047  1
  O  O362  1  0.74142753  0.61101751  0.75838421  1
  O  O363  1  0.37554741  0.11919311  0.36736291  1
  O  O364  1  0.37280731  0.11762141  0.86336923  1
  O  O365  1  0.36713702  0.61917170  0.37609788  1
  O  O366  1  0.37504364  0.61270216  0.87396273  1
  O  O367  1  0.86309057  0.11701180  0.37971529  1
  O  O368  1  0.86869099  0.11858379  0.86415978  1
  O  O369  1  0.86604247  0.62681746  0.36384032  1
  O  O370  1  0.85499621  0.61321195  0.88519479  1
  O  O371  1  0.12689242  0.38177802  0.13413436  1
  O  O372  1  0.13309095  0.38324068  0.63107568  1
  O  O373  1  0.13317398  0.88964642  0.12854626  1
  O  O374  1  0.13136531  0.88621233  0.61639145  1
  O  O375  1  0.63685432  0.38188262  0.12936285  1
  O  O376  1  0.63241600  0.38492242  0.63361758  1
  O  O377  1  0.63207438  0.88068211  0.12538719  1
  O  O378  1  0.62847392  0.87785753  0.62874727  1
  O  O379  1  0.12938217  0.25847960  0.25904954  1
  O  O380  1  0.12008740  0.25133252  0.75405681  1
  O  O381  1  0.11125521  0.74370294  0.26255010  1
  O  O382  1  0.12641532  0.74936414  0.76428138  1
  O  O383  1  0.61560129  0.24964552  0.25958640  1
  O  O384  1  0.62993901  0.26579935  0.74677730  1
  O  O385  1  0.61399028  0.75030870  0.25497655  1
  O  O386  1  0.62888754  0.76416058  0.75544193  1
  O  O387  1  0.37969897  0.24522724  0.24574999  1
  O  O388  1  0.36657191  0.23970121  0.74006521  1
  O  O389  1  0.38905821  0.74719920  0.24643637  1
  O  O390  1  0.37694614  0.75277104  0.74664506  1
  O  O391  1  0.87563612  0.24296672  0.24478438  1
  O  O392  1  0.88290445  0.24293808  0.74364077  1
  O  O393  1  0.88764395  0.74124606  0.25331531  1
  O  O394  1  0.86842868  0.75028813  0.73171553  1
  O  O395  1  0.38747587  0.50082777  0.49417632  1
  O  O396  1  0.38411432  0.49737821  0.98909756  1
  O  O397  1  0.38055187  0.99646778  0.49341255  1
  O  O398  1  0.37900597  0.99738154  0.99523399  1
  O  O399  1  0.87797348  0.49944607  0.49356325  1
  O  O400  1  0.88126143  0.49547079  0.98851846  1
  O  O401  1  0.87055836  0.98772807  0.49271734  1
  O  O402  1  0.87902333  0.99948746  0.98374753  1
  O  O403  1  0.12639748  0.00473602  0.00830291  1
  O  O404  1  0.12885880  0.01553394  0.50449695  1
  O  O405  1  0.11734487  0.49858676  0.00660319  1
  O  O406  1  0.12087876  0.50890676  0.51031266  1
  O  O407  1  0.61104796  -0.00507445  0.00522100  1
  O  O408  1  0.61804963  0.00773238  0.50595287  1
  O  O409  1  0.61755281  0.50495457  0.00419704  1
  O  O410  1  0.61330526  0.49856776  0.50759102  1
  O  O411  1  0.37361209  0.36165306  0.13022898  1
  O  O412  1  0.36727390  0.36523303  0.63151586  1
  O  O413  1  0.38550794  0.86555069  0.11846927  1
  O  O414  1  0.36771285  0.87783409  0.61462035  1
  O  O415  1  0.86177351  0.37707509  0.12387822  1
  O  O416  1  0.86680652  0.36431446  0.63189471  1
  O  O417  1  0.86509699  0.87470515  0.12466337  1
  O  O418  1  0.86498741  0.87022458  0.61764745  1
  O  O419  1  0.12732343  0.13380549  0.38475960  1
  O  O420  1  0.12383341  0.13438327  0.87824617  1
  O  O421  1  0.13146765  0.63115904  0.38262821  1
  O  O422  1  0.13421454  0.63572069  0.88008790  1
  O  O423  1  0.62876963  0.13142641  0.38433002  1
  O  O424  1  0.64800198  0.10989323  0.87125075  1
  O  O425  1  0.63395792  0.64050295  0.36863858  1
  O  O426  1  0.63074490  0.62757643  0.87834441  1
