# generated using pymatgen
data_V85Zn86O256
_symmetry_space_group_name_H-M   'P 1'
_cell_length_a   16.92619651
_cell_length_b   16.92898072
_cell_length_c   16.92167247
_cell_angle_alpha   90.01314950
_cell_angle_beta   90.01986040
_cell_angle_gamma   90.03486354
_symmetry_Int_Tables_number   1
_chemical_formula_structural   V85Zn86O256
_chemical_formula_sum   'V85 Zn86 O256'
_cell_volume   4848.78978223
_cell_formula_units_Z   1
loop_
 _symmetry_equiv_pos_site_id
 _symmetry_equiv_pos_as_xyz
  1  'x, y, z'
loop_
 _atom_site_type_symbol
 _atom_site_label
 _atom_site_symmetry_multiplicity
 _atom_site_fract_x
 _atom_site_fract_y
 _atom_site_fract_z
 _atom_site_occupancy
  V  V0  1  0.23803571  0.00224324  0.75220416  1
  V  V1  1  -0.00511411  0.74277345  0.24917725  1
  V  V2  1  0.87260314  0.86879727  -0.00265113  1
  V  V3  1  0.37590349  0.49930033  0.38084552  1
  V  V4  1  0.37432395  0.37462405  0.50615055  1
  V  V5  1  0.62397042  0.37442557  0.24329477  1
  V  V6  1  0.87210884  0.74223522  0.12499446  1
  V  V7  1  0.87057613  0.25258267  0.62454855  1
  V  V8  1  0.62482342  0.87023649  0.25901563  1
  V  V9  1  0.12531005  0.50874619  0.12112496  1
  V  V10  1  0.87821787  0.49807903  0.36716868  1
  V  V11  1  0.74910683  0.87416248  0.62397779  1
  V  V12  1  0.12895564  0.25199670  0.86890111  1
  V  V13  1  0.50240487  0.49753365  0.50481346  1
  V  V14  1  0.62816371  0.60300522  0.00542687  1
  V  V15  1  0.87133181  0.74982960  0.62849604  1
  V  V16  1  0.86407936  0.37580595  0.49863113  1
  V  V17  1  0.00195201  0.75576671  0.74629862  1
  V  V18  1  0.75281396  0.62558777  0.36492284  1
  V  V19  1  0.62270998  0.87211623  0.74974667  1
  V  V20  1  0.50302306  0.12532375  0.62900268  1
  V  V21  1  0.12160030  0.49263842  0.63382248  1
  V  V22  1  0.37718972  0.13118209  0.75344530  1
  V  V23  1  0.87503413  -0.00252066  0.87333674  1
  V  V24  1  0.75599623  0.24791001  0.00758001  1
  V  V25  1  0.74925078  0.87076086  0.12157585  1
  V  V26  1  0.25137253  0.62392922  0.38087519  1
  V  V27  1  0.75034133  0.00522502  0.25327565  1
  V  V28  1  0.87905232  0.37245604  0.00228597  1
  V  V29  1  0.01177971  0.87550736  0.87068218  1
  V  V30  1  0.75550732  0.62100909  0.86593691  1
  V  V31  1  0.37192312  0.87193715  -0.00017661  1
  V  V32  1  0.74679961  0.24446665  0.49251626  1
  V  V33  1  0.01086640  0.12191214  0.62011027  1
  V  V34  1  0.38224565  0.88379891  0.50425141  1
  V  V35  1  0.74650332  0.75010238  0.49231375  1
  V  V36  1  0.62483544  0.62339176  0.48916983  1
  V  V37  1  0.24878866  -0.00031936  0.25117234  1
  V  V38  1  0.62065928  0.11604606  0.49101333  1
  V  V39  1  0.49766995  0.73983382  0.75350515  1
  V  V40  1  0.25047406  0.75283773  0.50297284  1
  V  V41  1  0.49832318  0.87365336  0.87594349  1
  V  V42  1  0.12446375  0.87453597  0.24867131  1
  V  V43  1  -0.00122244  0.87706894  0.37393270  1
  V  V44  1  0.24545375  0.73595220  -0.00452109  1
  V  V45  1  0.24885867  0.49964553  0.25488743  1
  V  V46  1  -0.00367903  0.25418042  0.24248230  1
  V  V47  1  0.49781117  0.12592491  0.12563030  1
  V  V48  1  0.37096863  0.00493782  0.87314029  1
  V  V49  1  0.24667847  0.24741637  0.50331722  1
  V  V50  1  0.63154666  0.74876364  0.89018188  1
  V  V51  1  0.49732782  -0.00142208  0.00072559  1
  V  V52  1  0.00236405  0.50687910  -0.00407603  1
  V  V53  1  0.11973280  0.37586043  0.25585822  1
  V  V54  1  0.87407080  0.12954823  0.24306133  1
  V  V55  1  0.00342603  0.37310557  0.86571116  1
  V  V56  1  0.25231573  0.24959272  -0.00270389  1
  V  V57  1  0.23609271  0.88083260  0.63012796  1
  V  V58  1  0.49848217  0.74831068  0.26175584  1
  V  V59  1  -0.00748494  0.62361007  0.62261064  1
  V  V60  1  0.12185333  0.62384228  0.49969949  1
  V  V61  1  0.24468137  0.12579102  0.37940261  1
  V  V62  1  0.24446464  0.37328615  0.63887760  1
  V  V63  1  0.12756202  0.72983402  0.87109019  1
  V  V64  1  0.12374376  0.75018645  0.37511085  1
  V  V65  1  0.87558956  0.12527017  0.74558358  1
  V  V66  1  0.87473970  0.00819571  0.37711050  1
  V  V67  1  0.11736899  0.25110576  0.37934246  1
  V  V68  1  0.00106468  -0.00023297  0.00220606  1
  V  V69  1  0.62496262  0.12495190  -0.00203436  1
  V  V70  1  0.75006693  0.12832559  0.87275577  1
  V  V71  1  0.24960884  0.37526359  0.12530312  1
  V  V72  1  0.12964759  0.12624539  -0.00187346  1
  V  V73  1  0.37934177  0.51170329  0.86505494  1
  V  V74  1  0.75413533  0.49964521  0.23846826  1
  V  V75  1  0.37304216  0.12715171  0.25197758  1
  V  V76  1  0.64433864  0.49822798  0.63264745  1
  V  V77  1  0.63427813  0.36401377  0.74642122  1
  V  V78  1  0.62499071  -0.00184610  0.12566726  1
  V  V79  1  0.01338450  0.00388567  0.50017706  1
  V  V80  1  -0.00029939  0.48901493  0.49444440  1
  V  V81  1  0.74845500  -0.00210534  0.74813675  1
  V  V82  1  0.37420494  0.74830014  0.63176770  1
  V  V83  1  0.38693447  0.38432912  -0.00039014  1
  V  V84  1  0.24899346  0.87235366  0.12347790  1
  Zn  Zn85  1  0.87425982  0.87896199  0.49925743  1
  Zn  Zn86  1  0.49826872  0.61654921  0.11462188  1
  Zn  Zn87  1  0.50394786  0.37019284  0.37780145  1
  Zn  Zn88  1  0.12333013  0.00173378  0.12548371  1
  Zn  Zn89  1  0.38108269  0.25367765  0.63288019  1
  Zn  Zn90  1  0.86568531  0.49338320  0.86028229  1
  Zn  Zn91  1  0.00520644  0.25036635  0.74568979  1
  Zn  Zn92  1  0.61649597  -0.00515435  0.61988837  1
  Zn  Zn93  1  0.75196511  0.37507513  0.12113983  1
  Zn  Zn94  1  0.23618495  0.53174299  0.77488330  1
  Zn  Zn95  1  0.50225295  0.24801585  0.25454640  1
  Zn  Zn96  1  0.50264318  0.62378471  0.62636736  1
  Zn  Zn97  1  0.61579637  0.24683912  0.86944762  1
  Zn  Zn98  1  -0.00256813  0.13226519  0.12011959  1
  Zn  Zn99  1  0.37937600  0.00546539  0.38404987  1
  Zn  Zn100  1  0.50079460  0.37314069  0.86288464  1
  Zn  Zn101  1  0.37876115  0.62018445  0.24525213  1
  Zn  Zn102  1  0.62542067  0.24851208  0.37425258  1
  Zn  Zn103  1  -0.00074931  0.62564670  0.12209936  1
  Zn  Zn104  1  0.37708433  0.25291001  0.12568165  1
  Zn  Zn105  1  0.37741164  0.74625371  0.12621864  1
  Zn  Zn106  1  0.50600573  0.88208906  0.38354877  1
  Zn  Zn107  1  0.18429677  0.18880228  0.18567093  1
  Zn  Zn108  1  0.19209985  0.18361767  0.68853271  1
  Zn  Zn109  1  0.19156537  0.68759145  0.19074980  1
  Zn  Zn110  1  0.17949504  0.69116805  0.68911851  1
  Zn  Zn111  1  0.68723462  0.18770694  0.18741668  1
  Zn  Zn112  1  0.69043513  0.18617831  0.67917601  1
  Zn  Zn113  1  0.68345287  0.68880934  0.18651648  1
  Zn  Zn114  1  0.68239221  0.68510580  0.68538685  1
  Zn  Zn115  1  0.31218659  0.31195311  0.31553319  1
  Zn  Zn116  1  0.31291235  0.31736317  0.81814424  1
  Zn  Zn117  1  0.31581270  0.81288821  0.31647624  1
  Zn  Zn118  1  0.30810988  0.81251101  0.81234516  1
  Zn  Zn119  1  0.81274571  0.31498028  0.31351580  1
  Zn  Zn120  1  0.80999841  0.31460271  0.81045866  1
  Zn  Zn121  1  0.81331764  0.81594066  0.31095194  1
  Zn  Zn122  1  0.81226563  0.80765151  0.81199503  1
  Zn  Zn123  1  0.18807494  0.43416282  0.44395711  1
  Zn  Zn124  1  0.18958501  0.43818780  0.93690079  1
  Zn  Zn125  1  0.19145887  0.93713490  0.43823445  1
  Zn  Zn126  1  0.18879487  0.93762397  0.93715515  1
  Zn  Zn127  1  0.68744791  0.43819902  0.43035623  1
  Zn  Zn128  1  0.69030920  0.43421111  0.92924087  1
  Zn  Zn129  1  0.69157005  0.94126274  0.43645248  1
  Zn  Zn130  1  0.68763362  0.93705310  0.93721303  1
  Zn  Zn131  1  0.31089372  0.06152730  0.06374425  1
  Zn  Zn132  1  0.31062801  0.06516721  0.56996418  1
  Zn  Zn133  1  0.31445215  0.56055479  0.06285032  1
  Zn  Zn134  1  0.29550977  0.57674373  0.59976145  1
  Zn  Zn135  1  0.81386696  0.05955834  0.06304516  1
  Zn  Zn136  1  0.81032179  0.06359279  0.56104664  1
  Zn  Zn137  1  0.81101802  0.56338992  0.04795273  1
  Zn  Zn138  1  0.81372512  0.56523112  0.55582381  1
  Zn  Zn139  1  0.43876743  0.43943725  0.18624308  1
  Zn  Zn140  1  0.44129670  0.43749334  0.69086435  1
  Zn  Zn141  1  0.43571506  0.93748640  0.19222507  1
  Zn  Zn142  1  0.43586007  0.93944815  0.68723689  1
  Zn  Zn143  1  0.93852297  0.43673265  0.18373100  1
  Zn  Zn144  1  0.92858075  0.43606317  0.68670010  1
  Zn  Zn145  1  0.93584997  0.93501054  0.18678815  1
  Zn  Zn146  1  0.93849189  0.93855140  0.68442375  1
  Zn  Zn147  1  0.06162344  0.06655875  0.31156496  1
  Zn  Zn148  1  0.06087818  0.06888960  0.81556822  1
  Zn  Zn149  1  0.06144727  0.56323968  0.31202599  1
  Zn  Zn150  1  0.02418667  0.55114844  0.79400206  1
  Zn  Zn151  1  0.55866515  0.05810008  0.31424142  1
  Zn  Zn152  1  0.56002141  0.06173221  0.81033256  1
  Zn  Zn153  1  0.55052796  0.54494033  0.28713822  1
  Zn  Zn154  1  0.56248315  0.55749704  0.81775758  1
  Zn  Zn155  1  0.43948563  0.18898036  0.44082288  1
  Zn  Zn156  1  0.43688449  0.19240119  0.93640502  1
  Zn  Zn157  1  0.43856535  0.69085604  0.43827694  1
  Zn  Zn158  1  0.44187601  0.68466994  0.94108344  1
  Zn  Zn159  1  0.93714236  0.18781947  0.43573236  1
  Zn  Zn160  1  0.93899501  0.18792325  0.93498905  1
  Zn  Zn161  1  0.93188624  0.68644266  0.43724583  1
  Zn  Zn162  1  0.93815200  0.68832541  0.93603038  1
  Zn  Zn163  1  0.06454653  0.31755366  0.06121042  1
  Zn  Zn164  1  0.05931569  0.31074226  0.56297969  1
  Zn  Zn165  1  0.06363973  0.80904026  0.05811651  1
  Zn  Zn166  1  0.06029874  0.81590020  0.55897679  1
  Zn  Zn167  1  0.56740533  0.30891496  0.06183000  1
  Zn  Zn168  1  0.56497287  0.31155741  0.56913339  1
  Zn  Zn169  1  0.55705091  0.80852067  0.07232902  1
  Zn  Zn170  1  0.56319901  0.80698211  0.56305663  1
  O  O171  1  0.12054251  0.12276152  0.11345566  1
  O  O172  1  0.10936325  0.12996452  0.62653561  1
  O  O173  1  0.12528213  0.61181555  0.13253765  1
  O  O174  1  0.10995186  0.62035551  0.61454978  1
  O  O175  1  0.61790134  0.11755991  0.11957258  1
  O  O176  1  0.61586021  0.12025338  0.62032602  1
  O  O177  1  0.63137189  0.62715767  0.10632709  1
  O  O178  1  0.62501717  0.61400312  0.61246183  1
  O  O179  1  0.37298025  0.38407369  0.38539442  1
  O  O180  1  0.37783309  0.37959289  0.88972247  1
  O  O181  1  0.36621803  0.87897381  0.39691050  1
  O  O182  1  0.37840837  0.88280741  0.88068529  1
  O  O183  1  0.87370780  0.38667456  0.38419617  1
  O  O184  1  0.88444484  0.37462021  0.88100612  1
  O  O185  1  0.88274591  0.88806681  0.37361706  1
  O  O186  1  0.88119575  0.87677642  0.88074509  1
  O  O187  1  0.25207111  0.00976323  0.37026744  1
  O  O188  1  0.25801044  -0.00731747  0.86247404  1
  O  O189  1  0.25494215  0.50404660  0.37689318  1
  O  O190  1  0.26580398  0.49553994  0.87572838  1
  O  O191  1  0.76064233  -0.00245610  0.36366069  1
  O  O192  1  0.75503692  0.00841108  0.86999422  1
  O  O193  1  0.76032186  0.50695038  0.36644747  1
  O  O194  1  0.75133691  0.51464357  0.87168104  1
  O  O195  1  0.24351271  0.49128442  0.13087440  1
  O  O196  1  0.23235383  0.48252990  0.60903625  1
  O  O197  1  0.24711008  0.98787500  0.13043567  1
  O  O198  1  0.24979461  0.99005215  0.63646445  1
  O  O199  1  0.76228049  0.50234013  0.13602137  1
  O  O200  1  0.74281937  0.50406959  0.62209660  1
  O  O201  1  0.74721999  0.98962899  0.13162696  1
  O  O202  1  0.74729057  0.99108562  0.63140931  1
  O  O203  1  0.00895085  0.36937426  0.24870608  1
  O  O204  1  -0.00003411  0.36873794  0.76212807  1
  O  O205  1  0.00579891  0.86803954  0.25460834  1
  O  O206  1  -0.00502235  0.86692680  0.75617195  1
  O  O207  1  0.51365950  0.37034509  0.24984308  1
  O  O208  1  0.52414594  0.38131157  0.74440209  1
  O  O209  1  0.50943933  0.86833008  0.24857617  1
  O  O210  1  0.50669110  0.87024707  0.75691083  1
  O  O211  1  0.49081383  0.12436470  0.24272756  1
  O  O212  1  0.49204149  0.12356868  0.74196145  1
  O  O213  1  0.49545613  0.64573511  0.27744851  1
  O  O214  1  0.50774929  0.63740334  0.75011806  1
  O  O215  1  0.99319609  0.13383343  0.24506896  1
  O  O216  1  0.99351580  0.12521311  0.73859478  1
  O  O217  1  1.00200816  0.63911119  0.24749691  1
  O  O218  1  1.00531705  0.64682559  0.73343952  1
  O  O219  1  0.36632021  0.25969420  0.00508283  1
  O  O220  1  0.36777647  0.26139812  0.50239675  1
  O  O221  1  0.36610507  0.75711824  -0.00243489  1
  O  O222  1  0.36704928  0.76175437  0.50734998  1
  O  O223  1  0.86775208  0.25698477  -0.00759278  1
  O  O224  1  0.87100902  0.25620670  0.50270664  1
  O  O225  1  0.88206200  0.76325432  0.00651453  1
  O  O226  1  0.86402698  0.75279394  0.50892219  1
  O  O227  1  0.13232038  0.25676475  0.49002861  1
  O  O228  1  0.13238842  0.24458008  0.99666637  1
  O  O229  1  0.12880046  0.74560099  0.49402322  1
  O  O230  1  0.12980199  0.75021278  0.98226597  1
  O  O231  1  0.63270044  0.24168867  0.50145890  1
  O  O232  1  0.63659381  0.24066418  0.99660267  1
  O  O233  1  0.63719113  0.74018168  0.50269770  1
  O  O234  1  0.62384751  0.75938694  0.98917044  1
  O  O235  1  0.50013833  0.23544779  0.12696190  1
  O  O236  1  0.49779042  0.23343640  0.62305523  1
  O  O237  1  0.49766821  0.74176257  0.14235438  1
  O  O238  1  0.49400415  0.75075076  0.63704556  1
  O  O239  1  1.00498221  0.25195759  0.13804218  1
  O  O240  1  0.99069190  0.23852814  0.62358205  1
  O  O241  1  0.99308251  0.74929051  0.13089462  1
  O  O242  1  0.99198990  0.74850321  0.62587133  1
  O  O243  1  0.01277457  0.24403348  0.36644572  1
  O  O244  1  0.01012720  0.25581234  0.87357152  1
  O  O245  1  0.00080715  0.75527855  0.36858201  1
  O  O246  1  0.00759601  0.75502156  0.86658494  1
  O  O247  1  0.50306548  0.25262202  0.37223152  1
  O  O248  1  0.50365761  0.25897387  0.88027499  1
  O  O249  1  0.49394603  0.76649553  0.36758017  1
  O  O250  1  0.50932114  0.75521537  0.87109625  1
  O  O251  1  0.25518781  0.13751705  0.49518214  1
  O  O252  1  0.24286123  0.13590338  1.00700639  1
  O  O253  1  0.24094554  0.63305133  0.50161724  1
  O  O254  1  0.24905329  0.63754431  1.00636926  1
  O  O255  1  0.73316512  0.13078506  0.50595190  1
  O  O256  1  0.74858577  0.12713779  0.99170425  1
  O  O257  1  0.74564080  0.63214963  0.48955923  1
  O  O258  1  0.73578095  0.62513009  0.98575645  1
  O  O259  1  0.25750497  0.36966041  0.01036735  1
  O  O260  1  0.25657907  0.36310191  0.50627767  1
  O  O261  1  0.25319454  0.86904377  0.00707299  1
  O  O262  1  0.25416702  0.87282482  0.51378449  1
  O  O263  1  0.75820077  0.36470315  -0.00341564  1
  O  O264  1  0.75926108  0.36893954  0.49749574  1
  O  O265  1  0.76033960  0.88182713  0.00861566  1
  O  O266  1  0.74946573  0.86688171  0.50438023  1
  O  O267  1  0.12873028  0.49270594  0.24697477  1
  O  O268  1  0.12088816  0.50651129  0.73610760  1
  O  O269  1  0.13036525  0.99364609  0.24878865  1
  O  O270  1  0.13910441  1.00616296  0.75837347  1
  O  O271  1  0.64231864  0.48183151  0.25786708  1
  O  O272  1  0.62644960  0.50479835  0.73371458  1
  O  O273  1  0.63343900  0.99598378  0.24382305  1
  O  O274  1  0.62952485  0.98529890  0.75258904  1
  O  O275  1  0.36520107  0.01202653  0.24999396  1
  O  O276  1  0.36906211  0.00661452  0.75806192  1
  O  O277  1  0.36447458  0.49739238  0.26534347  1
  O  O278  1  0.37254692  0.49795119  0.76227334  1
  O  O279  1  0.86925115  0.00516802  0.25469250  1
  O  O280  1  0.86873751  0.00384082  0.75485320  1
  O  O281  1  0.87100569  0.49399466  0.25873527  1
  O  O282  1  0.91627088  0.51458599  0.76167616  1
  O  O283  1  0.13176392  0.36724188  0.36370195  1
  O  O284  1  0.11787224  0.36179908  0.88324736  1
  O  O285  1  0.11972597  0.86888852  0.37034494  1
  O  O286  1  0.11282509  0.87329144  0.87727951  1
  O  O287  1  0.62596339  0.36982534  0.36257677  1
  O  O288  1  0.62568994  0.37194911  0.85909413  1
  O  O289  1  0.62863216  0.87935856  0.36211012  1
  O  O290  1  0.62182029  0.86568560  0.87015936  1
  O  O291  1  0.38151699  0.12541682  0.13230907  1
  O  O292  1  0.38423369  0.12774590  0.63431488  1
  O  O293  1  0.37770827  0.62777826  0.12815345  1
  O  O294  1  0.38545846  0.64606858  0.61208018  1
  O  O295  1  0.87868690  0.11903127  0.13796437  1
  O  O296  1  0.88008888  0.13040116  0.63004393  1
  O  O297  1  0.87322095  0.63992947  0.11467009  1
  O  O298  1  0.88517875  0.63331822  0.61627738  1
  O  O299  1  0.24858509  0.26255903  0.11940870  1
  O  O300  1  0.25010654  0.25559808  0.61867789  1
  O  O301  1  0.24887738  0.75974333  0.11813596  1
  O  O302  1  0.25547181  0.76462478  0.62400594  1
  O  O303  1  0.75190120  0.24634941  0.11039889  1
  O  O304  1  0.76425709  0.24556054  0.61212876  1
  O  O305  1  0.75686001  0.76335907  0.13200658  1
  O  O306  1  0.75472812  0.75334060  0.61880336  1
  O  O307  1  0.24141933  0.24459191  0.38227975  1
  O  O308  1  0.24378282  0.25604685  0.88932699  1
  O  O309  1  0.24488829  0.74499026  0.38278246  1
  O  O310  1  0.23582415  0.75103666  0.87862955  1
  O  O311  1  0.75207923  0.24862596  0.38867882  1
  O  O312  1  0.74976331  0.23576376  0.87891881  1
  O  O313  1  0.75851397  0.74142469  0.38133794  1
  O  O314  1  0.73561902  0.74679948  0.87467572  1
  O  O315  1  0.00424894  0.11592416  0.00077429  1
  O  O316  1  -0.00391504  0.11925727  0.51147262  1
  O  O317  1  -0.00179816  0.61153374  -0.00062942  1
  O  O318  1  0.00300643  0.61868817  0.50337788  1
  O  O319  1  0.50221271  0.11734161  0.00753210  1
  O  O320  1  0.51320194  0.12644860  0.50948103  1
  O  O321  1  0.52132913  0.62719129  -0.00017915  1
  O  O322  1  0.50974678  0.61797874  0.49696055  1
  O  O323  1  0.49282832  0.38009420  0.50310638  1
  O  O324  1  0.48687159  0.37393680  1.01041982  1
  O  O325  1  0.48590709  0.87180365  0.50539921  1
  O  O326  1  0.49201247  0.87903780  0.99815733  1
  O  O327  1  0.99219356  0.38548456  0.49982590  1
  O  O328  1  0.99427099  0.37941183  0.99310948  1
  O  O329  1  0.99650394  0.88466888  0.49220648  1
  O  O330  1  0.99440651  0.88133082  0.99148023  1
  O  O331  1  0.49184900  0.49461679  0.38527439  1
  O  O332  1  0.48650230  0.49224809  0.87343788  1
  O  O333  1  0.49113776  0.99285471  0.37223732  1
  O  O334  1  0.49267559  0.99256706  0.88095070  1
  O  O335  1  0.99056869  0.50711260  0.38248935  1
  O  O336  1  1.01612791  0.48581473  0.88731509  1
  O  O337  1  0.99509221  0.99814088  0.38028148  1
  O  O338  1  0.99529264  0.99374089  0.88185251  1
  O  O339  1  0.00069990  -0.00372888  0.11075076  1
  O  O340  1  -0.00418181  0.01234118  0.61594351  1
  O  O341  1  0.00791268  0.50278685  0.11726717  1
  O  O342  1  0.00340541  0.50699499  0.61372600  1
  O  O343  1  0.50276146  0.00789323  0.12158167  1
  O  O344  1  0.49998008  0.01591873  0.62904902  1
  O  O345  1  0.50830458  0.52415671  0.17868309  1
  O  O346  1  0.50185873  0.50385872  0.61254427  1
  O  O347  1  0.24416917  0.37919036  0.24398479  1
  O  O348  1  0.25071727  0.37578047  0.73937439  1
  O  O349  1  0.24600658  0.87790194  0.24373061  1
  O  O350  1  0.25364006  0.88702326  0.73859551  1
  O  O351  1  0.74723277  0.38067665  0.24407738  1
  O  O352  1  0.73651468  0.38029697  0.75098711  1
  O  O353  1  0.74392742  0.88375774  0.24293201  1
  O  O354  1  0.74209228  0.87626882  0.74561091  1
  O  O355  1  0.25401480  0.12169249  0.25525342  1
  O  O356  1  0.25997313  0.10848617  0.74357603  1
  O  O357  1  0.25304401  0.61825764  0.26235046  1
  O  O358  1  0.25657699  0.61452297  0.70534703  1
  O  O359  1  0.75674160  0.11347949  0.24398542  1
  O  O360  1  0.75382495  0.11870070  0.75489980  1
  O  O361  1  0.74307733  0.61818838  0.25838727  1
  O  O362  1  0.74297768  0.63444090  0.76694684  1
  O  O363  1  0.36307516  0.12724154  0.36937244  1
  O  O364  1  0.37990006  0.11164689  0.87144716  1
  O  O365  1  0.36874854  0.61182559  0.38376332  1
  O  O366  1  0.37912736  0.61103109  0.87944089  1
  O  O367  1  0.88145453  0.11417451  0.36257960  1
  O  O368  1  0.86989111  0.11850526  0.86637957  1
  O  O369  1  0.86401144  0.61291679  0.37910930  1
  O  O370  1  0.85750973  0.63181698  0.87884371  1
  O  O371  1  0.13224795  0.38217786  0.13609588  1
  O  O372  1  0.12837191  0.38104097  0.62314677  1
  O  O373  1  0.13213688  0.87505353  0.12905900  1
  O  O374  1  0.13735199  0.87286450  0.62401466  1
  O  O375  1  0.63167541  0.36960928  0.13785956  1
  O  O376  1  0.62834880  0.38928658  0.63039142  1
  O  O377  1  0.63216205  0.87952225  0.13164864  1
  O  O378  1  0.62960160  0.87438897  0.63296496  1
  O  O379  1  0.11855186  0.25759567  0.25621833  1
  O  O380  1  0.12785350  0.24088869  0.76536522  1
  O  O381  1  0.11861225  0.75549093  0.25595798  1
  O  O382  1  0.11828810  0.75525183  0.76154597  1
  O  O383  1  0.62863274  0.25975008  0.25277137  1
  O  O384  1  0.63372051  0.25962380  0.74633838  1
  O  O385  1  0.61379595  0.75900867  0.24923408  1
  O  O386  1  0.61779212  0.75910107  0.75683876  1
  O  O387  1  0.37298028  0.23849543  0.24697709  1
  O  O388  1  0.36372002  0.23448367  0.75451920  1
  O  O389  1  0.38616657  0.75201105  0.24982890  1
  O  O390  1  0.38471250  0.75836369  0.74433119  1
  O  O391  1  0.88361615  0.24209984  0.25722278  1
  O  O392  1  0.87540313  0.24404900  0.74083444  1
  O  O393  1  0.88417317  0.75851407  0.23849868  1
  O  O394  1  0.88133473  0.75406859  0.73550748  1
  O  O395  1  0.38103699  0.48815371  0.49876272  1
  O  O396  1  0.37307018  0.48750091  0.99539532  1
  O  O397  1  0.36784375  0.98692882  0.50613872  1
  O  O398  1  0.37586402  0.99329491  0.99283617  1
  O  O399  1  0.87987851  0.49224564  0.49335719  1
  O  O400  1  0.88502307  0.49186792  0.98935315  1
  O  O401  1  0.87978403  1.00152275  0.49006568  1
  O  O402  1  0.88270109  0.99164383  0.99355787  1
  O  O403  1  0.11865021  0.00753774  -0.00116462  1
  O  O404  1  0.11298259  -0.00027264  0.49387892  1
  O  O405  1  0.11821097  0.49122827  0.01281010  1
  O  O406  1  0.11427481  0.50417515  0.50170886  1
  O  O407  1  0.61868214  0.00411041  0.00558688  1
  O  O408  1  0.62829354  0.01195734  0.50132145  1
  O  O409  1  0.62895789  0.50344854  0.00027755  1
  O  O410  1  0.62011012  0.50248549  0.50632075  1
  O  O411  1  0.36809212  0.37700661  0.11935188  1
  O  O412  1  0.36628988  0.37358001  0.62171183  1
  O  O413  1  0.36627014  0.87340839  0.11827630  1
  O  O414  1  0.36855598  0.86937270  0.61860064  1
  O  O415  1  0.87432660  0.37759778  0.10698695  1
  O  O416  1  0.88158943  0.36462056  0.61373182  1
  O  O417  1  0.86787931  0.86945129  0.11664109  1
  O  O418  1  0.86708779  0.86824727  0.62154527  1
  O  O419  1  0.13759843  0.13463397  0.36970971  1
  O  O420  1  0.12044103  0.13465592  0.89028331  1
  O  O421  1  0.12970736  0.63052198  0.38135981  1
  O  O422  1  0.11937292  0.63319108  0.86385882  1
  O  O423  1  0.62181021  0.12550406  0.38782639  1
  O  O424  1  0.63347712  0.12207997  0.87960475  1
  O  O425  1  0.63658968  0.61455208  0.38600765  1
  O  O426  1  0.62870683  0.63471316  0.88370212  1
