# generated using pymatgen
data_V85Zn86O256
_symmetry_space_group_name_H-M   'P 1'
_cell_length_a   16.96418210
_cell_length_b   16.97866608
_cell_length_c   16.99525011
_cell_angle_alpha   90.03054709
_cell_angle_beta   89.99299407
_cell_angle_gamma   90.07606292
_symmetry_Int_Tables_number   1
_chemical_formula_structural   V85Zn86O256
_chemical_formula_sum   'V85 Zn86 O256'
_cell_volume   4895.12296164
_cell_formula_units_Z   1
loop_
 _symmetry_equiv_pos_site_id
 _symmetry_equiv_pos_as_xyz
  1  'x, y, z'
loop_
 _atom_site_type_symbol
 _atom_site_label
 _atom_site_symmetry_multiplicity
 _atom_site_fract_x
 _atom_site_fract_y
 _atom_site_fract_z
 _atom_site_occupancy
  V  V0  1  0.29877452  0.55251741  0.70626585  1
  V  V1  1  0.24945857  0.50099934  0.25223412  1
  V  V2  1  0.12423565  0.24914004  0.87401810  1
  V  V3  1  0.24995240  0.24761553  0.00013040  1
  V  V4  1  0.75463800  0.37546714  0.61802222  1
  V  V5  1  0.12820422  0.37489632  0.25179450  1
  V  V6  1  0.37246353  0.87056802  -0.00371049  1
  V  V7  1  0.00090542  0.87583749  0.38390706  1
  V  V8  1  0.12441131  0.87445689  0.25265974  1
  V  V9  1  0.25361200  0.12953764  0.37344447  1
  V  V10  1  0.25306998  0.63289625  0.87975035  1
  V  V11  1  0.62566987  0.61969371  0.49527723  1
  V  V12  1  0.63117909  0.37390981  0.75051246  1
  V  V13  1  0.00335618  0.87880551  0.87128960  1
  V  V14  1  0.12219746  0.62470600  0.50370909  1
  V  V15  1  0.63263197  0.74565247  0.37201666  1
  V  V16  1  0.63472143  0.88339652  0.75139261  1
  V  V17  1  0.61836421  0.50760613  0.63357487  1
  V  V18  1  0.38217167  0.36964602  0.50034075  1
  V  V19  1  0.69411048  0.93253142  0.57711300  1
  V  V20  1  0.37852524  0.00120871  0.38131526  1
  V  V21  1  0.50657982  0.87854630  0.37081581  1
  V  V22  1  0.86087203  0.62408214  0.25744561  1
  V  V23  1  0.49250438  0.73818527  0.73055470  1
  V  V24  1  0.00236641  0.12361653  0.12437655  1
  V  V25  1  0.75174673  0.00069768  0.24684167  1
  V  V26  1  0.62946256  0.49418714  0.11853231  1
  V  V27  1  0.38643710  0.24358898  0.12407350  1
  V  V28  1  0.37595389  0.86157401  0.50099304  1
  V  V29  1  0.37520015  0.75066607  0.12246595  1
  V  V30  1  0.38512492  0.11987174  0.24015050  1
  V  V31  1  0.49937629  0.37737867  0.87508337  1
  V  V32  1  0.24795317  0.87101496  0.12009361  1
  V  V33  1  0.74652660  0.74601930  -0.00738444  1
  V  V34  1  0.24995323  -0.00185312  0.24990430  1
  V  V35  1  0.75104761  0.12928619  0.39028829  1
  V  V36  1  0.25100786  0.63002313  0.37861540  1
  V  V37  1  0.50141757  0.00204016  0.00155122  1
  V  V38  1  0.12629305  0.12416641  -0.00234387  1
  V  V39  1  0.12411445  0.50048150  0.12372344  1
  V  V40  1  0.12850526  0.75141359  0.38385976  1
  V  V41  1  0.12280436  0.11882240  0.49824775  1
  V  V42  1  0.37291097  0.37357703  -0.00015190  1
  V  V43  1  0.86773566  0.00110852  0.86639252  1
  V  V44  1  -0.00726275  0.49765387  0.50233729  1
  V  V45  1  0.36726287  0.50276736  0.87741101  1
  V  V46  1  0.24982986  0.37373105  0.12517539  1
  V  V47  1  0.87145760  0.25457158  0.61008555  1
  V  V48  1  0.62014125  0.00129122  0.13549575  1
  V  V49  1  0.62521375  0.24793813  0.87521878  1
  V  V50  1  0.00063055  -0.00174763  -0.00066569  1
  V  V51  1  0.50097008  0.86841828  0.86903516  1
  V  V52  1  0.25154205  0.36014228  0.62640726  1
  V  V53  1  0.12871332  0.87801122  0.74663677  1
  V  V54  1  -0.00589427  0.24862087  0.74656710  1
  V  V55  1  0.87838070  0.87695360  0.51032368  1
  V  V56  1  0.00335852  0.25010963  0.24916865  1
  V  V57  1  0.25611532  0.86395215  0.61958472  1
  V  V58  1  0.38462134  0.49801811  0.37456125  1
  V  V59  1  0.49456851  0.11406342  0.61820920  1
  V  V60  1  0.88311708  -0.00010019  0.37959211  1
  V  V61  1  0.37686290  0.00484137  0.86923813  1
  V  V62  1  0.87719544  0.12339783  0.24889896  1
  V  V63  1  0.13195039  0.62973833  0.00376226  1
  V  V64  1  0.50674277  0.75572588  0.24784715  1
  V  V65  1  -0.00012555  0.11731980  0.62214129  1
  V  V66  1  -0.05289334  0.54960436  -0.05481524  1
  V  V67  1  0.37312669  0.62966707  0.25060115  1
  V  V68  1  0.74432462  0.87482507  0.12686658  1
  V  V69  1  0.87241580  0.75223811  0.12925112  1
  V  V70  1  -0.00495667  0.37436130  0.38014633  1
  V  V71  1  0.00007420  0.74324354  0.74791749  1
  V  V72  1  0.25630286  0.00537556  0.74320789  1
  V  V73  1  -0.00960148  0.37283214  0.87998146  1
  V  V74  1  0.62541260  0.12442902  0.00558213  1
  V  V75  1  0.12663644  0.37860658  0.74973858  1
  V  V76  1  0.76392735  0.51415498  0.76326852  1
  V  V77  1  0.86515842  0.74135841  0.63096930  1
  V  V78  1  -0.00190516  0.61961587  0.13212591  1
  V  V79  1  0.87439528  0.25119455  0.12087131  1
  V  V80  1  0.69630775  0.44742728  0.30018917  1
  V  V81  1  0.86935309  0.50210207  0.37412853  1
  V  V82  1  -0.00134782  0.74936793  0.25429892  1
  V  V83  1  0.48506270  0.24208252  0.74591274  1
  V  V84  1  0.12800022  0.25036074  0.37501879  1
  Zn  Zn85  1  0.13193649  0.75544207  0.88175196  1
  Zn  Zn86  1  0.62600901  0.24482099  0.37541861  1
  Zn  Zn87  1  0.49486364  0.50565306  0.51127359  1
  Zn  Zn88  1  0.25718037  0.12736971  0.86759832  1
  Zn  Zn89  1  -0.00582214  0.61921816  0.62991849  1
  Zn  Zn90  1  0.12268916  0.49519009  0.62444681  1
  Zn  Zn91  1  0.49826005  0.50386582  0.00059584  1
  Zn  Zn92  1  0.51830599  -0.00019887  0.50137383  1
  Zn  Zn93  1  0.62149108  0.62324493  -0.00570570  1
  Zn  Zn94  1  0.75015740  0.25106549  -0.00039395  1
  Zn  Zn95  1  0.86200513  0.12236709  0.74306820  1
  Zn  Zn96  1  0.62844635  0.74022963  0.86353546  1
  Zn  Zn97  1  0.50315274  0.62399418  0.12357742  1
  Zn  Zn98  1  0.74851990  0.74411564  0.50118600  1
  Zn  Zn99  1  0.74797104  0.37305330  0.12691655  1
  Zn  Zn100  1  0.12581111  -0.00287596  0.61723079  1
  Zn  Zn101  1  0.74257408  0.11893615  0.86924971  1
  Zn  Zn102  1  0.52094100  0.27707698  0.25608947  1
  Zn  Zn103  1  0.25629467  0.24594197  0.50235793  1
  Zn  Zn104  1  0.87239907  0.87912274  0.00120096  1
  Zn  Zn105  1  0.12532916  -0.00162771  0.12391880  1
  Zn  Zn106  1  0.87444815  0.38058809  0.00235136  1
  Zn  Zn107  1  0.19156275  0.18587941  0.18593156  1
  Zn  Zn108  1  0.18415500  0.18634448  0.68763308  1
  Zn  Zn109  1  0.18676625  0.69114118  0.19117699  1
  Zn  Zn110  1  0.18107021  0.69321034  0.68686560  1
  Zn  Zn111  1  0.68702212  0.18798425  0.19012597  1
  Zn  Zn112  1  0.68474443  0.18269927  0.68823166  1
  Zn  Zn113  1  0.68324593  0.68336088  0.18184425  1
  Zn  Zn114  1  0.68263861  0.68761273  0.69327233  1
  Zn  Zn115  1  0.34385212  0.32284453  0.30044735  1
  Zn  Zn116  1  0.30899697  0.31577594  0.81393202  1
  Zn  Zn117  1  0.31529923  0.81395104  0.31363833  1
  Zn  Zn118  1  0.31554599  0.81380599  0.80719232  1
  Zn  Zn119  1  0.81748294  0.30733651  0.31396035  1
  Zn  Zn120  1  0.80997850  0.31048446  0.80941500  1
  Zn  Zn121  1  0.81306533  0.81653148  0.31186427  1
  Zn  Zn122  1  0.81595767  0.81457527  0.81094146  1
  Zn  Zn123  1  0.18943119  0.43804383  0.43995525  1
  Zn  Zn124  1  0.18439169  0.44050394  0.93854756  1
  Zn  Zn125  1  0.19371275  0.93829079  0.43975106  1
  Zn  Zn126  1  0.19080150  0.93977704  0.93429294  1
  Zn  Zn127  1  0.64553510  0.39650688  0.47353035  1
  Zn  Zn128  1  0.69373507  0.43555600  0.93909044  1
  Zn  Zn129  1  0.69201206  0.93573981  0.41471409  1
  Zn  Zn130  1  0.68479537  0.93145523  0.93954237  1
  Zn  Zn131  1  0.31172767  0.05860330  0.05807023  1
  Zn  Zn132  1  0.31776210  0.06386978  0.56449523  1
  Zn  Zn133  1  0.31194498  0.56342006  0.06109958  1
  Zn  Zn134  1  0.30784668  0.56219919  0.54818167  1
  Zn  Zn135  1  0.81147521  0.06571471  0.05748201  1
  Zn  Zn136  1  0.82160964  0.06280258  0.56345560  1
  Zn  Zn137  1  0.80623136  0.56623818  0.07178714  1
  Zn  Zn138  1  0.80483243  0.55829999  0.56445977  1
  Zn  Zn139  1  0.44241813  0.43744331  0.18745109  1
  Zn  Zn140  1  0.43931586  0.42463618  0.68644703  1
  Zn  Zn141  1  0.43760928  0.93805909  0.18729341  1
  Zn  Zn142  1  0.44196779  0.93411212  0.68626648  1
  Zn  Zn143  1  0.93553968  0.43748292  0.19221555  1
  Zn  Zn144  1  0.93613313  0.43748082  0.69170800  1
  Zn  Zn145  1  0.93746478  0.93593692  0.18830270  1
  Zn  Zn146  1  0.93802452  0.93554485  0.68736427  1
  Zn  Zn147  1  0.06436783  0.06128725  0.31301258  1
  Zn  Zn148  1  0.06284821  0.06330984  0.80745525  1
  Zn  Zn149  1  0.06026403  0.56176588  0.31530460  1
  Zn  Zn150  1  0.07374164  0.56427496  0.81234311  1
  Zn  Zn151  1  0.55203261  0.09273085  0.32430600  1
  Zn  Zn152  1  0.56140458  0.06264469  0.80987825  1
  Zn  Zn153  1  0.55942983  0.57008652  0.30933766  1
  Zn  Zn154  1  0.56143102  0.56507045  0.81476359  1
  Zn  Zn155  1  0.44334082  0.18898431  0.43810380  1
  Zn  Zn156  1  0.44199890  0.18609434  0.93746463  1
  Zn  Zn157  1  0.44706495  0.68475719  0.43761204  1
  Zn  Zn158  1  0.44030990  0.68493406  0.93573281  1
  Zn  Zn159  1  0.93890362  0.18669630  0.43834917  1
  Zn  Zn160  1  0.93742975  0.18432916  0.93563264  1
  Zn  Zn161  1  0.93442460  0.68680724  0.44298490  1
  Zn  Zn162  1  0.93937619  0.71031004  0.94232552  1
  Zn  Zn163  1  0.06049035  0.31347829  0.06114482  1
  Zn  Zn164  1  0.06442077  0.30805628  0.56037547  1
  Zn  Zn165  1  0.06065324  0.81128299  0.06425175  1
  Zn  Zn166  1  0.06114906  0.81094187  0.56591769  1
  Zn  Zn167  1  0.56359795  0.31636416  0.06140782  1
  Zn  Zn168  1  0.57923560  0.26661244  0.57664288  1
  Zn  Zn169  1  0.56316176  0.81691955  0.06131116  1
  Zn  Zn170  1  0.55703686  0.80532170  0.55743406  1
  O  O171  1  0.12018047  0.12115704  0.11762662  1
  O  O172  1  0.11834341  0.12399931  0.61486638  1
  O  O173  1  0.11827132  0.62352630  0.12304534  1
  O  O174  1  0.12514733  0.62372536  0.61207031  1
  O  O175  1  0.63084612  0.11642796  0.11232123  1
  O  O176  1  0.59788646  0.15717630  0.61952450  1
  O  O177  1  0.62332122  0.61114178  0.11807653  1
  O  O178  1  0.62842598  0.60971556  0.62260956  1
  O  O179  1  0.35517674  0.39033598  0.39326738  1
  O  O180  1  0.37803193  0.38109339  0.88144745  1
  O  O181  1  0.38317755  0.88146632  0.38202504  1
  O  O182  1  0.37944029  0.88228983  0.88174277  1
  O  O183  1  0.88814129  0.38294974  0.36841555  1
  O  O184  1  0.88763695  0.36851626  0.87555934  1
  O  O185  1  0.88238313  0.87974158  0.38491417  1
  O  O186  1  0.88567344  0.88523716  0.87588059  1
  O  O187  1  0.25708636  0.00666253  0.36703104  1
  O  O188  1  0.26021492  0.00026304  0.86452908  1
  O  O189  1  0.25256232  0.51149748  0.36962975  1
  O  O190  1  0.25888698  0.50854413  0.87821765  1
  O  O191  1  0.76590324  0.00576330  0.36549087  1
  O  O192  1  0.76671092  -0.00546202  0.88291930  1
  O  O193  1  0.76174957  0.49450755  0.36817157  1
  O  O194  1  0.74848048  0.49709646  0.86146913  1
  O  O195  1  0.24544939  0.49523544  0.13282946  1
  O  O196  1  0.24621277  0.49519531  0.63389518  1
  O  O197  1  0.24968979  0.98776164  0.13224070  1
  O  O198  1  0.25067345  0.99170483  0.62953706  1
  O  O199  1  0.73537965  0.49611524  0.12587388  1
  O  O200  1  0.74207071  0.49040419  0.63860410  1
  O  O201  1  0.74694440  0.99523751  0.12935893  1
  O  O202  1  0.75314682  0.99455027  0.62717682  1
  O  O203  1  0.00967471  0.37015022  0.25890101  1
  O  O204  1  0.00569509  0.36597915  0.75706849  1
  O  O205  1  0.00475638  0.87016264  0.26186119  1
  O  O206  1  0.00913995  0.87141022  0.75504336  1
  O  O207  1  0.45037685  0.36166536  0.26618162  1
  O  O208  1  0.50559083  0.36753957  0.76262246  1
  O  O209  1  0.49258250  0.86677999  0.25913279  1
  O  O210  1  0.50893329  0.87014299  0.75532841  1
  O  O211  1  0.48284635  0.10284236  0.23250871  1
  O  O212  1  0.50296095  0.13732263  0.74337685  1
  O  O213  1  0.48939580  0.63735758  0.24457524  1
  O  O214  1  0.50145548  0.63984414  0.75030701  1
  O  O215  1  0.99709601  0.12848389  0.24462283  1
  O  O216  1  1.00103713  0.13395697  0.73961988  1
  O  O217  1  0.99709150  0.63265392  0.24617080  1
  O  O218  1  1.01300348  0.63997445  0.74977880  1
  O  O219  1  0.37061117  0.25194787  0.00501627  1
  O  O220  1  0.37373033  0.26492823  0.48930328  1
  O  O221  1  0.37994250  0.76360816  0.00727588  1
  O  O222  1  0.37996890  0.76337749  0.49085352  1
  O  O223  1  0.87907085  0.24566876  0.01282640  1
  O  O224  1  0.88182532  0.25372882  0.51120504  1
  O  O225  1  0.86471581  0.75783704  0.01157755  1
  O  O226  1  0.86958307  0.75768657  0.51008493  1
  O  O227  1  0.13147463  0.23885991  0.49059020  1
  O  O228  1  0.12854204  0.24489116  0.99169431  1
  O  O229  1  0.11881179  0.74271316  0.49004231  1
  O  O230  1  0.11678954  0.73526057  0.99986246  1
  O  O231  1  0.61996670  0.28745785  0.47920213  1
  O  O232  1  0.62104935  0.24044666  0.99479569  1
  O  O233  1  0.62666368  0.74170005  0.49008810  1
  O  O234  1  0.63988753  0.75430055  1.00132374  1
  O  O235  1  0.48806478  0.25527919  0.12813683  1
  O  O236  1  0.48696172  0.26305513  0.64603920  1
  O  O237  1  0.49245395  0.75513834  0.13175494  1
  O  O238  1  0.49608535  0.74716462  0.63051831  1
  O  O239  1  0.99802826  0.24296098  0.13119860  1
  O  O240  1  0.99414475  0.24545813  0.63101980  1
  O  O241  1  0.99361987  0.74054480  0.13198809  1
  O  O242  1  0.99156763  0.74658235  0.63324595  1
  O  O243  1  0.00475244  0.25713626  0.36946410  1
  O  O244  1  0.00552119  0.25463339  0.86804150  1
  O  O245  1  0.00572899  0.75775829  0.37368601  1
  O  O246  1  0.00324460  0.76531120  0.86716630  1
  O  O247  1  0.51364606  0.20426833  0.35370999  1
  O  O248  1  0.50796255  0.25592932  0.87042767  1
  O  O249  1  0.50851652  0.75812805  0.36614804  1
  O  O250  1  0.49944387  0.76381862  0.87612375  1
  O  O251  1  0.24797166  0.12531259  0.48920936  1
  O  O252  1  0.24144790  0.12744450  0.99455493  1
  O  O253  1  0.23838875  0.62505954  0.48615551  1
  O  O254  1  0.24343740  0.62826376  0.99352972  1
  O  O255  1  0.76173372  0.12336890  0.48830089  1
  O  O256  1  0.74005009  0.12793274  0.99065232  1
  O  O257  1  0.73320681  0.62526416  0.50507452  1
  O  O258  1  0.75166236  0.64447414  1.00808590  1
  O  O259  1  0.25273932  0.36828147  0.00406992  1
  O  O260  1  0.25154331  0.37249033  0.51211006  1
  O  O261  1  0.25831456  0.88015955  0.00863733  1
  O  O262  1  0.26560022  0.87582902  0.50381051  1
  O  O263  1  0.75720461  0.36877460  0.00603630  1
  O  O264  1  0.75497303  0.38840943  0.52092335  1
  O  O265  1  0.75251913  0.86855816  0.01086202  1
  O  O266  1  0.75387401  0.87695505  0.50708766  1
  O  O267  1  0.13020228  0.49600825  0.24529070  1
  O  O268  1  0.11658728  0.48220954  0.74667055  1
  O  O269  1  0.13280939  0.99173757  0.24939124  1
  O  O270  1  0.13193609  0.98962193  0.74688707  1
  O  O271  1  0.63245054  0.50784744  0.24301122  1
  O  O272  1  0.62648127  0.49152847  0.74466362  1
  O  O273  1  0.63429035  1.00988830  0.23785696  1
  O  O274  1  0.62173711  0.98289585  0.75390832  1
  O  O275  1  0.36564542  -0.00077093  0.25741474  1
  O  O276  1  0.36834894  -0.00846122  0.75773570  1
  O  O277  1  0.36691399  0.51136753  0.25606591  1
  O  O278  1  0.36731814  0.49260784  0.75705370  1
  O  O279  1  0.87241347  0.00456987  0.25645774  1
  O  O280  1  0.88082978  0.00008455  0.76356642  1
  O  O281  1  0.88230333  0.51241664  0.26161387  1
  O  O282  1  0.86360189  0.50153855  0.75008105  1
  O  O283  1  0.12117859  0.36918492  0.37022602  1
  O  O284  1  0.12011105  0.36510654  0.86994307  1
  O  O285  1  0.11997850  0.86972665  0.37577700  1
  O  O286  1  0.12095276  0.87561901  0.86694531  1
  O  O287  1  0.63272468  0.39658864  0.35716891  1
  O  O288  1  0.61581210  0.37020231  0.87149827  1
  O  O289  1  0.61193368  0.86783281  0.37403200  1
  O  O290  1  0.61819266  0.87004554  0.86594251  1
  O  O291  1  0.36636077  0.13155810  0.12750276  1
  O  O292  1  0.39350540  0.12573271  0.62518522  1
  O  O293  1  0.36970449  0.64053118  0.12865526  1
  O  O294  1  0.34978564  0.61103730  0.64525610  1
  O  O295  1  0.88338403  0.12896520  0.12877672  1
  O  O296  1  0.88375164  0.13517486  0.62567807  1
  O  O297  1  0.88225353  0.63019026  0.13593983  1
  O  O298  1  0.87645027  0.63908012  0.61865699  1
  O  O299  1  0.25355761  0.25516112  0.11611900  1
  O  O300  1  0.25003777  0.25640806  0.62393357  1
  O  O301  1  0.25714279  0.76420353  0.13318011  1
  O  O302  1  0.24949883  0.76503338  0.63062283  1
  O  O303  1  0.76255913  0.24901914  0.12400993  1
  O  O304  1  0.75779778  0.26495435  0.63023878  1
  O  O305  1  0.75264067  0.75989682  0.12376143  1
  O  O306  1  0.76287753  0.74816168  0.62750891  1
  O  O307  1  0.24930028  0.23520981  0.36877748  1
  O  O308  1  0.24125795  0.24704487  0.88040691  1
  O  O309  1  0.23973704  0.74378783  0.36838584  1
  O  O310  1  0.25016458  0.73677906  0.86554677  1
  O  O311  1  0.75782647  0.23143928  0.37290830  1
  O  O312  1  0.73352789  0.25268927  0.87647468  1
  O  O313  1  0.73514823  0.76216525  0.37544351  1
  O  O314  1  0.75401699  0.75717519  0.89053690  1
  O  O315  1  0.00729606  0.11687760  0.00364380  1
  O  O316  1  0.01079048  0.12969607  0.50817223  1
  O  O317  1  0.00260615  0.61934657  0.00730771  1
  O  O318  1  0.00738644  0.61650391  0.50117568  1
  O  O319  1  0.50635092  0.10887822  -0.00249548  1
  O  O320  1  0.49713510  0.11593936  0.51111132  1
  O  O321  1  0.49938976  0.62149065  0.00702956  1
  O  O322  1  0.51509178  0.62076279  0.50098620  1
  O  O323  1  0.48060348  0.38261695  0.50139719  1
  O  O324  1  0.49291082  0.37554232  0.98742641  1
  O  O325  1  0.49172882  0.88034410  0.49180807  1
  O  O326  1  0.49436324  0.88331686  0.99158439  1
  O  O327  1  1.00805048  0.38273234  0.48917741  1
  O  O328  1  0.99768672  0.37305206  0.98784870  1
  O  O329  1  0.99415888  0.87156403  0.49097423  1
  O  O330  1  1.00022740  0.88164845  0.99162154  1
  O  O331  1  0.48579602  0.50662840  0.37311941  1
  O  O332  1  0.48533265  0.49189547  0.87329280  1
  O  O333  1  0.49546242  0.99626962  0.37648456  1
  O  O334  1  0.49472582  0.98928106  0.87940012  1
  O  O335  1  0.99286846  0.49241198  0.38161260  1
  O  O336  1  1.00600931  0.49236869  0.88042851  1
  O  O337  1  0.99090783  0.99150655  0.37031139  1
  O  O338  1  0.99725124  0.99280783  0.87872994  1
  O  O339  1  0.00176403  0.00244029  0.11543919  1
  O  O340  1  0.00155472  0.01371140  0.62890625  1
  O  O341  1  0.00602071  0.51312509  0.13404249  1
  O  O342  1  0.00038972  0.50002796  0.61703575  1
  O  O343  1  0.51052780  -0.01193041  0.11446246  1
  O  O344  1  0.50520514  0.01057353  0.62480828  1
  O  O345  1  0.51180143  0.50030723  0.12611117  1
  O  O346  1  0.51538896  0.49196388  0.63211253  1
  O  O347  1  0.24702629  0.37976535  0.24422611  1
  O  O348  1  0.23924169  0.36775081  0.74116609  1
  O  O349  1  0.24576387  0.88326564  0.24640108  1
  O  O350  1  0.24532095  0.88318558  0.74211765  1
  O  O351  1  0.75453070  0.37989393  0.24851524  1
  O  O352  1  0.73995978  0.38060776  0.74920553  1
  O  O353  1  0.75469058  0.89139560  0.24410976  1
  O  O354  1  0.73373575  0.86924399  0.75408205  1
  O  O355  1  0.25175191  0.11018031  0.25352996  1
  O  O356  1  0.24340246  0.10965899  0.74951066  1
  O  O357  1  0.25288118  0.62344294  0.26012152  1
  O  O358  1  0.23311356  0.61482698  0.75873209  1
  O  O359  1  0.76188963  0.11346256  0.25083419  1
  O  O360  1  0.74975508  0.12744529  0.75692969  1
  O  O361  1  0.76248830  0.63255297  0.24818990  1
  O  O362  1  0.74781615  0.61293737  0.74976540  1
  O  O363  1  0.36850292  0.11634682  0.36366323  1
  O  O364  1  0.37631531  0.10857914  0.88186169  1
  O  O365  1  0.36679778  0.62161657  0.37315289  1
  O  O366  1  0.36575116  0.61563554  0.87883608  1
  O  O367  1  0.87455691  0.11617313  0.37002525  1
  O  O368  1  0.87762347  0.10924788  0.87241059  1
  O  O369  1  0.88011801  0.61584328  0.36908701  1
  O  O370  1  0.89803888  0.61457806  0.89024707  1
  O  O371  1  0.12936408  0.38033607  0.13068593  1
  O  O372  1  0.13285559  0.37196442  0.63212839  1
  O  O373  1  0.13150725  0.87440216  0.13163735  1
  O  O374  1  0.13280990  0.87773262  0.62884340  1
  O  O375  1  0.62460646  0.38795246  0.12724754  1
  O  O376  1  0.63658154  0.37805269  0.63628909  1
  O  O377  1  0.63702289  0.88534900  0.12367958  1
  O  O378  1  0.62741796  0.87318474  0.63089052  1
  O  O379  1  0.12218652  0.25322586  0.25530930  1
  O  O380  1  0.11496027  0.25524900  0.75641345  1
  O  O381  1  0.11861704  0.75620825  0.26255393  1
  O  O382  1  0.11788323  0.76461942  0.75299437  1
  O  O383  1  0.62877047  0.25030129  0.25869361  1
  O  O384  1  0.61571935  0.26016777  0.75921212  1
  O  O385  1  0.61352360  0.74318967  0.25409727  1
  O  O386  1  0.61209602  0.76051618  0.74752170  1
  O  O387  1  0.36258065  0.22991132  0.23458519  1
  O  O388  1  0.38794253  0.24828154  0.76612305  1
  O  O389  1  0.38203359  0.74870530  0.24274250  1
  O  O390  1  0.39448139  0.75831367  0.75132860  1
  O  O391  1  0.88470135  0.24261839  0.24046265  1
  O  O392  1  0.88611064  0.24787333  0.74586681  1
  O  O393  1  0.88075150  0.74561710  0.24906073  1
  O  O394  1  0.88387012  0.75624371  0.73822358  1
  O  O395  1  0.37658321  0.49628193  0.49081716  1
  O  O396  1  0.37427654  0.49127226  0.99396767  1
  O  O397  1  0.37372452  0.99483851  0.48545736  1
  O  O398  1  0.38219588  0.98901203  0.99500519  1
  O  O399  1  0.88562415  0.50684733  0.49230841  1
  O  O400  1  0.87866169  0.50182649  1.00524107  1
  O  O401  1  0.87536364  0.98873290  0.49147963  1
  O  O402  1  0.88801822  1.00021435  0.99149385  1
  O  O403  1  0.11500403  0.00403510  -0.00221704  1
  O  O404  1  0.12961283  0.01391505  0.49723996  1
  O  O405  1  0.13021596  0.51335769  0.01259483  1
  O  O406  1  0.11398363  0.50807873  0.49961921  1
  O  O407  1  0.61923600  0.00426793  0.00625169  1
  O  O408  1  0.63802517  -0.01479492  0.50868857  1
  O  O409  1  0.62222031  0.49738647  0.00973381  1
  O  O410  1  0.61985639  0.50055852  0.51715128  1
  O  O411  1  0.36726940  0.36657302  0.11536691  1
  O  O412  1  0.36336681  0.38188196  0.61060789  1
  O  O413  1  0.36825265  0.86799901  0.11834488  1
  O  O414  1  0.37255777  0.88088592  0.60719067  1
  O  O415  1  0.87915224  0.36406124  0.12534287  1
  O  O416  1  0.86299369  0.36822191  0.63379278  1
  O  O417  1  0.86483168  0.87035342  0.12639453  1
  O  O418  1  0.88259388  0.86502895  0.61520281  1
  O  O419  1  0.13238367  0.12930620  0.37862578  1
  O  O420  1  0.12325458  0.13687583  0.87735814  1
  O  O421  1  0.12918697  0.63261712  0.38208737  1
  O  O422  1  0.13379179  0.62619888  0.88780409  1
  O  O423  1  0.65037110  0.11365639  0.37906252  1
  O  O424  1  0.61986576  0.13180352  0.88491042  1
  O  O425  1  0.62295157  0.63391307  0.38098604  1
  O  O426  1  0.62184802  0.62988689  0.88151759  1
