# generated using pymatgen
data_V85Zn86O256
_symmetry_space_group_name_H-M   'P 1'
_cell_length_a   16.94971903
_cell_length_b   16.95510375
_cell_length_c   16.94050011
_cell_angle_alpha   89.93919854
_cell_angle_beta   89.99013219
_cell_angle_gamma   90.00949561
_symmetry_Int_Tables_number   1
_chemical_formula_structural   V85Zn86O256
_chemical_formula_sum   'V85 Zn86 O256'
_cell_volume   4868.42994720
_cell_formula_units_Z   1
loop_
 _symmetry_equiv_pos_site_id
 _symmetry_equiv_pos_as_xyz
  1  'x, y, z'
loop_
 _atom_site_type_symbol
 _atom_site_label
 _atom_site_symmetry_multiplicity
 _atom_site_fract_x
 _atom_site_fract_y
 _atom_site_fract_z
 _atom_site_occupancy
  V  V0  1  0.25639872  0.75054997  -0.00088351  1
  V  V1  1  0.74979587  0.24933990  0.00287773  1
  V  V2  1  0.24973517  0.50936973  0.25318385  1
  V  V3  1  0.12624007  0.24925491  0.37384422  1
  V  V4  1  0.00000278  0.24796724  0.24946179  1
  V  V5  1  0.73167834  0.13477018  0.37888882  1
  V  V6  1  0.75408621  0.87572584  0.11835813  1
  V  V7  1  -0.00647121  0.74306378  0.25201250  1
  V  V8  1  0.62463709  0.11675848  0.00262583  1
  V  V9  1  0.12323598  0.12411521  -0.00294989  1
  V  V10  1  -0.00331518  0.49544002  0.00053495  1
  V  V11  1  0.87659078  -0.01525984  0.87879969  1
  V  V12  1  0.50448751  0.62353017  0.62203596  1
  V  V13  1  0.38059238  0.75341399  0.12834067  1
  V  V14  1  0.62283671  0.00526449  0.61978939  1
  V  V15  1  0.62269564  0.87612772  0.74982683  1
  V  V16  1  0.62831567  0.74626484  0.87381450  1
  V  V17  1  0.62565428  0.37502772  0.25442230  1
  V  V18  1  0.24916136  0.25095552  -0.01098725  1
  V  V19  1  0.74496365  0.74632280  0.49724899  1
  V  V20  1  0.49566911  0.75087038  0.74464927  1
  V  V21  1  0.37185251  0.50361984  0.87272918  1
  V  V22  1  -0.00376494  -0.01566374  -0.00284784  1
  V  V23  1  0.12599242  0.12394455  0.50056400  1
  V  V24  1  0.23861928  0.50330879  0.74262903  1
  V  V25  1  0.87601900  0.25354583  0.12076482  1
  V  V26  1  -0.00128030  0.75363317  0.75956885  1
  V  V27  1  0.74667877  0.25219154  0.51876717  1
  V  V28  1  0.87057828  0.00497421  0.37580025  1
  V  V29  1  -0.00374824  0.37380686  0.37749748  1
  V  V30  1  0.62415429  0.50055497  0.12608301  1
  V  V31  1  0.87520912  0.50550033  0.37293365  1
  V  V32  1  0.37433243  0.37524511  -0.00407263  1
  V  V33  1  -0.00011935  0.87651291  0.37344200  1
  V  V34  1  0.12205922  0.74462575  0.38404970  1
  V  V35  1  0.25370237  0.87607603  0.11810315  1
  V  V36  1  0.12324474  -0.00228970  0.12431535  1
  V  V37  1  0.75331493  0.37643197  0.12335569  1
  V  V38  1  0.37605494  0.25021158  0.12392002  1
  V  V39  1  -0.05548130  0.29661936  0.68953685  1
  V  V40  1  0.37853458  -0.00971929  0.37581094  1
  V  V41  1  0.86558713  0.62864819  0.75596712  1
  V  V42  1  0.25036301  0.37569558  0.12644699  1
  V  V43  1  0.50113907  0.62937323  0.13352263  1
  V  V44  1  0.12567360  0.62336257  0.00096803  1
  V  V45  1  0.12168540  0.87720325  0.75784887  1
  V  V46  1  0.49418966  0.13437095  0.62015667  1
  V  V47  1  -0.00305899  0.12296363  0.12349416  1
  V  V48  1  0.61446584  0.75479220  0.37223010  1
  V  V49  1  0.50148193  0.37090929  0.38430559  1
  V  V50  1  0.25618047  0.86384668  0.61946851  1
  V  V51  1  0.12878531  -0.00104682  0.62660903  1
  V  V52  1  0.24934084  0.00082864  0.24842078  1
  V  V53  1  -0.00104246  0.00008374  0.50017208  1
  V  V54  1  0.48679640  0.87768866  0.87761538  1
  V  V55  1  0.63172163  0.37589577  0.74726746  1
  V  V56  1  0.38289774  0.13241170  0.75640762  1
  V  V57  1  0.50450811  0.11979289  0.12436071  1
  V  V58  1  0.26416756  0.25324368  0.50498976  1
  V  V59  1  0.86684527  0.50096382  0.88127371  1
  V  V60  1  0.37711423  0.12448827  0.25054163  1
  V  V61  1  0.26267148  -0.00199215  0.75367294  1
  V  V62  1  0.25199293  0.12361415  0.37501076  1
  V  V63  1  -0.00524637  0.12207522  0.63189625  1
  V  V64  1  0.63135371  0.62690217  -0.00246370  1
  V  V65  1  0.37376587  0.62842586  0.74571157  1
  V  V66  1  0.87364317  0.75104257  0.62301627  1
  V  V67  1  -0.00920871  0.62104606  0.12939714  1
  V  V68  1  0.49897876  0.50233020  0.00105036  1
  V  V69  1  0.62048975  0.24932612  0.87178866  1
  V  V70  1  0.12731324  0.36974191  0.74307857  1
  V  V71  1  0.50548026  0.24982307  0.25394085  1
  V  V72  1  -0.00503936  0.36673378  0.88063746  1
  V  V73  1  0.49945797  0.37320388  0.86913912  1
  V  V74  1  0.37253787  0.49069423  0.38180873  1
  V  V75  1  0.50100761  -0.00743402  0.49851033  1
  V  V76  1  0.63676836  0.49998275  0.61634288  1
  V  V77  1  0.74635950  0.62740704  0.36797180  1
  V  V78  1  0.75193475  0.12224343  0.87617090  1
  V  V79  1  0.29990708  0.68711906  0.43346648  1
  V  V80  1  0.74425354  -0.00213561  0.24671099  1
  V  V81  1  0.75118412  0.00075489  0.74806184  1
  V  V82  1  0.61454386  0.87223887  0.24470668  1
  V  V83  1  0.00842598  0.62589558  0.62253292  1
  V  V84  1  0.48672276  -0.00191634  -0.00469163  1
  Zn  Zn85  1  0.25617131  0.11804151  0.87682340  1
  Zn  Zn86  1  0.12484989  0.49956128  0.12716649  1
  Zn  Zn87  1  0.86946852  0.12625210  0.25002512  1
  Zn  Zn88  1  0.25965660  0.38026687  0.61404792  1
  Zn  Zn89  1  0.74838464  0.87650206  0.62014356  1
  Zn  Zn90  1  0.13184721  0.61420078  0.49911638  1
  Zn  Zn91  1  0.37653365  0.62830285  0.25376406  1
  Zn  Zn92  1  0.75888793  0.75238209  -0.00734910  1
  Zn  Zn93  1  0.12190935  0.75478748  0.88087373  1
  Zn  Zn94  1  0.75409874  0.50492828  0.24758625  1
  Zn  Zn95  1  0.12560691  0.87174668  0.24981633  1
  Zn  Zn96  1  0.74819990  0.50260274  0.75291009  1
  Zn  Zn97  1  0.87957827  0.12597988  0.75130132  1
  Zn  Zn98  1  0.87630862  0.75251038  0.12073373  1
  Zn  Zn99  1  0.24725850  0.62804166  0.87462093  1
  Zn  Zn100  1  0.50197547  0.49645474  0.50117394  1
  Zn  Zn101  1  0.12738189  0.37643342  0.25087585  1
  Zn  Zn102  1  0.87117813  0.36971152  0.50619620  1
  Zn  Zn103  1  0.37421131  0.86591616  0.49915572  1
  Zn  Zn104  1  0.11750795  0.24510266  0.86796863  1
  Zn  Zn105  1  0.00307789  0.49594530  0.50448192  1
  Zn  Zn106  1  0.87168713  0.87547737  0.49904176  1
  Zn  Zn107  1  0.18791022  0.18752298  0.18412545  1
  Zn  Zn108  1  0.19044113  0.18582205  0.68887535  1
  Zn  Zn109  1  0.18110864  0.68956766  0.18811209  1
  Zn  Zn110  1  0.18538536  0.69030229  0.69112141  1
  Zn  Zn111  1  0.68693649  0.18624585  0.19020631  1
  Zn  Zn112  1  0.68023044  0.18446529  0.69079190  1
  Zn  Zn113  1  0.68849735  0.69192592  0.18782362  1
  Zn  Zn114  1  0.68579514  0.68694391  0.68491868  1
  Zn  Zn115  1  0.31462355  0.31266337  0.31293026  1
  Zn  Zn116  1  0.33507172  0.33393598  0.77011602  1
  Zn  Zn117  1  0.31467146  0.81680005  0.30176792  1
  Zn  Zn118  1  0.30979859  0.81181910  0.81065394  1
  Zn  Zn119  1  0.81448263  0.31286990  0.31080655  1
  Zn  Zn120  1  0.80853695  0.31556587  0.81963517  1
  Zn  Zn121  1  0.81149191  0.81514525  0.31026360  1
  Zn  Zn122  1  0.80869576  0.81282869  0.80984287  1
  Zn  Zn123  1  0.18528871  0.43758733  0.43780604  1
  Zn  Zn124  1  0.18323113  0.43741169  0.93034203  1
  Zn  Zn125  1  0.18787380  0.93452518  0.43751575  1
  Zn  Zn126  1  0.18926509  0.93790658  0.93741148  1
  Zn  Zn127  1  0.69312436  0.43005090  0.43886486  1
  Zn  Zn128  1  0.68669421  0.43614125  0.94137940  1
  Zn  Zn129  1  0.68659086  0.93433052  0.43553482  1
  Zn  Zn130  1  0.68040641  0.93742501  0.93530466  1
  Zn  Zn131  1  0.31279100  0.06486858  0.06229720  1
  Zn  Zn132  1  0.31584416  0.06292240  0.56342121  1
  Zn  Zn133  1  0.31320784  0.56444691  0.06483514  1
  Zn  Zn134  1  0.31977998  0.55742956  0.56798166  1
  Zn  Zn135  1  0.81355143  0.05802555  0.06407995  1
  Zn  Zn136  1  0.81054647  0.06815247  0.55921901  1
  Zn  Zn137  1  0.81285302  0.56403262  0.06191177  1
  Zn  Zn138  1  0.81634002  0.56534965  0.55563620  1
  Zn  Zn139  1  0.43577091  0.44041679  0.19257658  1
  Zn  Zn140  1  0.44158744  0.43982179  0.68366493  1
  Zn  Zn141  1  0.43604864  0.93942003  0.18197574  1
  Zn  Zn142  1  0.43730631  0.93609758  0.68267441  1
  Zn  Zn143  1  0.93695306  0.43645685  0.19170204  1
  Zn  Zn144  1  0.93985487  0.45693445  0.69496927  1
  Zn  Zn145  1  0.93393258  0.93734156  0.19053538  1
  Zn  Zn146  1  0.93623330  0.93660202  0.68902604  1
  Zn  Zn147  1  0.06193788  0.06280252  0.31063313  1
  Zn  Zn148  1  0.06182780  0.05933369  0.81404608  1
  Zn  Zn149  1  0.06516207  0.56107737  0.31573091  1
  Zn  Zn150  1  0.05721634  0.56436741  0.81571379  1
  Zn  Zn151  1  0.56208429  0.05591639  0.31210701  1
  Zn  Zn152  1  0.56000964  0.06093431  0.81222983  1
  Zn  Zn153  1  0.56560011  0.56097313  0.31562718  1
  Zn  Zn154  1  0.56278415  0.56135004  0.81039859  1
  Zn  Zn155  1  0.44448470  0.18135852  0.43619517  1
  Zn  Zn156  1  0.43619184  0.18654605  0.93356038  1
  Zn  Zn157  1  0.46032576  0.68294928  0.43597490  1
  Zn  Zn158  1  0.44104858  0.68869900  0.93807583  1
  Zn  Zn159  1  0.93357392  0.18813015  0.44310104  1
  Zn  Zn160  1  0.93409992  0.18199778  0.94018264  1
  Zn  Zn161  1  0.93418945  0.68748325  0.43858948  1
  Zn  Zn162  1  0.93493438  0.68659803  0.94135491  1
  Zn  Zn163  1  0.06490610  0.31294282  0.06107314  1
  Zn  Zn164  1  0.07426490  0.31702233  0.55581213  1
  Zn  Zn165  1  0.06523419  0.80761199  0.06627926  1
  Zn  Zn166  1  0.06238994  0.81319136  0.56431672  1
  Zn  Zn167  1  0.56351714  0.31080238  0.06154086  1
  Zn  Zn168  1  0.57563600  0.31053799  0.56126344  1
  Zn  Zn169  1  0.56480483  0.81550713  0.06170036  1
  Zn  Zn170  1  0.56311042  0.81443417  0.56139564  1
  O  O171  1  0.11972960  0.11959330  0.11460237  1
  O  O172  1  0.11997933  0.11350734  0.62287103  1
  O  O173  1  0.11653879  0.62268200  0.11463403  1
  O  O174  1  0.11097422  0.63558469  0.62233348  1
  O  O175  1  0.61633282  0.13189375  0.11480725  1
  O  O176  1  0.60974671  0.11142022  0.63483253  1
  O  O177  1  0.61923779  0.62197813  0.12020100  1
  O  O178  1  0.61833279  0.60912047  0.63377791  1
  O  O179  1  0.38811080  0.38150713  0.36843369  1
  O  O180  1  0.38243752  0.38296316  0.87267668  1
  O  O181  1  0.36807430  0.88677441  0.37523654  1
  O  O182  1  0.38775177  0.87001284  0.87163487  1
  O  O183  1  0.88118894  0.38181241  0.37586050  1
  O  O184  1  0.88496961  0.38555143  0.86992403  1
  O  O185  1  0.88118212  0.88756924  0.37479146  1
  O  O186  1  0.86917691  0.88575358  0.87310895  1
  O  O187  1  0.25484195  0.00524249  0.36926483  1
  O  O188  1  0.24632679  -0.00009895  0.85852440  1
  O  O189  1  0.25936666  0.48889468  0.36388017  1
  O  O190  1  0.26052970  0.50496583  0.87176947  1
  O  O191  1  0.75484431  0.00883844  0.37163431  1
  O  O192  1  0.75294153  0.00488241  0.86929714  1
  O  O193  1  0.75784692  0.50760129  0.37661368  1
  O  O194  1  0.76291903  0.49591096  0.88019725  1
  O  O195  1  0.25209769  0.49094073  0.13253650  1
  O  O196  1  0.25067791  0.49962018  0.63887124  1
  O  O197  1  0.24586859  0.99402455  0.12626851  1
  O  O198  1  0.24387131  0.99576426  0.63399838  1
  O  O199  1  0.74531123  0.49220904  0.12613729  1
  O  O200  1  0.73971851  0.50749699  0.62580506  1
  O  O201  1  0.75054596  0.99066189  0.13479671  1
  O  O202  1  0.74241888  1.00254983  0.63058278  1
  O  O203  1  0.00305444  0.36592804  0.26013427  1
  O  O204  1  0.00083477  0.36589683  0.75067003  1
  O  O205  1  0.00164286  0.87142960  0.26157794  1
  O  O206  1  0.01021004  0.86684593  0.74314263  1
  O  O207  1  0.50641734  0.36735315  0.25442451  1
  O  O208  1  0.51262123  0.38260130  0.76503083  1
  O  O209  1  0.51574785  0.88296880  0.24293158  1
  O  O210  1  0.50428714  0.86859771  0.75296863  1
  O  O211  1  0.49957691  0.12994365  0.24281612  1
  O  O212  1  0.48894906  0.11620084  0.74005057  1
  O  O213  1  0.50053109  0.62030276  0.23680863  1
  O  O214  1  0.49356814  0.63198447  0.74444569  1
  O  O215  1  0.99881901  0.13108688  0.24070485  1
  O  O216  1  0.99996630  0.12293619  0.74075474  1
  O  O217  1  1.00623968  0.63105788  0.24203582  1
  O  O218  1  0.99258695  0.63388474  0.74064442  1
  O  O219  1  0.36861175  0.25573532  0.00337450  1
  O  O220  1  0.36178002  0.24190426  0.49198609  1
  O  O221  1  0.36239337  0.74295311  0.00855947  1
  O  O222  1  0.36788548  0.74498200  0.48294549  1
  O  O223  1  0.86705272  0.24459310  0.01330227  1
  O  O224  1  0.85674591  0.25156779  0.49440717  1
  O  O225  1  0.87054842  0.74643464  0.00609155  1
  O  O226  1  0.86724320  0.75289825  0.50781881  1
  O  O227  1  0.13132781  0.24216348  0.48702294  1
  O  O228  1  0.13250598  0.24122547  0.99863614  1
  O  O229  1  0.12176850  0.75067063  0.48735777  1
  O  O230  1  0.13526934  0.74212642  1.00095990  1
  O  O231  1  0.64589292  0.24869749  0.49745515  1
  O  O232  1  0.62935176  0.24050576  0.99075962  1
  O  O233  1  0.63024096  0.75762960  0.48407558  1
  O  O234  1  0.62526796  0.74316930  0.99078462  1
  O  O235  1  0.49405066  0.24159022  0.12884451  1
  O  O236  1  0.50764721  0.23237929  0.61721835  1
  O  O237  1  0.49119870  0.74294988  0.11631831  1
  O  O238  1  0.50995805  0.74206680  0.63722685  1
  O  O239  1  0.99388526  0.24636599  0.12723784  1
  O  O240  1  1.00507733  0.24245216  0.62467018  1
  O  O241  1  1.00073937  0.74017795  0.13460511  1
  O  O242  1  0.99192156  0.74526258  0.63280358  1
  O  O243  1  0.00601011  0.25243855  0.37064258  1
  O  O244  1  -0.00322648  0.26170882  0.88570469  1
  O  O245  1  0.00328367  0.75681062  0.37193585  1
  O  O246  1  0.00053775  0.74586238  0.86252732  1
  O  O247  1  0.49635712  0.25549500  0.36419555  1
  O  O248  1  0.50904249  0.26028498  0.88243567  1
  O  O249  1  0.51470553  0.75372281  0.36964319  1
  O  O250  1  0.50840053  0.75652990  0.86598183  1
  O  O251  1  0.24471770  0.12906525  0.49382981  1
  O  O252  1  0.24217493  0.13216077  0.99984300  1
  O  O253  1  0.25185962  0.63002583  0.50390812  1
  O  O254  1  0.24251965  0.63172859  1.00127037  1
  O  O255  1  0.75257920  0.13352339  0.48491066  1
  O  O256  1  0.74244620  0.12642751  0.99524767  1
  O  O257  1  0.75376492  0.63875929  0.48794296  1
  O  O258  1  0.73438786  0.62691157  1.00560837  1
  O  O259  1  0.25434344  0.36933320  0.00358592  1
  O  O260  1  0.24872739  0.35831485  0.49845216  1
  O  O261  1  0.24587256  0.86774029  0.00982804  1
  O  O262  1  0.25160272  0.87874140  0.51512754  1
  O  O263  1  0.74168180  0.36590320  0.01575930  1
  O  O264  1  0.75384130  0.35994628  0.50481123  1
  O  O265  1  0.73717076  0.87789399  0.01590890  1
  O  O266  1  0.75198136  0.86320555  0.50051321  1
  O  O267  1  0.13481362  0.49597559  0.24877400  1
  O  O268  1  0.13047209  0.49575753  0.75779426  1
  O  O269  1  0.13192350  1.00040688  0.24163281  1
  O  O270  1  0.13215664  0.99509139  0.74285324  1
  O  O271  1  0.62795855  0.49218902  0.24250294  1
  O  O272  1  0.62972226  0.49353492  0.74475965  1
  O  O273  1  0.63561273  0.98648012  0.25689585  1
  O  O274  1  0.63110872  0.99334870  0.74527936  1
  O  O275  1  0.37047112  0.00507431  0.25523452  1
  O  O276  1  0.36514472  0.00273801  0.74565916  1
  O  O277  1  0.36998921  0.50659159  0.26232972  1
  O  O278  1  0.36815748  0.51047636  0.75878750  1
  O  O279  1  0.86200113  0.00170211  0.25781018  1
  O  O280  1  0.86598618  0.00120643  0.75675822  1
  O  O281  1  0.87118624  0.49455507  0.26749308  1
  O  O282  1  0.86791121  0.51109378  0.76027965  1
  O  O283  1  0.11702276  0.36304440  0.37220972  1
  O  O284  1  0.10972026  0.37305507  0.86534981  1
  O  O285  1  0.11636634  0.86932701  0.37298028  1
  O  O286  1  0.12767382  0.87573387  0.86168362  1
  O  O287  1  0.61952743  0.38099286  0.36075308  1
  O  O288  1  0.61897335  0.36781153  0.87378375  1
  O  O289  1  0.63148186  0.86318728  0.36113447  1
  O  O290  1  0.61686689  0.87028680  0.86247784  1
  O  O291  1  0.38232542  0.13104495  0.13106022  1
  O  O292  1  0.38758144  0.12055906  0.63506316  1
  O  O293  1  0.38525321  0.63255815  0.12507109  1
  O  O294  1  0.38593554  0.62046630  0.63860583  1
  O  O295  1  0.88033170  0.13187358  0.12726002  1
  O  O296  1  0.89052847  0.11840694  0.62663454  1
  O  O297  1  0.88770639  0.62324921  0.12701268  1
  O  O298  1  0.88048958  0.63642299  0.63205530  1
  O  O299  1  0.25681976  0.25630959  0.11690708  1
  O  O300  1  0.24711474  0.24480066  0.60637750  1
  O  O301  1  0.25443164  0.75786558  0.11986817  1
  O  O302  1  0.24520990  0.76588430  0.62878396  1
  O  O303  1  0.75684694  0.25487374  0.12373034  1
  O  O304  1  0.74975422  0.23762676  0.61832928  1
  O  O305  1  0.75259664  0.76439606  0.12539858  1
  O  O306  1  0.75435197  0.74997844  0.61598047  1
  O  O307  1  0.24366305  0.24363751  0.37831459  1
  O  O308  1  0.25035228  0.24666437  0.88747363  1
  O  O309  1  0.24368705  0.74884905  0.37123057  1
  O  O310  1  0.24686803  0.74905162  0.88474220  1
  O  O311  1  0.74990349  0.23387944  0.36482422  1
  O  O312  1  0.74404562  0.24187401  0.88292297  1
  O  O313  1  0.74676511  0.74479359  0.37866698  1
  O  O314  1  0.73302631  0.75645295  0.87436300  1
  O  O315  1  0.00772071  0.11861126  0.00628744  1
  O  O316  1  0.00723505  0.11943428  0.50731639  1
  O  O317  1  0.00703257  0.61447764  0.00817081  1
  O  O318  1  -0.00298159  0.62982763  0.51635749  1
  O  O319  1  0.50553147  0.12128391  0.00524768  1
  O  O320  1  0.49461359  0.11194620  0.51363683  1
  O  O321  1  0.50830624  0.61978149  0.00882577  1
  O  O322  1  0.50165816  0.62043790  0.51731440  1
  O  O323  1  0.50790392  0.37124932  0.48701331  1
  O  O324  1  0.49412839  0.38136563  0.99186103  1
  O  O325  1  0.49166368  0.88612075  0.50660780  1
  O  O326  1  0.50698377  0.88623827  0.99060928  1
  O  O327  1  0.99704570  0.36997225  0.48737659  1
  O  O328  1  1.00502538  0.38636766  0.99453030  1
  O  O329  1  0.99814923  0.88119111  0.48947673  1
  O  O330  1  1.00785420  0.88584692  1.00439860  1
  O  O331  1  0.49425134  0.49144113  0.37747749  1
  O  O332  1  0.48997177  0.49574530  0.88051724  1
  O  O333  1  0.49043423  1.00464570  0.38471114  1
  O  O334  1  0.50338713  0.98998514  0.88243930  1
  O  O335  1  0.98989842  0.49090319  0.37343529  1
  O  O336  1  0.99155839  0.49160865  0.88307844  1
  O  O337  1  0.99391848  0.99408503  0.37791214  1
  O  O338  1  0.98856056  1.00372122  0.88457032  1
  O  O339  1  0.00250038  0.00397850  0.11998722  1
  O  O340  1  0.00816673  0.00370668  0.62112716  1
  O  O341  1  0.00131093  0.50243311  0.11976307  1
  O  O342  1  -0.00210651  0.52114485  0.62487260  1
  O  O343  1  0.49733856  0.01401988  0.11733370  1
  O  O344  1  0.50596226  0.00392485  0.61832161  1
  O  O345  1  0.50345874  0.50627429  0.11994157  1
  O  O346  1  0.51074940  0.50667721  0.62397255  1
  O  O347  1  0.25212486  0.37966369  0.23963916  1
  O  O348  1  0.23557643  0.39025185  0.76390557  1
  O  O349  1  0.24713589  0.88349691  0.23663585  1
  O  O350  1  0.24464891  0.88287733  0.74114171  1
  O  O351  1  0.74116426  0.37412014  0.24002292  1
  O  O352  1  0.73593986  0.37792144  0.75650416  1
  O  O353  1  0.74306642  0.88168987  0.24219522  1
  O  O354  1  0.74105060  0.88596444  0.74645213  1
  O  O355  1  0.25638633  0.12040632  0.25300151  1
  O  O356  1  0.26362946  0.11474985  0.74908098  1
  O  O357  1  0.25119561  0.61221595  0.24181026  1
  O  O358  1  0.25555036  0.62179620  0.75216700  1
  O  O359  1  0.74729797  0.11546236  0.25856497  1
  O  O360  1  0.74934025  0.11417345  0.75817861  1
  O  O361  1  0.74836025  0.62511597  0.26235044  1
  O  O362  1  0.76248620  0.62896511  0.75043624  1
  O  O363  1  0.37083161  0.11534188  0.36750952  1
  O  O364  1  0.37677274  0.11910677  0.86217391  1
  O  O365  1  0.36792623  0.62588203  0.37867673  1
  O  O366  1  0.37636548  0.61905597  0.86663485  1
  O  O367  1  0.87538700  0.11278591  0.37189273  1
  O  O368  1  0.86127782  0.11981386  0.87401905  1
  O  O369  1  0.86974563  0.61164941  0.37879804  1
  O  O370  1  0.88383578  0.61449180  0.86585884  1
  O  O371  1  0.13943836  0.37426118  0.12638935  1
  O  O372  1  0.13138195  0.37206118  0.63797360  1
  O  O373  1  0.13326447  0.88133257  0.12763890  1
  O  O374  1  0.13203837  0.88467955  0.63096825  1
  O  O375  1  0.62847640  0.38030614  0.13280566  1
  O  O376  1  0.61953289  0.38894484  0.63543034  1
  O  O377  1  0.63436845  0.87015582  0.13846267  1
  O  O378  1  0.62464722  0.88377768  0.63632934  1
  O  O379  1  0.12113108  0.24782588  0.25967191  1
  O  O380  1  0.13257950  0.25952930  0.75417694  1
  O  O381  1  0.11392159  0.75204902  0.26094417  1
  O  O382  1  0.11624969  0.75925814  0.75328138  1
  O  O383  1  0.61238847  0.25867972  0.24213257  1
  O  O384  1  0.62730003  0.25688853  0.76405831  1
  O  O385  1  0.62822412  0.76292636  0.25832433  1
  O  O386  1  0.61886695  0.75694458  0.75400661  1
  O  O387  1  0.38527433  0.24457031  0.24413937  1
  O  O388  1  0.37921941  0.23050875  0.75738660  1
  O  O389  1  0.37196059  0.74508464  0.23474273  1
  O  O390  1  0.38434430  0.74191080  0.75404359  1
  O  O391  1  0.88168535  0.24724679  0.23870123  1
  O  O392  1  0.87662367  0.24793255  0.74931509  1
  O  O393  1  0.89018234  0.75504734  0.24941895  1
  O  O394  1  0.87953706  0.74682161  0.74519888  1
  O  O395  1  0.37765816  0.50092780  0.48703265  1
  O  O396  1  0.37743500  0.49478605  0.99221850  1
  O  O397  1  0.38047099  0.99783177  0.49111864  1
  O  O398  1  0.38702875  1.00524364  1.00004192  1
  O  O399  1  0.88031389  0.49261496  0.49004116  1
  O  O400  1  0.88527564  0.50486055  0.99419670  1
  O  O401  1  0.88043247  0.99838386  0.49346218  1
  O  O402  1  0.88428565  1.00286404  0.99159790  1
  O  O403  1  0.11928582  0.00695684  0.00395201  1
  O  O404  1  0.12022515  0.00399808  0.50732889  1
  O  O405  1  0.11836063  0.50601621  0.00165037  1
  O  O406  1  0.11672371  0.50192136  0.49515375  1
  O  O407  1  0.61611111  0.01398531  -0.00514794  1
  O  O408  1  0.61765853  -0.00760092  0.50942750  1
  O  O409  1  0.61864398  0.50681749  0.00553976  1
  O  O410  1  0.62639846  0.49381304  0.51369916  1
  O  O411  1  0.36732298  0.37162917  0.11875710  1
  O  O412  1  0.36186974  0.36831665  0.66209322  1
  O  O413  1  0.36674340  0.86726100  0.12566261  1
  O  O414  1  0.36054119  0.87409457  0.62339415  1
  O  O415  1  0.86528451  0.36680860  0.12998547  1
  O  O416  1  0.89438135  0.36535541  0.63364328  1
  O  O417  1  0.85839502  0.87604914  0.12894555  1
  O  O418  1  0.87195798  0.86249564  0.62526224  1
  O  O419  1  0.13049919  0.12990223  0.37886705  1
  O  O420  1  0.12697429  0.12540331  0.88632557  1
  O  O421  1  0.12160202  0.63667025  0.38022045  1
  O  O422  1  0.12340626  0.62726473  0.88955512  1
  O  O423  1  0.63345336  0.12350799  0.37357136  1
  O  O424  1  0.63271055  0.13047904  0.87843504  1
  O  O425  1  0.63090218  0.64120111  0.37016599  1
  O  O426  1  0.61580697  0.63401185  0.88369222  1
