# generated using pymatgen
data_V85Zn86O256
_symmetry_space_group_name_H-M   'P 1'
_cell_length_a   16.94186264
_cell_length_b   16.93075952
_cell_length_c   16.94610810
_cell_angle_alpha   89.95876752
_cell_angle_beta   90.02987895
_cell_angle_gamma   90.00932203
_symmetry_Int_Tables_number   1
_chemical_formula_structural   V85Zn86O256
_chemical_formula_sum   'V85 Zn86 O256'
_cell_volume   4860.79597401
_cell_formula_units_Z   1
loop_
 _symmetry_equiv_pos_site_id
 _symmetry_equiv_pos_as_xyz
  1  'x, y, z'
loop_
 _atom_site_type_symbol
 _atom_site_label
 _atom_site_symmetry_multiplicity
 _atom_site_fract_x
 _atom_site_fract_y
 _atom_site_fract_z
 _atom_site_occupancy
  V  V0  1  0.25329843  0.88100463  0.62728639  1
  V  V1  1  0.37755610  -0.00762519  0.37418186  1
  V  V2  1  0.62386729  0.87466416  0.25169403  1
  V  V3  1  0.62511562  -0.00243511  0.62524138  1
  V  V4  1  0.50994255  0.36979458  0.87751769  1
  V  V5  1  0.62998566  0.39222526  0.25566414  1
  V  V6  1  0.01454902  0.11920446  0.62076334  1
  V  V7  1  0.36869572  0.61676125  0.74740145  1
  V  V8  1  0.11657142  0.86027814  0.25787793  1
  V  V9  1  0.75688721  0.00205436  0.25741831  1
  V  V10  1  0.87277662  0.24748155  0.62716521  1
  V  V11  1  0.24710814  0.23549719  -0.00322522  1
  V  V12  1  0.49875744  0.87472804  0.87465176  1
  V  V13  1  0.87503736  0.25261660  0.12600262  1
  V  V14  1  0.74715030  0.62148479  0.36794202  1
  V  V15  1  0.00520031  0.13203919  0.11822937  1
  V  V16  1  0.50022205  -0.00084522  0.00174493  1
  V  V17  1  0.76145281  0.87216664  0.62621417  1
  V  V18  1  0.86626128  0.62328206  0.77047358  1
  V  V19  1  0.75174611  0.87589636  0.12542880  1
  V  V20  1  0.37356484  0.12462997  0.25379617  1
  V  V21  1  0.12614188  0.87798841  0.74561825  1
  V  V22  1  0.37314996  0.37579468  -0.00274274  1
  V  V23  1  0.56159416  0.30986217  0.69759561  1
  V  V24  1  0.87986729  0.87843947  0.00019288  1
  V  V25  1  -0.01407701  0.62903774  0.62362213  1
  V  V26  1  0.37502207  0.87255271  0.00077651  1
  V  V27  1  0.25007928  0.74787957  -0.00126785  1
  V  V28  1  0.87970245  0.75135177  0.13007965  1
  V  V29  1  -0.00664328  0.37755515  0.87111253  1
  V  V30  1  0.62773263  0.74390917  0.87497591  1
  V  V31  1  0.12694496  0.24332423  0.38855770  1
  V  V32  1  0.12424357  0.49683387  0.12832863  1
  V  V33  1  0.11917200  0.36364729  0.24883748  1
  V  V34  1  0.11950333  0.63294440  0.49492060  1
  V  V35  1  0.50261730  -0.00717603  0.49591779  1
  V  V36  1  -0.01324945  0.86401773  0.36992984  1
  V  V37  1  0.50027129  0.62008827  0.62820120  1
  V  V38  1  0.62742459  0.12342192  0.48985164  1
  V  V39  1  0.51362368  0.24834050  0.25605485  1
  V  V40  1  0.74451327  0.38800481  0.12581729  1
  V  V41  1  0.50067254  0.12498040  0.12736505  1
  V  V42  1  0.12526127  0.00151303  0.11892546  1
  V  V43  1  0.00191782  0.62716071  0.13326577  1
  V  V44  1  0.24318365  -0.00210883  0.25531975  1
  V  V45  1  0.12368032  0.74898013  0.87141125  1
  V  V46  1  0.37906505  0.87358053  0.49897648  1
  V  V47  1  0.48682376  0.37866491  0.36891302  1
  V  V48  1  0.25284228  0.62016360  0.37499227  1
  V  V49  1  0.74704113  0.48658582  0.75550469  1
  V  V50  1  -0.00769183  0.49950386  -0.00418384  1
  V  V51  1  0.37559293  0.74788542  0.62584505  1
  V  V52  1  0.62073045  0.75549239  0.37812152  1
  V  V53  1  0.12453910  0.62305478  -0.00040497  1
  V  V54  1  0.49352503  0.50103038  0.49459824  1
  V  V55  1  0.35458606  0.25299988  0.61972017  1
  V  V56  1  0.24750642  0.37246763  0.12284415  1
  V  V57  1  0.87744817  0.00373961  0.87574327  1
  V  V58  1  0.75058219  0.00086297  0.75172335  1
  V  V59  1  0.12601985  0.23996506  0.87634561  1
  V  V60  1  0.24662666  0.75404912  0.49536079  1
  V  V61  1  0.75880865  0.74825415  0.50349584  1
  V  V62  1  0.50003942  0.74773489  0.75098783  1
  V  V63  1  0.62615296  0.62267495  0.50390384  1
  V  V64  1  0.62711293  0.12839998  -0.00091718  1
  V  V65  1  -0.00333470  0.36872608  0.37271704  1
  V  V66  1  0.62637640  -0.00080560  0.12635313  1
  V  V67  1  0.86791008  0.37754395  0.50989756  1
  V  V68  1  -0.00489217  0.75090808  0.73914733  1
  V  V69  1  0.62803611  0.61775703  0.00188820  1
  V  V70  1  0.87042774  0.49870042  0.37040053  1
  V  V71  1  0.38118166  0.13193153  0.75651261  1
  V  V72  1  0.88562200  0.12800252  0.25669911  1
  V  V73  1  0.24847853  0.61393304  0.87054845  1
  V  V74  1  0.49781914  0.75340721  0.25414659  1
  V  V75  1  0.37585798  0.74621255  0.12635601  1
  V  V76  1  0.75192249  0.74564440  -0.00356943  1
  V  V77  1  0.24934997  0.00731579  0.75737815  1
  V  V78  1  0.13270397  0.50160507  0.62946535  1
  V  V79  1  0.13718767  0.38110234  0.75054704  1
  V  V80  1  0.50400842  0.61629304  0.12533853  1
  V  V81  1  0.87431716  0.62354975  0.25055559  1
  V  V82  1  0.74775158  0.25323567  0.49376786  1
  V  V83  1  0.37454400  0.24932939  0.12723089  1
  V  V84  1  -0.00182654  0.50109771  0.50161729  1
  Zn  Zn85  1  0.62555438  0.87334071  0.75039568  1
  Zn  Zn86  1  0.37430747  0.49410039  0.87020711  1
  Zn  Zn87  1  0.37226810  0.00890752  0.87983453  1
  Zn  Zn88  1  0.50154356  0.12713643  0.62557968  1
  Zn  Zn89  1  0.25479538  0.49323701  0.25653183  1
  Zn  Zn90  1  0.75516894  0.12551945  0.37513660  1
  Zn  Zn91  1  0.00147827  0.87719012  0.87215936  1
  Zn  Zn92  1  0.62705882  0.24864627  0.86786443  1
  Zn  Zn93  1  0.87854233  0.12623625  0.74943489  1
  Zn  Zn94  1  0.75084963  0.12846421  0.87636398  1
  Zn  Zn95  1  0.50409791  0.49725477  -0.00028593  1
  Zn  Zn96  1  0.35824974  0.36356501  0.49247038  1
  Zn  Zn97  1  0.00010108  0.25284597  0.74659824  1
  Zn  Zn98  1  0.63174674  0.48785668  0.62861648  1
  Zn  Zn99  1  0.00951337  0.00751551  -0.00604682  1
  Zn  Zn100  1  0.25662544  0.13727060  0.39014031  1
  Zn  Zn101  1  0.74934456  0.25225649  0.00050006  1
  Zn  Zn102  1  -0.00153270  0.00770133  0.48560284  1
  Zn  Zn103  1  0.37917740  0.61727145  0.25764957  1
  Zn  Zn104  1  0.24567880  0.87178926  0.12750387  1
  Zn  Zn105  1  0.87339546  0.88302272  0.49277457  1
  Zn  Zn106  1  0.87049613  0.37723420  -0.00257079  1
  Zn  Zn107  1  0.18703142  0.18527752  0.19175821  1
  Zn  Zn108  1  0.18837526  0.18948847  0.69385792  1
  Zn  Zn109  1  0.18968254  0.68522229  0.18674703  1
  Zn  Zn110  1  0.18452564  0.68580187  0.68075291  1
  Zn  Zn111  1  0.69334033  0.18833832  0.18563711  1
  Zn  Zn112  1  0.69756567  0.17985961  0.67666855  1
  Zn  Zn113  1  0.68745294  0.68764395  0.18606028  1
  Zn  Zn114  1  0.68995231  0.68567336  0.68810471  1
  Zn  Zn115  1  0.30791034  0.31009717  0.30904728  1
  Zn  Zn116  1  0.31244162  0.30898357  0.81360605  1
  Zn  Zn117  1  0.30677879  0.81252833  0.31348515  1
  Zn  Zn118  1  0.31266010  0.80858835  0.81281111  1
  Zn  Zn119  1  0.81073375  0.31047718  0.31132865  1
  Zn  Zn120  1  0.80978476  0.31050100  0.81465477  1
  Zn  Zn121  1  0.80919502  0.80804093  0.31142621  1
  Zn  Zn122  1  0.81433754  0.81364372  0.81263775  1
  Zn  Zn123  1  0.18122847  0.43305695  0.43794703  1
  Zn  Zn124  1  0.18251807  0.43291406  0.93819511  1
  Zn  Zn125  1  0.19071484  0.99431540  0.46329584  1
  Zn  Zn126  1  0.18926236  0.93577508  0.93547344  1
  Zn  Zn127  1  0.68359625  0.43728732  0.43596033  1
  Zn  Zn128  1  0.69467471  0.44022927  0.93244031  1
  Zn  Zn129  1  0.69148348  0.93531933  0.43799953  1
  Zn  Zn130  1  0.68836093  0.93629835  0.93765168  1
  Zn  Zn131  1  0.31271983  0.05888415  0.06741556  1
  Zn  Zn132  1  0.31612327  0.06773447  0.56811083  1
  Zn  Zn133  1  0.31308504  0.56019306  0.06444196  1
  Zn  Zn134  1  0.28825572  0.52727897  0.53984586  1
  Zn  Zn135  1  0.81486372  0.06453380  0.06624127  1
  Zn  Zn136  1  0.81897757  0.06262182  0.55866447  1
  Zn  Zn137  1  0.81247439  0.56372192  0.06161635  1
  Zn  Zn138  1  0.80853079  0.55949348  0.56573227  1
  Zn  Zn139  1  0.43533008  0.43782273  0.18803936  1
  Zn  Zn140  1  0.43171990  0.43863796  0.68221883  1
  Zn  Zn141  1  0.43608660  0.93417372  0.18858569  1
  Zn  Zn142  1  0.43693513  0.94164344  0.69002402  1
  Zn  Zn143  1  0.93597623  0.43715544  0.18786406  1
  Zn  Zn144  1  0.93518855  0.44222876  0.69181136  1
  Zn  Zn145  1  0.94232393  0.94389607  0.18875968  1
  Zn  Zn146  1  0.93887039  0.94040851  0.68516101  1
  Zn  Zn147  1  0.05944205  0.05680007  0.31314889  1
  Zn  Zn148  1  0.05935184  0.06295747  0.80285038  1
  Zn  Zn149  1  0.06511607  0.56038788  0.31448576  1
  Zn  Zn150  1  0.05713395  0.56261556  0.81053965  1
  Zn  Zn151  1  0.56162634  0.05847889  0.31321838  1
  Zn  Zn152  1  0.56115758  0.06280989  0.81324622  1
  Zn  Zn153  1  0.56018707  0.56545010  0.31407419  1
  Zn  Zn154  1  0.56537139  0.55544464  0.81518740  1
  Zn  Zn155  1  0.44002766  0.18497927  0.43846191  1
  Zn  Zn156  1  0.44060976  0.19209603  0.93804747  1
  Zn  Zn157  1  0.43579319  0.68582563  0.43921716  1
  Zn  Zn158  1  0.43839337  0.68339253  0.93680363  1
  Zn  Zn159  1  0.94097270  0.18939407  0.44318991  1
  Zn  Zn160  1  0.93819831  0.19174249  0.93921895  1
  Zn  Zn161  1  0.94179392  0.69520998  0.42995179  1
  Zn  Zn162  1  0.94205293  0.69009054  0.94040738  1
  Zn  Zn163  1  0.05936331  0.30970873  0.05782953  1
  Zn  Zn164  1  0.06079228  0.31519775  0.56736078  1
  Zn  Zn165  1  0.06320158  0.81443035  0.06502780  1
  Zn  Zn166  1  0.08573013  0.84879190  0.53489578  1
  Zn  Zn167  1  0.56352371  0.31385639  0.06763822  1
  Zn  Zn168  1  0.55736106  0.30915387  0.53539069  1
  Zn  Zn169  1  0.56307055  0.80830390  0.06372951  1
  Zn  Zn170  1  0.56625501  0.81186777  0.56455048  1
  O  O171  1  0.11587950  0.11714168  0.13299974  1
  O  O172  1  0.11285716  0.13302247  0.62961473  1
  O  O173  1  0.11922330  0.61715309  0.12194245  1
  O  O174  1  0.10930452  0.62198720  0.61591825  1
  O  O175  1  0.61974481  0.11784165  0.12155560  1
  O  O176  1  0.62615383  0.10993890  0.61459358  1
  O  O177  1  0.61573653  0.63385500  0.11503352  1
  O  O178  1  0.61695517  0.62949378  0.61550927  1
  O  O179  1  0.38277887  0.37319649  0.37125226  1
  O  O180  1  0.38213360  0.37310497  0.88163843  1
  O  O181  1  0.37140818  0.88495710  0.38007398  1
  O  O182  1  0.38667218  0.87053240  0.88167111  1
  O  O183  1  0.87923621  0.38159391  0.37970281  1
  O  O184  1  0.88929673  0.36874819  0.87842947  1
  O  O185  1  0.88093591  0.87397317  0.36730158  1
  O  O186  1  0.87669404  0.88549765  0.88333205  1
  O  O187  1  0.25677771  -0.00429962  0.36324716  1
  O  O188  1  0.25636598  -0.00679357  0.86214782  1
  O  O189  1  0.23863893  0.51726702  0.37345934  1
  O  O190  1  0.24930546  0.51127576  0.87993075  1
  O  O191  1  0.74769036  0.00007228  0.36058207  1
  O  O192  1  0.75668114  -0.00079497  0.86777978  1
  O  O193  1  0.75785915  0.51003896  0.38204145  1
  O  O194  1  0.75150446  0.50259224  0.85776631  1
  O  O195  1  0.23520482  0.49319453  0.12077776  1
  O  O196  1  0.22941525  0.52440907  0.63784209  1
  O  O197  1  0.24478869  0.99772731  0.13795896  1
  O  O198  1  0.26074414  0.98522769  0.63827839  1
  O  O199  1  0.75567145  0.48689831  0.12788338  1
  O  O200  1  0.74550156  0.50897535  0.64232016  1
  O  O201  1  0.74565170  0.99449489  0.13417227  1
  O  O202  1  0.74492884  0.99253620  0.63216606  1
  O  O203  1  0.00632044  0.38237190  0.26142451  1
  O  O204  1  0.00445022  0.37463955  0.75760890  1
  O  O205  1  0.00931518  0.87602596  0.24961195  1
  O  O206  1  0.00817475  0.86827565  0.74914584  1
  O  O207  1  0.51077420  0.36991443  0.25148538  1
  O  O208  1  0.50165491  0.37253566  0.75633661  1
  O  O209  1  0.50630299  0.86083081  0.24558576  1
  O  O210  1  0.50115930  0.86977939  0.75921057  1
  O  O211  1  0.49569374  0.13100103  0.24822712  1
  O  O212  1  0.48547686  0.11972438  0.74545718  1
  O  O213  1  0.50047879  0.63556041  0.24282787  1
  O  O214  1  0.49499859  0.62669610  0.74417012  1
  O  O215  1  0.98886634  0.12017970  0.24041945  1
  O  O216  1  0.99667027  0.13347728  0.73853897  1
  O  O217  1  0.99638491  0.61777960  0.23838243  1
  O  O218  1  0.98851556  0.62992883  0.74318622  1
  O  O219  1  0.36861589  0.25832851  0.00491283  1
  O  O220  1  0.37813416  0.24789795  0.51412688  1
  O  O221  1  0.37257789  0.75300450  0.00663843  1
  O  O222  1  0.37119919  0.75536085  0.50647352  1
  O  O223  1  0.87333490  0.25491000  0.01334459  1
  O  O224  1  0.86960631  0.26069357  0.50395647  1
  O  O225  1  0.86906085  0.75566529  0.00627306  1
  O  O226  1  0.85958506  0.74690518  0.49464571  1
  O  O227  1  0.12149074  0.25830044  0.48664312  1
  O  O228  1  0.13271434  0.25406552  0.98594494  1
  O  O229  1  0.13573184  0.74515481  0.50849568  1
  O  O230  1  0.12810274  0.74360559  0.99267840  1
  O  O231  1  0.63483913  0.23608916  0.50280317  1
  O  O232  1  0.62244818  0.23548528  1.00559722  1
  O  O233  1  0.62920567  0.74229189  0.49288131  1
  O  O234  1  0.63398841  0.74487919  0.99464371  1
  O  O235  1  0.49385402  0.24453103  0.13444363  1
  O  O236  1  0.50697609  0.25133269  0.63179473  1
  O  O237  1  0.49308648  0.74270675  0.13204100  1
  O  O238  1  0.49755959  0.74084198  0.63054177  1
  O  O239  1  0.99204642  0.24474152  0.12462193  1
  O  O240  1  0.98868143  0.24481030  0.62322133  1
  O  O241  1  0.99075843  0.73904763  0.11683832  1
  O  O242  1  1.00341659  0.74391186  0.63743290  1
  O  O243  1  0.00597066  0.26370865  0.37896784  1
  O  O244  1  0.01137363  0.25881216  0.87572029  1
  O  O245  1  -0.00675057  0.76157268  0.35431820  1
  O  O246  1  0.01273199  0.75057986  0.86906209  1
  O  O247  1  0.49642112  0.26047958  0.36621491  1
  O  O248  1  0.50460063  0.26332578  0.87419118  1
  O  O249  1  0.50841721  0.74208930  0.36685685  1
  O  O250  1  0.50605420  0.75527139  0.87109627  1
  O  O251  1  0.24091996  0.09145774  0.49166419  1
  O  O252  1  0.25824712  0.13645780  1.00316987  1
  O  O253  1  0.23990891  0.62923486  0.49190887  1
  O  O254  1  0.24428583  0.62894691  0.99261324  1
  O  O255  1  0.74423934  0.12968860  0.49673234  1
  O  O256  1  0.73938322  0.12363681  1.00143127  1
  O  O257  1  0.74135847  0.62951001  0.49421967  1
  O  O258  1  0.74462208  0.63733139  1.00557793  1
  O  O259  1  0.25552114  0.36748977  0.00461337  1
  O  O260  1  0.26186998  0.41769307  0.51038959  1
  O  O261  1  0.25889618  0.86652796  0.00142991  1
  O  O262  1  0.25880570  0.86851089  0.51104712  1
  O  O263  1  0.74901341  0.37664240  0.01397705  1
  O  O264  1  0.75665291  0.36920924  0.49575315  1
  O  O265  1  0.76093519  0.86904549  0.00556860  1
  O  O266  1  0.75249881  0.86608558  0.50735472  1
  O  O267  1  0.12738379  0.49054642  0.24197126  1
  O  O268  1  0.11659128  0.48968005  0.74410790  1
  O  O269  1  0.13144659  0.99360450  0.24190236  1
  O  O270  1  0.13529072  0.98986036  0.75429032  1
  O  O271  1  0.62379408  0.49064937  0.25031465  1
  O  O272  1  0.63996540  0.50523738  0.74663428  1
  O  O273  1  0.63089065  0.99359148  0.24482923  1
  O  O274  1  0.63143976  0.99800309  0.74306650  1
  O  O275  1  0.37010274  0.00179301  0.25726330  1
  O  O276  1  0.36959112  0.01299774  0.75317572  1
  O  O277  1  0.36587940  0.50642856  0.24017585  1
  O  O278  1  0.37533046  0.51252152  0.74954851  1
  O  O279  1  0.86772353  0.01608893  0.24074363  1
  O  O280  1  0.86798476  -0.00088996  0.75984713  1
  O  O281  1  0.87816078  0.50553989  0.26377725  1
  O  O282  1  0.86574332  0.51672641  0.74669078  1
  O  O283  1  0.11600735  0.37032535  0.36795289  1
  O  O284  1  0.11634274  0.37230589  0.86481766  1
  O  O285  1  0.11570748  0.86558796  0.35777090  1
  O  O286  1  0.12554850  0.86566256  0.86449311  1
  O  O287  1  0.61640404  0.37740112  0.36042055  1
  O  O288  1  0.61354917  0.37246556  0.88288882  1
  O  O289  1  0.62938092  0.86190329  0.37064421  1
  O  O290  1  0.61336635  0.86553152  0.87798734  1
  O  O291  1  0.38208225  0.12805638  0.13417276  1
  O  O292  1  0.38028805  0.13832914  0.63213898  1
  O  O293  1  0.38292850  0.63521809  0.12226907  1
  O  O294  1  0.38558735  0.63138411  0.63221755  1
  O  O295  1  0.88247292  0.13403461  0.13174623  1
  O  O296  1  0.87921912  0.13593522  0.62715330  1
  O  O297  1  0.88199466  0.63060466  0.13000634  1
  O  O298  1  0.88425444  0.62705747  0.62469480  1
  O  O299  1  0.25303552  0.25385029  0.11911629  1
  O  O300  1  0.25595919  0.24982357  0.62034685  1
  O  O301  1  0.25945621  0.74748083  0.11727337  1
  O  O302  1  0.25835173  0.75427653  0.61704334  1
  O  O303  1  0.75824225  0.26004414  0.12272181  1
  O  O304  1  0.76333278  0.24719511  0.61052151  1
  O  O305  1  0.75738507  0.75668336  0.11650724  1
  O  O306  1  0.74019998  0.76020905  0.61511694  1
  O  O307  1  0.23404397  0.25140590  0.37577815  1
  O  O308  1  0.23609478  0.25347431  0.88266723  1
  O  O309  1  0.25257339  0.74236608  0.38988375  1
  O  O310  1  0.23959319  0.74268887  0.87965830  1
  O  O311  1  0.75502995  0.24619220  0.38828134  1
  O  O312  1  0.74451687  0.24693435  0.88244238  1
  O  O313  1  0.74029222  0.74139276  0.38201669  1
  O  O314  1  0.74046544  0.75929306  0.88583565  1
  O  O315  1  -0.00237361  0.12487685  0.01362947  1
  O  O316  1  0.00101560  0.12469045  0.51403964  1
  O  O317  1  0.00614342  0.61832379  0.00895698  1
  O  O318  1  0.00142510  0.62385950  0.50295451  1
  O  O319  1  0.50446827  0.11888242  0.00700012  1
  O  O320  1  0.50903578  0.11283215  0.50250140  1
  O  O321  1  0.50900615  0.62454908  0.00779114  1
  O  O322  1  0.50983936  0.62282061  0.50609356  1
  O  O323  1  0.49155956  0.38380570  0.48535137  1
  O  O324  1  0.49319783  0.37445727  0.99431069  1
  O  O325  1  0.49662556  0.88457546  0.50481697  1
  O  O326  1  0.49464091  0.87716551  0.99557777  1
  O  O327  1  0.99186431  0.38550004  0.49419150  1
  O  O328  1  1.00029447  0.38453630  0.99209314  1
  O  O329  1  0.98659878  0.85122123  0.47764488  1
  O  O330  1  0.98844177  0.87563373  0.99747933  1
  O  O331  1  0.50323309  0.49238417  0.38110530  1
  O  O332  1  0.49588798  0.48651879  0.87819127  1
  O  O333  1  0.49128719  0.99888188  0.38329793  1
  O  O334  1  0.49759740  0.99030779  0.88271076  1
  O  O335  1  0.99294473  0.49548312  0.38612324  1
  O  O336  1  1.00496789  0.49228035  0.88510064  1
  O  O337  1  1.00464226  0.97622642  0.36958149  1
  O  O338  1  0.99325561  0.99826296  0.87640812  1
  O  O339  1  0.00976052  0.00958091  0.11973584  1
  O  O340  1  0.00033640  0.01807305  0.63164013  1
  O  O341  1  0.00871847  0.50475462  0.11970793  1
  O  O342  1  0.00005361  0.50878013  0.61480888  1
  O  O343  1  0.50513895  0.00384070  0.12193631  1
  O  O344  1  0.50914082  -0.00038465  0.61759846  1
  O  O345  1  0.49862439  0.51309323  0.12180876  1
  O  O346  1  0.50582723  0.50921427  0.62096196  1
  O  O347  1  0.23896311  0.37440306  0.24045280  1
  O  O348  1  0.23607931  0.37922688  0.75741209  1
  O  O349  1  0.23815810  0.88008433  0.24864248  1
  O  O350  1  0.24629355  0.87783921  0.74587167  1
  O  O351  1  0.73641072  0.37216507  0.24448997  1
  O  O352  1  0.75549814  0.38716596  0.74904652  1
  O  O353  1  0.74488438  0.88090276  0.24369028  1
  O  O354  1  0.74760890  0.88302405  0.74457338  1
  O  O355  1  0.25794181  0.11668956  0.25604486  1
  O  O356  1  0.26236489  0.11575456  0.74421290  1
  O  O357  1  0.24665899  0.62966566  0.26777215  1
  O  O358  1  0.25806099  0.63596501  0.75933858  1
  O  O359  1  0.76011598  0.11829342  0.25165086  1
  O  O360  1  0.75388288  0.11066245  0.75160538  1
  O  O361  1  0.75241756  0.62877311  0.26175742  1
  O  O362  1  0.76543103  0.63357497  0.75463508  1
  O  O363  1  0.37514137  0.11374570  0.36997689  1
  O  O364  1  0.37962973  0.12895957  0.86153515  1
  O  O365  1  0.35752451  0.62751505  0.37740690  1
  O  O366  1  0.36599024  0.62319883  0.86701431  1
  O  O367  1  0.88039816  0.13155294  0.35976487  1
  O  O368  1  0.87448893  0.11446369  0.87638864  1
  O  O369  1  0.86736981  0.61949062  0.36981134  1
  O  O370  1  0.87974329  0.62439951  0.86884375  1
  O  O371  1  0.12430618  0.37902472  0.13079648  1
  O  O372  1  0.11947137  0.38524368  0.64030824  1
  O  O373  1  0.12513027  0.88487216  0.13102654  1
  O  O374  1  0.13955884  0.86377023  0.64046783  1
  O  O375  1  0.63640497  0.37393191  0.13647392  1
  O  O376  1  0.61039346  0.36756554  0.62907854  1
  O  O377  1  0.63086253  0.87861197  0.12994395  1
  O  O378  1  0.63341433  0.88543984  0.62595262  1
  O  O379  1  0.12478043  0.26110030  0.25676568  1
  O  O380  1  0.12517401  0.26337052  0.75993598  1
  O  O381  1  0.12540553  0.76285407  0.23738844  1
  O  O382  1  0.11862556  0.75289744  0.75646206  1
  O  O383  1  0.61527797  0.25165605  0.24615017  1
  O  O384  1  0.62862637  0.24764207  0.74488302  1
  O  O385  1  0.61883011  0.75411770  0.25778624  1
  O  O386  1  0.61957857  0.75074574  0.75903632  1
  O  O387  1  0.38101843  0.24302509  0.24550802  1
  O  O388  1  0.36687108  0.23785692  0.74031830  1
  O  O389  1  0.38088258  0.74688734  0.24424338  1
  O  O390  1  0.38230656  0.74080664  0.74616748  1
  O  O391  1  0.87015411  0.23725963  0.24044352  1
  O  O392  1  0.87445696  0.24988575  0.73955228  1
  O  O393  1  0.86682025  0.74211152  0.23486643  1
  O  O394  1  0.88537531  0.74004180  0.75920943  1
  O  O395  1  0.39439462  0.51276412  0.50375752  1
  O  O396  1  0.37482677  0.48505793  0.99991700  1
  O  O397  1  0.38526332  0.99361301  0.49435461  1
  O  O398  1  0.38083165  0.99141684  1.00037285  1
  O  O399  1  0.87792505  0.49575078  0.49258141  1
  O  O400  1  0.88851075  0.49826698  1.00656910  1
  O  O401  1  0.88481870  0.99481005  0.50276854  1
  O  O402  1  0.87527724  0.99266135  0.99438318  1
  O  O403  1  0.12966602  -0.00418327  0.01333383  1
  O  O404  1  0.10065836  -0.04161748  0.50895688  1
  O  O405  1  0.11651351  0.50456957  0.00790660  1
  O  O406  1  0.11264907  0.50965812  0.50782001  1
  O  O407  1  0.61997305  0.00630699  0.00621252  1
  O  O408  1  0.62082796  0.00084673  0.50472551  1
  O  O409  1  0.62780218  0.51488480  -0.00515168  1
  O  O410  1  0.61771976  0.50751426  0.50506926  1
  O  O411  1  0.37021551  0.36682870  0.11762086  1
  O  O412  1  0.37851248  0.35469122  0.62640728  1
  O  O413  1  0.37356661  0.86185609  0.12031588  1
  O  O414  1  0.37164898  0.86717154  0.62341812  1
  O  O415  1  0.86301465  0.36948332  0.12982550  1
  O  O416  1  0.88168115  0.37179602  0.61301365  1
  O  O417  1  0.87416908  0.86909945  0.11979748  1
  O  O418  1  0.86372968  0.87391397  0.62727728  1
  O  O419  1  0.11875653  0.14183016  0.36992138  1
  O  O420  1  0.12004999  0.14154656  0.86716764  1
  O  O421  1  0.12733406  0.62620173  0.38877349  1
  O  O422  1  0.13005904  0.63001843  0.87679043  1
  O  O423  1  0.62831940  0.11689689  0.38648342  1
  O  O424  1  0.62447990  0.12577786  0.88539500  1
  O  O425  1  0.63054285  0.63103923  0.38316751  1
  O  O426  1  0.61734296  0.63833960  0.88413929  1
