# generated using pymatgen
data_V85Zn86O256
_symmetry_space_group_name_H-M   'P 1'
_cell_length_a   16.92580528
_cell_length_b   16.93633973
_cell_length_c   16.92654848
_cell_angle_alpha   90.04039448
_cell_angle_beta   89.93126492
_cell_angle_gamma   90.04771151
_symmetry_Int_Tables_number   1
_chemical_formula_structural   V85Zn86O256
_chemical_formula_sum   'V85 Zn86 O256'
_cell_volume   4852.17812776
_cell_formula_units_Z   1
loop_
 _symmetry_equiv_pos_site_id
 _symmetry_equiv_pos_as_xyz
  1  'x, y, z'
loop_
 _atom_site_type_symbol
 _atom_site_label
 _atom_site_symmetry_multiplicity
 _atom_site_fract_x
 _atom_site_fract_y
 _atom_site_fract_z
 _atom_site_occupancy
  V  V0  1  0.12836101  0.87278192  0.25412563  1
  V  V1  1  -0.00121053  0.87329257  0.38056402  1
  V  V2  1  0.62794193  0.87140492  0.74410537  1
  V  V3  1  0.25293278  0.62514646  0.86881032  1
  V  V4  1  0.87404227  0.12611617  0.25185935  1
  V  V5  1  0.25243561  0.01198939  0.25466792  1
  V  V6  1  -0.00121278  0.49804518  -0.01351110  1
  V  V7  1  0.87840500  0.37933063  -0.01481743  1
  V  V8  1  0.24312261  0.36962983  0.62939279  1
  V  V9  1  0.74940518  0.37996997  0.62134363  1
  V  V10  1  0.74453893  0.62750671  0.37716737  1
  V  V11  1  0.50072553  0.00343008  0.00530833  1
  V  V12  1  0.00444894  0.62524065  0.61529403  1
  V  V13  1  0.74861974  0.12513120  0.87379638  1
  V  V14  1  0.37835146  0.00091347  0.38929352  1
  V  V15  1  0.87258983  0.62265189  0.75899313  1
  V  V16  1  0.12306913  0.12465921  0.00123879  1
  V  V17  1  0.50074904  0.62900286  0.12651449  1
  V  V18  1  0.24904504  0.24950029  0.00406887  1
  V  V19  1  0.12574388  0.87577935  0.75257530  1
  V  V20  1  0.38580020  0.12982178  0.75165193  1
  V  V21  1  0.25885268  0.87203053  0.61411987  1
  V  V22  1  0.63837189  0.62409224  -0.00563452  1
  V  V23  1  0.37610372  0.74230978  0.61148185  1
  V  V24  1  0.75064812  0.50310258  0.75945445  1
  V  V25  1  0.37765840  0.74889346  0.12671496  1
  V  V26  1  0.62415182  0.86300804  0.25483359  1
  V  V27  1  0.25582068  0.25090901  0.49307638  1
  V  V28  1  0.36902317  0.48975400  0.36890560  1
  V  V29  1  0.74023120  0.75679168  0.49998589  1
  V  V30  1  -0.00962601  0.74754446  0.25253974  1
  V  V31  1  0.24990045  0.38131227  0.13421968  1
  V  V32  1  0.12520029  0.74934445  0.86891951  1
  V  V33  1  0.87531531  0.12600973  0.74956613  1
  V  V34  1  0.23897011  0.49260842  0.75195411  1
  V  V35  1  0.87517753  -0.00692446  0.88068331  1
  V  V36  1  0.38162450  0.25538188  0.62680584  1
  V  V37  1  0.61660376  0.24905571  0.37057850  1
  V  V38  1  0.87136967  0.75306708  0.62297582  1
  V  V39  1  -0.00476248  0.62358449  0.12707524  1
  V  V40  1  0.87373728  -0.00159321  0.37807293  1
  V  V41  1  0.37572958  0.49863030  0.87184500  1
  V  V42  1  0.87489909  0.25213816  0.62459209  1
  V  V43  1  0.39404647  0.12430676  0.24911458  1
  V  V44  1  0.25197334  -0.00051467  0.75067327  1
  V  V45  1  0.61652217  0.37205782  0.74522766  1
  V  V46  1  0.61680715  -0.00274795  0.62085249  1
  V  V47  1  0.37555781  -0.00010885  0.87698542  1
  V  V48  1  0.63794444  0.74467643  0.87433712  1
  V  V49  1  0.50078490  0.50126029  -0.00163687  1
  V  V50  1  0.37913656  0.87451389  0.00232005  1
  V  V51  1  0.25202871  0.74973201  -0.00059359  1
  V  V52  1  0.13417363  0.74488067  0.38784726  1
  V  V53  1  0.12483093  0.62467601  -0.00024809  1
  V  V54  1  0.36072617  0.62252971  0.25125901  1
  V  V55  1  0.24756793  0.12503109  0.87597477  1
  V  V56  1  0.12888592  0.12454405  0.49173262  1
  V  V57  1  0.62117969  0.51068622  0.62162945  1
  V  V58  1  0.11906931  0.38281879  0.25915689  1
  V  V59  1  0.75006733  0.25204648  -0.00129400  1
  V  V60  1  0.88139334  0.50331387  0.37251113  1
  V  V61  1  0.00298954  0.26446819  0.75301347  1
  V  V62  1  0.62287015  0.00030359  0.13217597  1
  V  V63  1  0.75312006  0.37850020  0.12642505  1
  V  V64  1  0.12055905  0.26199647  0.87375915  1
  V  V65  1  0.88545347  0.37746100  0.49503450  1
  V  V66  1  0.38630569  0.24602395  0.13064106  1
  V  V67  1  0.00383779  0.12429864  0.62622473  1
  V  V68  1  0.25223769  0.87490669  0.12753332  1
  V  V69  1  0.62205439  0.12706789  0.00820879  1
  V  V70  1  0.12420607  -0.00050802  0.12740265  1
  V  V71  1  0.75327823  0.50734692  0.25156912  1
  V  V72  1  0.49643035  0.86935568  0.38820460  1
  V  V73  1  0.61659620  0.12327012  0.49984311  1
  V  V74  1  0.87538867  0.25111091  0.12468392  1
  V  V75  1  -0.00060554  0.12640047  0.12772955  1
  V  V76  1  0.75120705  -0.00380634  0.73990603  1
  V  V77  1  0.61976178  0.37333497  0.24917000  1
  V  V78  1  0.61652851  0.24875379  0.86944726  1
  V  V79  1  0.49108847  0.49735721  0.50116469  1
  V  V80  1  0.87298712  0.75657012  0.10869010  1
  V  V81  1  0.50161574  0.87224436  0.87357371  1
  V  V82  1  0.37513765  0.37293904  0.00258766  1
  V  V83  1  0.49749289  0.74046234  0.74749994  1
  V  V84  1  0.74920730  0.12601217  0.37678646  1
  Zn  Zn85  1  -0.00485747  0.86888459  0.88122456  1
  Zn  Zn86  1  0.86912185  0.87806239  0.50791943  1
  Zn  Zn87  1  0.11960238  0.25166930  0.37551296  1
  Zn  Zn88  1  -0.01006501  -0.00688696  0.00784969  1
  Zn  Zn89  1  0.49925241  0.12640753  0.62350892  1
  Zn  Zn90  1  0.12509272  0.49967008  0.62179852  1
  Zn  Zn91  1  0.49667719  0.37053116  0.87013409  1
  Zn  Zn92  1  0.50056588  0.74386044  0.26068745  1
  Zn  Zn93  1  0.37896806  0.62159013  0.74386515  1
  Zn  Zn94  1  0.75741471  0.87616096  0.11034467  1
  Zn  Zn95  1  0.01191535  0.50223122  0.49022135  1
  Zn  Zn96  1  0.00069191  0.00032207  0.50354535  1
  Zn  Zn97  1  0.12656081  -0.00104366  0.62430970  1
  Zn  Zn98  1  -0.00176963  0.74999234  0.74873398  1
  Zn  Zn99  1  0.49614550  0.37070399  0.37392824  1
  Zn  Zn100  1  0.61776267  0.62775967  0.49541544  1
  Zn  Zn101  1  0.12664454  0.50327635  0.12748606  1
  Zn  Zn102  1  0.74868762  0.25324873  0.49874331  1
  Zn  Zn103  1  0.74882155  -0.00439623  0.25042342  1
  Zn  Zn104  1  0.24773399  0.61932267  0.39109154  1
  Zn  Zn105  1  0.62638034  0.50252046  0.12618333  1
  Zn  Zn106  1  -0.00274703  0.25828754  0.25858343  1
  Zn  Zn107  1  0.18689564  0.19494190  0.18996175  1
  Zn  Zn108  1  0.18750679  0.18833325  0.68808248  1
  Zn  Zn109  1  0.18298518  0.69021859  0.18912978  1
  Zn  Zn110  1  0.18825466  0.68763701  0.56867268  1
  Zn  Zn111  1  0.68792511  0.18839021  0.18970214  1
  Zn  Zn112  1  0.68750308  0.18750844  0.68469466  1
  Zn  Zn113  1  0.69054583  0.68639707  0.18361128  1
  Zn  Zn114  1  0.69148582  0.68777619  0.68537943  1
  Zn  Zn115  1  0.31030825  0.30752037  0.30988766  1
  Zn  Zn116  1  0.31114608  0.31060514  0.81333426  1
  Zn  Zn117  1  0.31657896  0.81472032  0.31500511  1
  Zn  Zn118  1  0.31438030  0.81177438  0.80876660  1
  Zn  Zn119  1  0.81029684  0.31436868  0.31366893  1
  Zn  Zn120  1  0.80635845  0.31249665  0.80750428  1
  Zn  Zn121  1  0.80875543  0.81162990  0.31506475  1
  Zn  Zn122  1  0.81231799  0.81241594  0.80811549  1
  Zn  Zn123  1  0.19058212  0.43615089  0.44509887  1
  Zn  Zn124  1  0.18812279  0.43885369  0.94381731  1
  Zn  Zn125  1  0.18882847  0.94184654  0.43653105  1
  Zn  Zn126  1  0.18418058  0.93708719  0.94124875  1
  Zn  Zn127  1  0.68654971  0.43901070  0.43687602  1
  Zn  Zn128  1  0.68613203  0.43515804  0.93662478  1
  Zn  Zn129  1  0.68294054  0.93658614  0.43589739  1
  Zn  Zn130  1  0.69084536  0.93696499  0.93307479  1
  Zn  Zn131  1  0.31258419  0.06377767  0.06815166  1
  Zn  Zn132  1  0.30957472  0.06781287  0.56768292  1
  Zn  Zn133  1  0.31416566  0.56266492  0.06021906  1
  Zn  Zn134  1  0.31334791  0.55576447  0.56229529  1
  Zn  Zn135  1  0.80706752  0.06259976  0.06377392  1
  Zn  Zn136  1  0.81037543  0.06467292  0.56045267  1
  Zn  Zn137  1  0.81928822  0.56220043  0.06297428  1
  Zn  Zn138  1  0.81386686  0.56587159  0.56098458  1
  Zn  Zn139  1  0.43798178  0.44050855  0.18782936  1
  Zn  Zn140  1  0.43497979  0.43619721  0.68328046  1
  Zn  Zn141  1  0.44295584  0.93588927  0.19217786  1
  Zn  Zn142  1  0.43835965  0.93431058  0.68731877  1
  Zn  Zn143  1  0.93744945  0.44167939  0.18474951  1
  Zn  Zn144  1  0.93598952  0.44325222  0.68555387  1
  Zn  Zn145  1  0.93686668  0.93506417  0.19197912  1
  Zn  Zn146  1  0.93967932  0.93626286  0.69097488  1
  Zn  Zn147  1  0.05986608  0.06260123  0.31329028  1
  Zn  Zn148  1  0.06109867  0.06585380  0.81190519  1
  Zn  Zn149  1  0.06648883  0.56409547  0.30974338  1
  Zn  Zn150  1  0.06034648  0.56741496  0.80645183  1
  Zn  Zn151  1  0.56054804  0.05695879  0.31799856  1
  Zn  Zn152  1  0.56424256  0.05933254  0.81430084  1
  Zn  Zn153  1  0.56044234  0.55886551  0.31305991  1
  Zn  Zn154  1  0.56577684  0.55982425  0.81221760  1
  Zn  Zn155  1  0.43468844  0.18408601  0.43584113  1
  Zn  Zn156  1  0.43665959  0.18633508  0.94101198  1
  Zn  Zn157  1  0.43486785  0.67936333  0.43756807  1
  Zn  Zn158  1  0.44241647  0.68707602  0.93617148  1
  Zn  Zn159  1  0.93967192  0.19098124  0.43950947  1
  Zn  Zn160  1  0.93783126  0.18652453  0.93758141  1
  Zn  Zn161  1  0.92972927  0.68766711  0.43586842  1
  Zn  Zn162  1  0.93924101  0.68577839  0.93715505  1
  Zn  Zn163  1  0.06182661  0.31509585  0.06453074  1
  Zn  Zn164  1  0.06542849  0.31089818  0.56225199  1
  Zn  Zn165  1  0.06060181  0.81288782  0.06142575  1
  Zn  Zn166  1  0.05907209  0.81591137  0.56726676  1
  Zn  Zn167  1  0.56427597  0.31550253  0.06260482  1
  Zn  Zn168  1  0.56118571  0.31454526  0.55717075  1
  Zn  Zn169  1  0.59658756  0.82629985  0.04666917  1
  Zn  Zn170  1  0.55948493  0.81100133  0.56487661  1
  O  O171  1  0.11698122  0.12304895  0.12278690  1
  O  O172  1  0.11691935  0.12366698  0.62060294  1
  O  O173  1  0.11588053  0.62841608  0.11763539  1
  O  O174  1  0.10697847  0.63171929  0.63052461  1
  O  O175  1  0.62937471  0.12021612  0.11518268  1
  O  O176  1  0.62271399  0.11877333  0.61747032  1
  O  O177  1  0.61861742  0.62436990  0.11317001  1
  O  O178  1  0.62491796  0.61279437  0.62552634  1
  O  O179  1  0.37727399  0.38516487  0.36263491  1
  O  O180  1  0.37653118  0.38001224  0.88267499  1
  O  O181  1  0.38622406  0.88712533  0.37256074  1
  O  O182  1  0.38061889  0.87937191  0.88292916  1
  O  O183  1  0.86606888  0.38542765  0.38636010  1
  O  O184  1  0.86814873  0.36836421  0.88663595  1
  O  O185  1  0.88215465  0.88245394  0.37593837  1
  O  O186  1  0.87451882  0.88958521  0.86894420  1
  O  O187  1  0.26670588  -0.00928219  0.36560690  1
  O  O188  1  0.25668256  0.00449205  0.87117286  1
  O  O189  1  0.26617267  0.49854427  0.38039975  1
  O  O190  1  0.25647663  0.50311189  0.87222607  1
  O  O191  1  0.75659994  0.00696789  0.37459201  1
  O  O192  1  0.75721727  0.00436719  0.86597869  1
  O  O193  1  0.75636857  0.50530316  0.36839635  1
  O  O194  1  0.74369899  0.49498267  0.85859656  1
  O  O195  1  0.25153836  0.48437251  0.11845617  1
  O  O196  1  0.25438031  0.48823736  0.63711263  1
  O  O197  1  0.24402887  0.99354752  0.13381595  1
  O  O198  1  0.25167824  0.99016123  0.63494252  1
  O  O199  1  0.75197199  0.49434440  0.13247218  1
  O  O200  1  0.74136316  0.49516557  0.62861369  1
  O  O201  1  0.73757305  0.99587534  0.12742142  1
  O  O202  1  0.74232996  1.00562969  0.63585844  1
  O  O203  1  0.01592223  0.37661553  0.24096584  1
  O  O204  1  -0.00667756  0.36349673  0.74548279  1
  O  O205  1  0.00870967  0.87054403  0.26209381  1
  O  O206  1  0.01200408  0.87272622  0.75680239  1
  O  O207  1  0.51606169  0.38012383  0.24806731  1
  O  O208  1  0.51301984  0.37853035  0.74949905  1
  O  O209  1  0.50855789  0.86974024  0.25984839  1
  O  O210  1  0.50679823  0.86657656  0.75569650  1
  O  O211  1  0.49234643  0.12162871  0.24790790  1
  O  O212  1  0.48859471  0.12187211  0.75343824  1
  O  O213  1  0.49440935  0.62535247  0.24156817  1
  O  O214  1  0.50035615  0.63657118  0.75452889  1
  O  O215  1  0.99383167  0.12516038  0.23959379  1
  O  O216  1  0.99441343  0.13085363  0.74026406  1
  O  O217  1  1.00783742  0.63644886  0.23944688  1
  O  O218  1  0.98675898  0.62732796  0.74026911  1
  O  O219  1  0.36957724  0.25398678  0.00780244  1
  O  O220  1  0.36254861  0.23935684  0.50875115  1
  O  O221  1  0.37181216  0.75476138  0.00496616  1
  O  O222  1  0.38189775  0.75034493  0.51320639  1
  O  O223  1  0.86971403  0.25550664  0.00556202  1
  O  O224  1  0.87082339  0.25913860  0.50716003  1
  O  O225  1  0.87909937  0.75334363  0.00946152  1
  O  O226  1  0.86408016  0.75336516  0.50690508  1
  O  O227  1  0.13601965  0.24314933  0.49941030  1
  O  O228  1  0.12693465  0.24145825  0.99690713  1
  O  O229  1  0.12303465  0.75397755  0.49113371  1
  O  O230  1  0.13350963  0.74504068  0.99003745  1
  O  O231  1  0.62849597  0.24196908  0.49235046  1
  O  O232  1  0.62913851  0.24401847  0.99495853  1
  O  O233  1  0.63587499  0.74660962  0.50659777  1
  O  O234  1  0.61324620  0.72938252  0.98702850  1
  O  O235  1  0.48543367  0.25538739  0.11958892  1
  O  O236  1  0.48641005  0.24923755  0.61831536  1
  O  O237  1  0.49489977  0.73590035  0.12167876  1
  O  O238  1  0.48522958  0.75704068  0.63371929  1
  O  O239  1  0.99256430  0.24207385  0.12730277  1
  O  O240  1  0.99500359  0.24397629  0.63226542  1
  O  O241  1  0.99200692  0.74726142  0.13223133  1
  O  O242  1  0.99200882  0.74176757  0.62676596  1
  O  O243  1  0.00458231  0.24787780  0.37142516  1
  O  O244  1  0.00848196  0.24304329  0.86589528  1
  O  O245  1  0.00660782  0.75515438  0.37117406  1
  O  O246  1  0.01101334  0.74943676  0.87155576  1
  O  O247  1  0.51170268  0.25067707  0.37833976  1
  O  O248  1  0.51239152  0.25070948  0.88119275  1
  O  O249  1  0.49077867  0.76400083  0.37752156  1
  O  O250  1  0.50640639  0.75548183  0.86684296  1
  O  O251  1  0.23966904  0.13785075  0.50923292  1
  O  O252  1  0.24415656  0.13081964  0.99854125  1
  O  O253  1  0.25480234  0.62880659  0.50318973  1
  O  O254  1  0.24584984  0.62814038  0.99054220  1
  O  O255  1  0.74218510  0.12753636  0.48890824  1
  O  O256  1  0.74057152  0.13103660  0.99453521  1
  O  O257  1  0.74535929  0.63388424  0.49327640  1
  O  O258  1  0.73660176  0.61885770  1.00397952  1
  O  O259  1  0.25636315  0.36870439  0.01069165  1
  O  O260  1  0.25069302  0.35764233  0.51086363  1
  O  O261  1  0.25747631  0.87047651  0.00717714  1
  O  O262  1  0.24702829  0.88058321  0.51662199  1
  O  O263  1  0.75521408  0.37275035  0.00774792  1
  O  O264  1  0.75430020  0.37666743  0.51116005  1
  O  O265  1  0.70391639  0.86231867  0.01161509  1
  O  O266  1  0.74907942  0.86089455  0.49365153  1
  O  O267  1  0.12683310  0.48855936  0.24558178  1
  O  O268  1  0.13635678  0.50402398  0.74632978  1
  O  O269  1  0.13157110  0.99065179  0.24989625  1
  O  O270  1  0.13422609  0.99430535  0.75161459  1
  O  O271  1  0.63444129  0.49164230  0.24768303  1
  O  O272  1  0.62968493  0.49269421  0.74113280  1
  O  O273  1  0.62499030  0.99597215  0.24409523  1
  O  O274  1  0.63205485  0.99252596  0.74519251  1
  O  O275  1  0.37011895  0.01105786  0.24842681  1
  O  O276  1  0.36977768  0.00515023  0.75706009  1
  O  O277  1  0.37784104  0.50740068  0.26070190  1
  O  O278  1  0.37267007  0.49950524  0.76165352  1
  O  O279  1  0.87285054  0.00585670  0.26175251  1
  O  O280  1  0.86715122  0.00524670  0.75563783  1
  O  O281  1  0.86464086  0.49191467  0.25907719  1
  O  O282  1  0.86564211  0.51331496  0.74501142  1
  O  O283  1  0.13205927  0.37719744  0.36088050  1
  O  O284  1  0.12926366  0.36071360  0.88355321  1
  O  O285  1  0.11928384  0.86878930  0.37195259  1
  O  O286  1  0.13230112  0.86860096  0.86484245  1
  O  O287  1  0.62803361  0.36559918  0.36562391  1
  O  O288  1  0.62351672  0.36559390  0.86559547  1
  O  O289  1  0.61054141  0.88240368  0.36333620  1
  O  O290  1  0.61887644  0.86816202  0.86154735  1
  O  O291  1  0.37342586  0.13163351  0.13878116  1
  O  O292  1  0.37823911  0.13110066  0.63613551  1
  O  O293  1  0.38016715  0.62710026  0.13115278  1
  O  O294  1  0.37200877  0.63886961  0.62735082  1
  O  O295  1  0.87985796  0.12847484  0.12931770  1
  O  O296  1  0.88122945  0.13102346  0.62875016  1
  O  O297  1  0.88794517  0.63805718  0.12021800  1
  O  O298  1  0.88153185  0.63521540  0.63009783  1
  O  O299  1  0.25861789  0.25939662  0.12087641  1
  O  O300  1  0.25801112  0.25346806  0.62183605  1
  O  O301  1  0.25596639  0.75529998  0.11945240  1
  O  O302  1  0.26248331  0.76278686  0.62735508  1
  O  O303  1  0.75503474  0.25743962  0.11858326  1
  O  O304  1  0.75722970  0.26012883  0.62494213  1
  O  O305  1  0.77129158  0.74936749  0.13120068  1
  O  O306  1  0.75667383  0.74629060  0.61039983  1
  O  O307  1  0.24904072  0.25089668  0.39023602  1
  O  O308  1  0.24292042  0.24250420  0.88272058  1
  O  O309  1  0.23524578  0.75452094  0.37249200  1
  O  O310  1  0.24835977  0.74187149  0.87888216  1
  O  O311  1  0.74107326  0.24097730  0.37593963  1
  O  O312  1  0.73921513  0.24520521  0.88019637  1
  O  O313  1  0.75370533  0.74160604  0.38840392  1
  O  O314  1  0.73700854  0.75161864  0.86976872  1
  O  O315  1  0.00327967  0.12008974  0.01256163  1
  O  O316  1  0.00694904  0.12562365  0.51320369  1
  O  O317  1  0.00610704  0.61961838  0.00577347  1
  O  O318  1  -0.00756502  0.62544066  0.51233837  1
  O  O319  1  0.50715351  0.11241966  -0.00420089  1
  O  O320  1  0.51293774  0.12425373  0.49869077  1
  O  O321  1  0.50269875  0.61314403  0.00471112  1
  O  O322  1  0.50308784  0.60514261  0.49290523  1
  O  O323  1  0.50702506  0.39117190  0.49169779  1
  O  O324  1  0.49557540  0.38757236  1.00032588  1
  O  O325  1  0.50808348  0.87792927  0.48658720  1
  O  O326  1  0.50138543  0.88570141  0.99486068  1
  O  O327  1  0.98810668  0.37781114  0.50733976  1
  O  O328  1  0.99013310  0.38476013  1.00613019  1
  O  O329  1  0.99771856  0.87739706  0.49006175  1
  O  O330  1  1.01458336  0.88480917  0.99146869  1
  O  O331  1  0.48884841  0.49541940  0.38059143  1
  O  O332  1  0.49297276  0.49719539  0.88091557  1
  O  O333  1  0.48547845  0.99002544  0.37343214  1
  O  O334  1  0.49449668  0.99310425  0.88224659  1
  O  O335  1  0.98638761  0.50938156  0.37252887  1
  O  O336  1  1.00660428  0.50550570  0.88699952  1
  O  O337  1  0.99150612  0.99186194  0.37733542  1
  O  O338  1  0.98104161  1.00571513  0.87344618  1
  O  O339  1  0.00580686  0.00712242  0.12838259  1
  O  O340  1  0.00221249  0.00897324  0.62558161  1
  O  O341  1  0.00100450  0.51149415  0.11767310  1
  O  O342  1  0.00032672  0.51593310  0.62445379  1
  O  O343  1  0.51113428  -0.00223615  0.11722720  1
  O  O344  1  0.51283978  0.00357196  0.63200454  1
  O  O345  1  0.50096784  0.51039623  0.11654181  1
  O  O346  1  0.50464661  0.49487035  0.61172099  1
  O  O347  1  0.24308196  0.37178213  0.23823212  1
  O  O348  1  0.25239550  0.38279646  0.74642647  1
  O  O349  1  0.24475642  0.88111630  0.24580127  1
  O  O350  1  0.24753990  0.88635093  0.74749373  1
  O  O351  1  0.74335812  0.38251629  0.24204465  1
  O  O352  1  0.74286250  0.38245655  0.73802303  1
  O  O353  1  0.73400198  0.87580195  0.25390878  1
  O  O354  1  0.74058569  0.88419426  0.75165279  1
  O  O355  1  0.24816619  0.11339603  0.24704555  1
  O  O356  1  0.25584630  0.11343224  0.75405082  1
  O  O357  1  0.25881666  0.62798480  0.25003390  1
  O  O358  1  0.25699255  0.61284313  0.76527991  1
  O  O359  1  0.75533119  0.12236874  0.26117045  1
  O  O360  1  0.75407200  0.11784202  0.75490698  1
  O  O361  1  0.74628235  0.61324944  0.25412988  1
  O  O362  1  0.76181716  0.61720130  0.74448739  1
  O  O363  1  0.37977944  0.11199788  0.36156619  1
  O  O364  1  0.36783675  0.12133435  0.87040135  1
  O  O365  1  0.37077031  0.61486074  0.36548325  1
  O  O366  1  0.36956616  0.61511833  0.87705424  1
  O  O367  1  0.86767767  0.11873774  0.37433445  1
  O  O368  1  0.86698869  0.11891836  0.86913732  1
  O  O369  1  0.86048650  0.61464838  0.37777710  1
  O  O370  1  0.87721265  0.63011469  0.85813328  1
  O  O371  1  0.13824370  0.37546591  0.13014362  1
  O  O372  1  0.13883782  0.37138763  0.62819728  1
  O  O373  1  0.13042579  0.87825585  0.13608942  1
  O  O374  1  0.13627534  0.87338213  0.63798041  1
  O  O375  1  0.63755756  0.37700546  0.12887320  1
  O  O376  1  0.63135391  0.37953424  0.62914406  1
  O  O377  1  0.61857405  0.88458527  0.14469392  1
  O  O378  1  0.62085364  0.88141209  0.63590753  1
  O  O379  1  0.12405112  0.26556229  0.25276600  1
  O  O380  1  0.11564027  0.24385047  0.76167421  1
  O  O381  1  0.11776362  0.76220676  0.25731400  1
  O  O382  1  0.12824663  0.75823187  0.76348856  1
  O  O383  1  0.63003155  0.25885746  0.25802950  1
  O  O384  1  0.63061028  0.25795439  0.75780664  1
  O  O385  1  0.62225882  0.76005056  0.24625669  1
  O  O386  1  0.61988450  0.75422833  0.75168835  1
  O  O387  1  0.37136583  0.23214443  0.24659144  1
  O  O388  1  0.37024489  0.23961003  0.74294056  1
  O  O389  1  0.37729016  0.74162396  0.24377442  1
  O  O390  1  0.38408632  0.74717753  0.74557773  1
  O  O391  1  0.87392130  0.24482255  0.24276873  1
  O  O392  1  0.87976665  0.24431194  0.74494828  1
  O  O393  1  0.88862221  0.75527865  0.25075245  1
  O  O394  1  0.87242996  0.74005672  0.74179631  1
  O  O395  1  0.38463738  0.49694225  0.48896468  1
  O  O396  1  0.38098279  0.49456033  0.99029336  1
  O  O397  1  0.37086073  1.01025159  0.48748046  1
  O  O398  1  0.38260495  0.99662335  0.99902199  1
  O  O399  1  0.87680353  0.49342852  0.49138885  1
  O  O400  1  0.88430365  0.49124038  1.00053233  1
  O  O401  1  0.87541211  0.99789019  0.49078722  1
  O  O402  1  0.86950300  1.00393659  0.98484941  1
  O  O403  1  0.12884906  0.01152146  0.01050706  1
  O  O404  1  0.12415373  0.00888093  0.50420612  1
  O  O405  1  0.11906790  0.50782574  0.00484853  1
  O  O406  1  0.12322545  0.49720935  0.50756645  1
  O  O407  1  0.61821830  0.01022553  0.00567622  1
  O  O408  1  0.63376911  0.00814255  0.51134983  1
  O  O409  1  0.61786947  0.50790818  -0.00050969  1
  O  O410  1  0.61833819  0.50190927  0.50729380  1
  O  O411  1  0.36659345  0.36955757  0.12550037  1
  O  O412  1  0.36359002  0.36297154  0.63151332  1
  O  O413  1  0.37355841  0.87016290  0.12101403  1
  O  O414  1  0.36416843  0.86792368  0.62929597  1
  O  O415  1  0.86511005  0.37086279  0.12054355  1
  O  O416  1  0.86655108  0.37382077  0.61850467  1
  O  O417  1  0.87500556  0.86345958  0.12647261  1
  O  O418  1  0.88118638  0.85939006  0.62707729  1
  O  O419  1  0.12260998  0.12293661  0.38838621  1
  O  O420  1  0.12987100  0.12751189  0.88439492  1
  O  O421  1  0.12938720  0.64183392  0.36980537  1
  O  O422  1  0.13332004  0.63229724  0.87720485  1
  O  O423  1  0.63044417  0.12855625  0.37898875  1
  O  O424  1  0.62922964  0.12974652  0.88323878  1
  O  O425  1  0.63876133  0.61870670  0.37428550  1
  O  O426  1  0.62437313  0.62848191  0.88497007  1
