# generated using pymatgen
data_V85Zn86O256
_symmetry_space_group_name_H-M   'P 1'
_cell_length_a   16.95727130
_cell_length_b   16.97175619
_cell_length_c   16.97254974
_cell_angle_alpha   89.97096414
_cell_angle_beta   90.01526288
_cell_angle_gamma   90.03174447
_symmetry_Int_Tables_number   1
_chemical_formula_structural   V85Zn86O256
_chemical_formula_sum   'V85 Zn86 O256'
_cell_volume   4884.60786951
_cell_formula_units_Z   1
loop_
 _symmetry_equiv_pos_site_id
 _symmetry_equiv_pos_as_xyz
  1  'x, y, z'
loop_
 _atom_site_type_symbol
 _atom_site_label
 _atom_site_symmetry_multiplicity
 _atom_site_fract_x
 _atom_site_fract_y
 _atom_site_fract_z
 _atom_site_occupancy
  V  V0  1  0.49510503  0.74584810  0.75175056  1
  V  V1  1  0.62702078  0.75041500  0.37708932  1
  V  V2  1  0.62368149  0.14070809  -0.00138415  1
  V  V3  1  0.25085050  0.26454319  0.00039652  1
  V  V4  1  0.12904722  0.12080950  0.01004766  1
  V  V5  1  0.50193402  0.00266939  0.49300663  1
  V  V6  1  0.37228989  0.74838521  0.63117859  1
  V  V7  1  0.00018953  0.24799479  0.74698390  1
  V  V8  1  0.75031024  0.62649450  0.37896544  1
  V  V9  1  0.48953723  0.62424588  0.62602228  1
  V  V10  1  0.87476602  0.88368701  -0.00573474  1
  V  V11  1  0.44314616  0.43654369  0.94524384  1
  V  V12  1  -0.00383542  0.88881540  0.87192215  1
  V  V13  1  -0.01321971  0.11988463  0.12835833  1
  V  V14  1  0.49933046  0.49622841  0.49676174  1
  V  V15  1  0.62434800  0.00398423  0.62599340  1
  V  V16  1  0.87343837  0.62384780  0.75089527  1
  V  V17  1  0.87311641  0.88849229  0.49384515  1
  V  V18  1  0.87468126  0.02050247  0.36638773  1
  V  V19  1  0.75632559  0.49403808  0.75445347  1
  V  V20  1  -0.00095599  0.62310090  0.62623916  1
  V  V21  1  0.37678591  0.87373542  0.49779045  1
  V  V22  1  0.63204256  0.24802904  0.37580612  1
  V  V23  1  0.87522995  0.75211208  0.12447238  1
  V  V24  1  0.62624067  0.74933407  0.87634435  1
  V  V25  1  0.62852171  0.63004553  0.50293560  1
  V  V26  1  0.63114339  0.12791467  0.50191769  1
  V  V27  1  0.75802379  0.12384377  0.88237227  1
  V  V28  1  0.62703813  0.50010900  0.62676494  1
  V  V29  1  0.75083114  0.87726013  0.12561145  1
  V  V30  1  0.12007099  0.88211096  0.24403728  1
  V  V31  1  0.74885502  0.49899264  0.24618101  1
  V  V32  1  0.49758620  0.24740252  0.25138762  1
  V  V33  1  0.12473965  0.62465130  0.49806478  1
  V  V34  1  0.00347615  0.49661527  0.50122520  1
  V  V35  1  0.13131263  0.49778902  0.62877367  1
  V  V36  1  0.75193690  0.37084372  0.62652135  1
  V  V37  1  -0.02345872  0.50338717  -0.00199031  1
  V  V38  1  0.25036340  0.37906348  0.14275020  1
  V  V39  1  0.12393642  0.88349267  0.74835355  1
  V  V40  1  -0.00199547  0.75414278  0.24910186  1
  V  V41  1  -0.00934341  0.37774076  0.87698582  1
  V  V42  1  0.87605451  0.62678432  0.24978732  1
  V  V43  1  0.24903861  0.88034088  0.62666840  1
  V  V44  1  0.86622736  0.74879770  0.61437288  1
  V  V45  1  0.87802272  0.11297458  0.75179593  1
  V  V46  1  0.11717854  -0.00539477  0.60746635  1
  V  V47  1  0.25021721  0.75069975  0.49743454  1
  V  V48  1  0.50029215  0.87203544  0.36864447  1
  V  V49  1  0.74720536  0.74849915  -0.00060646  1
  V  V50  1  0.26080413  0.50716624  0.76074128  1
  V  V51  1  0.36991706  0.00579562  0.86187925  1
  V  V52  1  -0.00987278  0.25134657  0.24180625  1
  V  V53  1  0.25622993  0.24706442  0.50554860  1
  V  V54  1  0.12413562  0.24528652  0.87682328  1
  V  V55  1  0.38180947  0.74756483  0.13397117  1
  V  V56  1  0.62530223  0.37635298  0.24908022  1
  V  V57  1  0.12910712  0.25085446  0.36633939  1
  V  V58  1  0.12555097  0.49622309  0.13328435  1
  V  V59  1  0.75214541  0.62214625  0.87571104  1
  V  V60  1  0.38068795  0.25186456  0.11812726  1
  V  V61  1  -0.00352513  0.62497885  0.12110767  1
  V  V62  1  0.54281521  0.59723808  0.13037111  1
  V  V63  1  0.62608287  0.87519923  0.74759120  1
  V  V64  1  0.13306101  0.61997315  -0.00733725  1
  V  V65  1  0.87661811  0.37281260  0.49973707  1
  V  V66  1  0.62452724  0.87103832  0.24813735  1
  V  V67  1  0.61323030  0.37202112  0.75386656  1
  V  V68  1  0.48194756  0.23658792  0.75160541  1
  V  V69  1  0.12381228  0.75157628  0.37301911  1
  V  V70  1  -0.00196810  0.75090240  0.75251964  1
  V  V71  1  -0.00080013  0.11908214  0.61609965  1
  V  V72  1  0.62210771  -0.00245453  0.11860136  1
  V  V73  1  0.87751829  0.50033324  0.37462533  1
  V  V74  1  0.00873658  0.37522969  0.36891144  1
  V  V75  1  0.12385223  0.37638458  0.75367547  1
  V  V76  1  0.76006508  0.35544634  0.12865704  1
  V  V77  1  0.24316395  0.88179869  0.11976283  1
  V  V78  1  0.25815531  0.36948293  0.62869535  1
  V  V79  1  0.24898143  0.75083976  -0.00451397  1
  V  V80  1  0.25136663  0.12357029  0.37366216  1
  V  V81  1  0.37503391  0.87668120  0.00030860  1
  V  V82  1  0.87482586  0.35225364  0.00528589  1
  V  V83  1  0.50165572  0.87508374  0.87511524  1
  V  V84  1  0.24854352  0.00222829  0.24408179  1
  Zn  Zn85  1  0.75388398  0.01287509  0.25071590  1
  Zn  Zn86  1  0.74555716  0.87081281  0.61852099  1
  Zn  Zn87  1  0.49747920  0.37525358  0.37571786  1
  Zn  Zn88  1  0.37803689  0.37102203  0.49933434  1
  Zn  Zn89  1  0.87680115  0.24637584  0.62388530  1
  Zn  Zn90  1  0.49578975  0.12276350  0.12179798  1
  Zn  Zn91  1  0.62501083  0.25288465  0.87404358  1
  Zn  Zn92  1  0.00218625  0.88729121  0.38174351  1
  Zn  Zn93  1  0.12761188  0.74849450  0.86925287  1
  Zn  Zn94  1  0.48163286  0.13064911  0.62303226  1
  Zn  Zn95  1  0.58029471  0.57117586  -0.04766172  1
  Zn  Zn96  1  0.75260161  0.24668863  0.49813202  1
  Zn  Zn97  1  0.49717019  0.00377678  -0.00243184  1
  Zn  Zn98  1  0.75214720  -0.00158780  0.75225152  1
  Zn  Zn99  1  0.25946333  0.12859628  0.87289898  1
  Zn  Zn100  1  0.37503186  0.12408667  0.24597297  1
  Zn  Zn101  1  0.30636365  0.66695945  0.83068983  1
  Zn  Zn102  1  0.37719228  -0.00045551  0.36973541  1
  Zn  Zn103  1  0.12240999  0.12287008  0.49632915  1
  Zn  Zn104  1  0.25663225  0.62143787  0.34613697  1
  Zn  Zn105  1  0.00288748  -0.00005491  0.00181833  1
  Zn  Zn106  1  0.36801783  0.49722648  0.34860799  1
  Zn  Zn107  1  0.18648984  0.19255746  0.18714808  1
  Zn  Zn108  1  0.29877968  0.17708613  0.69234130  1
  Zn  Zn109  1  0.18047155  0.69621914  0.17647126  1
  Zn  Zn110  1  0.18472068  0.68886704  0.68355858  1
  Zn  Zn111  1  0.68433836  0.18579964  0.18652224  1
  Zn  Zn112  1  0.68920394  0.18678919  0.68915489  1
  Zn  Zn113  1  0.69138821  0.69246256  0.19435397  1
  Zn  Zn114  1  0.68468783  0.68520904  0.69074776  1
  Zn  Zn115  1  0.31860328  0.31322373  0.31559610  1
  Zn  Zn116  1  0.31356455  0.32245094  0.82113355  1
  Zn  Zn117  1  0.30950343  0.81369459  0.30942662  1
  Zn  Zn118  1  0.31218595  0.82923845  0.81024003  1
  Zn  Zn119  1  0.81553022  0.30970095  0.31521375  1
  Zn  Zn120  1  0.81514467  0.30262065  0.81467120  1
  Zn  Zn121  1  0.80817138  0.81640450  0.31538665  1
  Zn  Zn122  1  0.81325204  0.81296143  0.81019280  1
  Zn  Zn123  1  0.19088340  0.43417911  0.43786988  1
  Zn  Zn124  1  0.18202550  0.43922954  0.93940225  1
  Zn  Zn125  1  0.18898896  0.93633567  0.43204872  1
  Zn  Zn126  1  0.18527941  0.94084281  0.93065548  1
  Zn  Zn127  1  0.68640683  0.43727310  0.43602958  1
  Zn  Zn128  1  0.70465754  0.42539769  0.92951566  1
  Zn  Zn129  1  0.69370965  0.93922896  0.43709311  1
  Zn  Zn130  1  0.69067591  0.94139197  0.93549271  1
  Zn  Zn131  1  0.31187818  0.06538666  0.05806559  1
  Zn  Zn132  1  0.31167347  0.05782004  0.55698978  1
  Zn  Zn133  1  0.31257890  0.56672066  0.17713070  1
  Zn  Zn134  1  0.31764777  0.56744935  0.49053571  1
  Zn  Zn135  1  0.80991622  0.06250889  0.06267078  1
  Zn  Zn136  1  0.81053886  0.06013687  0.56509917  1
  Zn  Zn137  1  0.75988566  0.54165183  0.04678770  1
  Zn  Zn138  1  0.81213076  0.55911339  0.56293406  1
  Zn  Zn139  1  0.44039106  0.43162473  0.17845966  1
  Zn  Zn140  1  0.43613808  0.44004138  0.68441005  1
  Zn  Zn141  1  0.43672671  0.93681035  0.18558950  1
  Zn  Zn142  1  0.44048993  0.93971515  0.68358501  1
  Zn  Zn143  1  0.93741545  0.43764163  0.18625000  1
  Zn  Zn144  1  0.93734745  0.43629433  0.68760409  1
  Zn  Zn145  1  0.93527029  0.94281174  0.18857220  1
  Zn  Zn146  1  0.93762922  0.93461124  0.68124284  1
  Zn  Zn147  1  0.05987487  0.06401792  0.31091208  1
  Zn  Zn148  1  0.12002462  0.10155009  0.75617529  1
  Zn  Zn149  1  0.06544748  0.56726781  0.31173840  1
  Zn  Zn150  1  0.05910241  0.55996723  0.81573088  1
  Zn  Zn151  1  0.59328233  0.07709983  0.29788720  1
  Zn  Zn152  1  0.56214896  0.06326984  0.81553925  1
  Zn  Zn153  1  0.55806048  0.56321722  0.31056165  1
  Zn  Zn154  1  0.44838557  0.56615846  0.81721543  1
  Zn  Zn155  1  0.43891963  0.18546392  0.43428641  1
  Zn  Zn156  1  0.44109039  0.19560366  0.93541085  1
  Zn  Zn157  1  0.44187017  0.68795731  0.43377062  1
  Zn  Zn158  1  0.39825816  0.61156848  1.00022005  1
  Zn  Zn159  1  0.94038779  0.19189654  0.43485754  1
  Zn  Zn160  1  0.94370866  0.18020267  0.93537493  1
  Zn  Zn161  1  0.94052287  0.68909466  0.43689165  1
  Zn  Zn162  1  0.93367607  0.69179790  0.93588683  1
  Zn  Zn163  1  0.06381024  0.31477694  0.06408358  1
  Zn  Zn164  1  0.07025833  0.30760309  0.56128989  1
  Zn  Zn165  1  0.06237098  0.81193611  0.05819593  1
  Zn  Zn166  1  0.05585233  0.81146147  0.56135564  1
  Zn  Zn167  1  0.58718900  0.42277737  0.05886262  1
  Zn  Zn168  1  0.56072195  0.30939638  0.56966481  1
  Zn  Zn169  1  0.55997650  0.80878821  0.06015203  1
  Zn  Zn170  1  0.56183621  0.81192259  0.56083341  1
  O  O171  1  0.12123631  0.13099309  0.11182151  1
  O  O172  1  0.11516182  0.10639101  0.62384152  1
  O  O173  1  0.11386319  0.62151066  0.10899412  1
  O  O174  1  0.11692378  0.61703168  0.62053151  1
  O  O175  1  0.62413710  0.11676588  0.10878918  1
  O  O176  1  0.61967551  0.11791222  0.62064222  1
  O  O177  1  0.64252624  0.61503049  0.12701317  1
  O  O178  1  0.62056241  0.62148099  0.61841444  1
  O  O179  1  0.37910331  0.38248244  0.38057104  1
  O  O180  1  0.38370729  0.38579412  0.88105805  1
  O  O181  1  0.38325659  0.87270832  0.37885603  1
  O  O182  1  0.38331655  0.88356807  0.88128867  1
  O  O183  1  0.88654570  0.37932146  0.38208938  1
  O  O184  1  0.88351170  0.36677230  0.88529323  1
  O  O185  1  0.87854797  0.87267191  0.38722813  1
  O  O186  1  0.88268688  0.86969605  0.88249529  1
  O  O187  1  0.25109172  0.00703903  0.36470306  1
  O  O188  1  0.26632715  -0.00038726  0.87469170  1
  O  O189  1  0.25879101  0.51313072  0.39962782  1
  O  O190  1  0.24142906  0.49726480  0.85813361  1
  O  O191  1  0.77051934  -0.00691905  0.37235075  1
  O  O192  1  0.74519718  0.01709971  0.86864700  1
  O  O193  1  0.75895899  0.50403926  0.36854000  1
  O  O194  1  0.75536887  0.50868928  0.86461616  1
  O  O195  1  0.24102139  0.48515194  0.12398014  1
  O  O196  1  0.23703247  0.49204693  0.63905693  1
  O  O197  1  0.25186750  0.99019392  0.12845301  1
  O  O198  1  0.23804249  0.98435036  0.61312334  1
  O  O199  1  0.76202642  0.48679958  0.14453034  1
  O  O200  1  0.74733387  0.48829332  0.62939811  1
  O  O201  1  0.74158512  0.99384033  0.12750808  1
  O  O202  1  0.73610488  0.99580054  0.62835778  1
  O  O203  1  -0.00330354  0.36360193  0.25653400  1
  O  O204  1  -0.00007531  0.36964054  0.75893958  1
  O  O205  1  0.00586973  0.87197122  0.25026220  1
  O  O206  1  0.00219505  0.86818038  0.75325328  1
  O  O207  1  0.51109264  0.36346292  0.24671514  1
  O  O208  1  0.51213037  0.37576380  0.74669094  1
  O  O209  1  0.50339800  0.87762280  0.26324922  1
  O  O210  1  0.50899476  0.86943199  0.75340470  1
  O  O211  1  0.50300043  0.13723313  0.24549054  1
  O  O212  1  0.49935297  0.13471844  0.74748338  1
  O  O213  1  0.51477214  0.62497711  0.22428646  1
  O  O214  1  0.50274264  0.63456554  0.73924322  1
  O  O215  1  1.00692338  0.13555938  0.23472755  1
  O  O216  1  1.00219575  0.13242783  0.73891703  1
  O  O217  1  0.99580449  0.63461061  0.24373402  1
  O  O218  1  0.99423863  0.63051780  0.74573059  1
  O  O219  1  0.36329830  0.24396486  0.00648058  1
  O  O220  1  0.36031175  0.24965185  0.49273011  1
  O  O221  1  0.36099802  0.76632662  0.00473113  1
  O  O222  1  0.36696431  0.75588363  0.50693777  1
  O  O223  1  0.88294816  0.25379824  0.00039732  1
  O  O224  1  0.87430687  0.26235566  0.49993973  1
  O  O225  1  0.86674301  0.76107624  0.00491667  1
  O  O226  1  0.87639633  0.74754194  0.51273444  1
  O  O227  1  0.13676224  0.24732617  0.48702914  1
  O  O228  1  0.13065806  0.24488227  0.99619346  1
  O  O229  1  0.12845002  0.74929208  0.49094018  1
  O  O230  1  0.13153885  0.74175131  0.99570909  1
  O  O231  1  0.62466434  0.24440037  0.49600269  1
  O  O232  1  0.62681529  0.23801907  0.99867030  1
  O  O233  1  0.62451961  0.73992785  0.49407059  1
  O  O234  1  0.63949773  0.75825313  0.99337923  1
  O  O235  1  0.48464311  0.24950037  0.13159544  1
  O  O236  1  0.49906159  0.25000724  0.64663354  1
  O  O237  1  0.48169727  0.75836502  0.12502774  1
  O  O238  1  0.49407631  0.74536911  0.63137034  1
  O  O239  1  1.00413898  0.24543641  0.13706610  1
  O  O240  1  1.00158639  0.24452427  0.63280945  1
  O  O241  1  0.99487690  0.74615152  0.12882489  1
  O  O242  1  0.98989292  0.74394296  0.63414967  1
  O  O243  1  0.00861676  0.25662228  0.36626642  1
  O  O244  1  0.00462713  0.25621417  0.86949196  1
  O  O245  1  0.01192819  0.75075317  0.36858879  1
  O  O246  1  -0.00087681  0.75567627  0.86087232  1
  O  O247  1  0.50624456  0.25335802  0.36666951  1
  O  O248  1  0.50601029  0.24828892  0.85568041  1
  O  O249  1  0.51431785  0.75860081  0.37991302  1
  O  O250  1  0.50905242  0.76544986  0.86727814  1
  O  O251  1  0.24535143  0.12848676  0.48910713  1
  O  O252  1  0.23848594  0.13453123  0.99595473  1
  O  O253  1  0.23814806  0.64460833  0.51577291  1
  O  O254  1  0.23420297  0.63401051  0.99822827  1
  O  O255  1  0.73624705  0.12777729  0.50790158  1
  O  O256  1  0.74125388  0.11992332  0.98971007  1
  O  O257  1  0.73768815  0.61560471  0.49450270  1
  O  O258  1  0.76286136  0.63840215  0.98902401  1
  O  O259  1  0.24282984  0.36642001  0.00530752  1
  O  O260  1  0.24934396  0.36512113  0.51285481  1
  O  O261  1  0.25023048  0.87267974  0.00290361  1
  O  O262  1  0.25370865  0.86536612  0.50256755  1
  O  O263  1  0.76137194  0.37069246  0.01810072  1
  O  O264  1  0.75952276  0.37656925  0.50766751  1
  O  O265  1  0.75722499  0.86998947  0.00316371  1
  O  O266  1  0.76651937  0.87335767  0.50167824  1
  O  O267  1  0.11189249  0.50229900  0.23185363  1
  O  O268  1  0.12534722  0.49467371  0.74489803  1
  O  O269  1  0.13323085  0.98934813  0.25377330  1
  O  O270  1  0.11844766  0.98539250  0.73246972  1
  O  O271  1  0.63803907  0.48871726  0.26248911  1
  O  O272  1  0.64254401  0.48350972  0.74185576  1
  O  O273  1  0.61612711  0.98206380  0.23377498  1
  O  O274  1  0.62071224  0.99254824  0.74141563  1
  O  O275  1  0.36154583  -0.00021225  0.24981262  1
  O  O276  1  0.37863480  -0.00665433  0.76333581  1
  O  O277  1  0.38204366  0.50452226  0.23792352  1
  O  O278  1  0.36582095  0.50518909  0.75081186  1
  O  O279  1  0.87172984  0.00557109  0.26081348  1
  O  O280  1  0.87712128  0.00995051  0.74512170  1
  O  O281  1  0.87349624  0.50662566  0.25826620  1
  O  O282  1  0.86458384  0.50836658  0.74062882  1
  O  O283  1  0.11487710  0.36929052  0.37905039  1
  O  O284  1  0.11107721  0.36792860  0.87469904  1
  O  O285  1  0.12138316  0.86852790  0.36594779  1
  O  O286  1  0.11705235  0.87308685  0.86364429  1
  O  O287  1  0.62300446  0.36759966  0.36614925  1
  O  O288  1  0.63648042  0.37083162  0.85646228  1
  O  O289  1  0.62200592  0.87019069  0.36930424  1
  O  O290  1  0.61968884  0.87356159  0.86750894  1
  O  O291  1  0.37421104  0.13432352  0.12609159  1
  O  O292  1  0.36896805  0.11948879  0.62763620  1
  O  O293  1  0.36499149  0.64626256  0.10789699  1
  O  O294  1  0.38813007  0.63215017  0.61514141  1
  O  O295  1  0.88803639  0.12505231  0.12068644  1
  O  O296  1  0.88183884  0.12526985  0.63169196  1
  O  O297  1  0.88186818  0.63513374  0.13411414  1
  O  O298  1  0.87856267  0.63274744  0.62810626  1
  O  O299  1  0.25369141  0.26080986  0.12038180  1
  O  O300  1  0.24563590  0.25762455  0.61751163  1
  O  O301  1  0.25072358  0.76511842  0.11141020  1
  O  O302  1  0.25162367  0.76136116  0.61828357  1
  O  O303  1  0.75740787  0.25694560  0.13613577  1
  O  O304  1  0.75414024  0.26097205  0.62359711  1
  O  O305  1  0.75518168  0.75673087  0.11737043  1
  O  O306  1  0.76358643  0.74909556  0.63167006  1
  O  O307  1  0.24472769  0.24279375  0.37706432  1
  O  O308  1  0.24080296  0.25591774  0.88466435  1
  O  O309  1  0.23951447  0.75036171  0.38110801  1
  O  O310  1  0.24887799  0.75570669  0.88111044  1
  O  O311  1  0.73652288  0.25572077  0.37893219  1
  O  O312  1  0.74468012  0.22926886  0.86883629  1
  O  O313  1  0.73667604  0.74214193  0.37103365  1
  O  O314  1  0.74603030  0.74670318  0.88051551  1
  O  O315  1  0.01017891  0.12561717  0.01292772  1
  O  O316  1  0.00320936  0.13516162  0.51291337  1
  O  O317  1  -0.00168460  0.61931416  0.00243601  1
  O  O318  1  0.00578905  0.61779319  0.50570765  1
  O  O319  1  0.51371908  0.12494003  -0.00163942  1
  O  O320  1  0.50404914  0.11679243  0.50451320  1
  O  O321  1  0.51400264  0.62644918  0.03128606  1
  O  O322  1  0.51252011  0.61847111  0.50740514  1
  O  O323  1  0.50279576  0.38255806  0.50223653  1
  O  O324  1  0.50400851  0.37500309  0.99883138  1
  O  O325  1  0.49739317  0.88055765  0.48976809  1
  O  O326  1  0.49069441  0.87406095  0.99013019  1
  O  O327  1  0.99594630  0.37756135  0.49363586  1
  O  O328  1  0.99080740  0.38237181  0.99667397  1
  O  O329  1  0.97938485  0.86775532  0.49873182  1
  O  O330  1  0.99337248  0.87478532  0.99010653  1
  O  O331  1  0.50069938  0.49914858  0.38675138  1
  O  O332  1  0.50901572  0.50210627  0.89006226  1
  O  O333  1  0.50326630  0.99281117  0.38475362  1
  O  O334  1  0.49349631  0.98949639  0.87605746  1
  O  O335  1  0.99891608  0.49299709  0.37911464  1
  O  O336  1  0.99882430  0.48931992  0.88532189  1
  O  O337  1  0.98328388  1.00240415  0.37107027  1
  O  O338  1  1.00140097  0.98710166  0.87794226  1
  O  O339  1  0.00012699  0.01569198  0.12427026  1
  O  O340  1  0.00421567  0.00609223  0.62141575  1
  O  O341  1  0.00239043  0.50550527  0.11435314  1
  O  O342  1  0.00941295  0.50277994  0.62186768  1
  O  O343  1  0.50554738  0.00177187  0.11917921  1
  O  O344  1  0.51040298  -0.00306153  0.61107251  1
  O  O345  1  0.52527209  0.49480699  0.12804967  1
  O  O346  1  0.50987725  0.50873370  0.62492958  1
  O  O347  1  0.24670759  0.36986854  0.24095559  1
  O  O348  1  0.24467065  0.38413048  0.74690675  1
  O  O349  1  0.24103713  0.88209616  0.24030284  1
  O  O350  1  0.23728337  0.87254236  0.73767926  1
  O  O351  1  0.75086271  0.37812631  0.24670736  1
  O  O352  1  0.75791978  0.37830624  0.74259832  1
  O  O353  1  0.74082972  0.87790833  0.24206743  1
  O  O354  1  0.73694423  0.87680185  0.74887919  1
  O  O355  1  0.24706713  0.11665500  0.25332714  1
  O  O356  1  0.22688787  0.13404887  0.76501883  1
  O  O357  1  0.23670589  0.62438835  0.23776080  1
  O  O358  1  0.24488955  0.61342280  0.74917245  1
  O  O359  1  0.70127147  0.11115467  0.26475531  1
  O  O360  1  0.76246301  0.12212683  0.75529506  1
  O  O361  1  0.75668853  0.61689954  0.25884275  1
  O  O362  1  0.75297251  0.61511028  0.75478642  1
  O  O363  1  0.36269418  0.12256614  0.36909182  1
  O  O364  1  0.37816350  0.10869921  0.88136065  1
  O  O365  1  0.36620203  0.61802540  0.39322379  1
  O  O366  1  0.38914844  0.62883031  0.88963495  1
  O  O367  1  0.87238941  0.11870870  0.38008038  1
  O  O368  1  0.86660155  0.12483587  0.86950851  1
  O  O369  1  0.87168720  0.62121837  0.37131694  1
  O  O370  1  0.86298452  0.63497989  0.86296656  1
  O  O371  1  0.13603650  0.38406771  0.12079226  1
  O  O372  1  0.12994194  0.38114646  0.63321411  1
  O  O373  1  0.13057905  0.87242296  0.13152603  1
  O  O374  1  0.12776288  0.87670020  0.62632980  1
  O  O375  1  0.64677346  0.37047195  0.14130395  1
  O  O376  1  0.63515026  0.37764975  0.63443099  1
  O  O377  1  0.62884679  0.87696246  0.12905786  1
  O  O378  1  0.62492096  0.88017360  0.63151363  1
  O  O379  1  0.11670792  0.24901730  0.26186764  1
  O  O380  1  0.11072487  0.26021128  0.76118857  1
  O  O381  1  0.11959033  0.76266403  0.25490253  1
  O  O382  1  0.11423045  0.75930398  0.74660899  1
  O  O383  1  0.61802608  0.25740977  0.25829797  1
  O  O384  1  0.62306014  0.26330628  0.74750495  1
  O  O385  1  0.62634807  0.76309328  0.25742663  1
  O  O386  1  0.61930127  0.75777808  0.75537562  1
  O  O387  1  0.38271742  0.24768573  0.24385700  1
  O  O388  1  0.37890397  0.24889893  0.75664158  1
  O  O389  1  0.36546778  0.75183453  0.23242003  1
  O  O390  1  0.37545402  0.75062400  0.74693513  1
  O  O391  1  0.89218608  0.24602115  0.25811623  1
  O  O392  1  0.88832224  0.23790404  0.74908066  1
  O  O393  1  0.87874697  0.74834831  0.24644442  1
  O  O394  1  0.88088369  0.74585774  0.73892258  1
  O  O395  1  0.39614658  0.49255078  0.51939737  1
  O  O396  1  0.38924567  0.49499172  1.00754257  1
  O  O397  1  0.38422964  0.99066505  0.49313061  1
  O  O398  1  0.37471050  0.98817759  0.99491142  1
  O  O399  1  0.88282692  0.49043281  0.49599963  1
  O  O400  1  0.87643048  0.49433578  1.00551087  1
  O  O401  1  0.87392783  0.99232265  0.49283693  1
  O  O402  1  0.87743591  0.98683648  1.00423603  1
  O  O403  1  0.12505208  0.01827085  -0.00656253  1
  O  O404  1  0.12234962  -0.00270240  0.50352757  1
  O  O405  1  0.11717399  0.51163581  0.00487317  1
  O  O406  1  0.12069096  0.50266444  0.51065426  1
  O  O407  1  0.62203286  -0.00295263  0.01037521  1
  O  O408  1  0.62108612  0.00674814  0.50412099  1
  O  O409  1  0.65543737  0.49806096  0.00235143  1
  O  O410  1  0.61799528  0.50468305  0.50700466  1
  O  O411  1  0.35847737  0.36551064  0.12635599  1
  O  O412  1  0.36050432  0.37605626  0.62756452  1
  O  O413  1  0.36536923  0.87012625  0.11733458  1
  O  O414  1  0.36665635  0.87117299  0.61985383  1
  O  O415  1  0.86798853  0.37081939  0.12168519  1
  O  O416  1  0.87051701  0.37302825  0.61595878  1
  O  O417  1  0.87069791  0.87093281  0.11896523  1
  O  O418  1  0.87165401  0.86494791  0.61414475  1
  O  O419  1  0.13434496  0.13101159  0.37398663  1
  O  O420  1  0.11709516  0.14132811  0.88720465  1
  O  O421  1  0.12719630  0.63453913  0.38193234  1
  O  O422  1  0.11567360  0.62882768  0.88896909  1
  O  O423  1  0.61169197  0.13823504  0.39343744  1
  O  O424  1  0.63159517  0.12483837  0.88683429  1
  O  O425  1  0.62734289  0.63269091  0.38229199  1
  O  O426  1  0.64186299  0.63559523  0.87693808  1
