# generated using pymatgen
data_V85Zn86O256
_symmetry_space_group_name_H-M   'P 1'
_cell_length_a   16.93894872
_cell_length_b   16.94597689
_cell_length_c   16.94374711
_cell_angle_alpha   89.98522827
_cell_angle_beta   89.94742013
_cell_angle_gamma   89.93765828
_symmetry_Int_Tables_number   1
_chemical_formula_structural   V85Zn86O256
_chemical_formula_sum   'V85 Zn86 O256'
_cell_volume   4863.64725817
_cell_formula_units_Z   1
loop_
 _symmetry_equiv_pos_site_id
 _symmetry_equiv_pos_as_xyz
  1  'x, y, z'
loop_
 _atom_site_type_symbol
 _atom_site_label
 _atom_site_symmetry_multiplicity
 _atom_site_fract_x
 _atom_site_fract_y
 _atom_site_fract_z
 _atom_site_occupancy
  V  V0  1  0.50732903  0.87370359  0.37544057  1
  V  V1  1  0.51302185  0.12096130  0.62394914  1
  V  V2  1  0.00060107  -0.00002992  0.50044382  1
  V  V3  1  -0.00192256  0.25026865  0.74717264  1
  V  V4  1  0.87332334  0.87724897  0.00103460  1
  V  V5  1  -0.00192786  0.37616148  0.87543701  1
  V  V6  1  0.25183032  0.62363168  0.37816698  1
  V  V7  1  0.87075024  0.12471846  0.75038709  1
  V  V8  1  0.73629549  0.24679994  0.49549976  1
  V  V9  1  0.24813343  0.87294324  0.63400222  1
  V  V10  1  0.50716382  -0.01181913  0.01841902  1
  V  V11  1  0.87610597  0.37402337  -0.00053688  1
  V  V12  1  0.88526911  0.24664769  0.12147253  1
  V  V13  1  0.86455800  0.50590978  0.37954797  1
  V  V14  1  0.37305878  0.49681974  0.88321966  1
  V  V15  1  0.00210950  0.87646456  0.37565081  1
  V  V16  1  0.86877178  0.49743815  0.87165047  1
  V  V17  1  0.24869899  0.00658673  0.76080149  1
  V  V18  1  0.39656576  -0.00427267  0.88261075  1
  V  V19  1  0.62965532  0.37088968  0.25214181  1
  V  V20  1  0.50797964  0.74850957  0.25193525  1
  V  V21  1  0.92830079  0.70219660  0.07966200  1
  V  V22  1  0.73750678  0.12576595  0.87432935  1
  V  V23  1  0.87242510  0.75202761  0.62694802  1
  V  V24  1  0.50478775  0.36648367  0.37523767  1
  V  V25  1  -0.00532697  0.75096911  0.25217312  1
  V  V26  1  0.73874556  0.37910835  0.62315165  1
  V  V27  1  0.25528922  0.87922246  0.12098515  1
  V  V28  1  0.73739342  0.50343915  0.74289904  1
  V  V29  1  0.74314551  0.87672867  0.12130117  1
  V  V30  1  0.24818215  0.49245697  0.23846853  1
  V  V31  1  0.37867648  0.12400070  0.23516922  1
  V  V32  1  0.37504498  0.00464376  0.37789015  1
  V  V33  1  0.23360774  0.75003283  -0.00415616  1
  V  V34  1  0.12511772  0.25476878  0.37400266  1
  V  V35  1  0.87275140  0.25044474  0.62194320  1
  V  V36  1  0.01306229  0.75505873  0.74675988  1
  V  V37  1  0.12853033  0.12557550  0.49967998  1
  V  V38  1  0.25034675  0.74764631  0.50032245  1
  V  V39  1  0.74116633  0.62469066  0.87499529  1
  V  V40  1  0.74310175  0.88006225  0.62374841  1
  V  V41  1  0.37516364  0.74576902  0.62414818  1
  V  V42  1  0.74330003  0.00060381  0.74808484  1
  V  V43  1  0.50355774  0.24512072  0.24484157  1
  V  V44  1  0.88141384  0.12451679  0.24547050  1
  V  V45  1  0.25250087  0.36345254  0.10791190  1
  V  V46  1  0.86528812  0.63277938  0.26313966  1
  V  V47  1  0.50967514  0.62089715  0.62646115  1
  V  V48  1  0.51270991  0.00239828  0.50545859  1
  V  V49  1  0.37559703  0.49588439  0.37531973  1
  V  V50  1  0.24984879  0.37604311  0.62538320  1
  V  V51  1  0.61960234  0.87761677  0.75193304  1
  V  V52  1  0.74565966  0.73978251  0.00419993  1
  V  V53  1  0.50541716  0.62191401  0.11768351  1
  V  V54  1  0.74039817  0.74832490  0.48952254  1
  V  V55  1  0.37446325  0.37208111  0.50047130  1
  V  V56  1  0.12502945  0.50577371  0.62354940  1
  V  V57  1  0.74568192  0.24879767  -0.00346483  1
  V  V58  1  0.49631503  0.75406618  0.75541415  1
  V  V59  1  0.87382559  0.87662863  0.50015862  1
  V  V60  1  0.74198307  0.00273043  0.24383610  1
  V  V61  1  0.87598871  0.37497163  0.50122950  1
  V  V62  1  0.12641015  -0.00505588  0.62967392  1
  V  V63  1  0.00153305  0.00749281  0.00571481  1
  V  V64  1  0.01156678  0.87459629  0.87018397  1
  V  V65  1  0.37502900  0.62535133  0.24722838  1
  V  V66  1  0.87413277  0.00388242  0.37402467  1
  V  V67  1  0.37680160  0.75134953  0.11366588  1
  V  V68  1  0.13023193  0.24261560  0.87642695  1
  V  V69  1  0.24137353  0.62856872  0.87699550  1
  V  V70  1  -0.00134005  0.12390117  0.62480469  1
  V  V71  1  0.37547858  0.87488171  0.50039239  1
  V  V72  1  0.00099447  0.62612441  0.62540046  1
  V  V73  1  0.12763380  0.74274642  0.37720288  1
  V  V74  1  0.62122971  0.12139480  0.01871178  1
  V  V75  1  0.50817126  0.49627656  0.50809211  1
  V  V76  1  0.37491514  0.24526424  0.62855883  1
  V  V77  1  0.12476246  0.37951651  0.75044937  1
  V  V78  1  0.63376837  0.50141043  0.11779303  1
  V  V79  1  0.62081427  0.75124240  0.87867844  1
  V  V80  1  0.50173175  0.36682814  0.88614743  1
  V  V81  1  0.00313141  0.50497189  0.49453484  1
  V  V82  1  0.50800764  0.25011077  0.75283499  1
  V  V83  1  0.73867343  0.12780707  0.37720505  1
  V  V84  1  0.12957405  0.87541219  0.25022010  1
  Zn  Zn85  1  0.87239570  0.62550729  0.74701493  1
  Zn  Zn86  1  0.25277594  0.50291284  0.75178699  1
  Zn  Zn87  1  0.87335712  -0.00111780  0.87403817  1
  Zn  Zn88  1  0.62416706  0.87596242  0.24734549  1
  Zn  Zn89  1  0.49977359  0.49781724  0.00307455  1
  Zn  Zn90  1  0.06068201  0.55017540  0.06708430  1
  Zn  Zn91  1  0.12227482  0.37456446  0.24008106  1
  Zn  Zn92  1  0.37635467  0.62270629  0.75392172  1
  Zn  Zn93  1  0.74901220  0.50296892  0.25395199  1
  Zn  Zn94  1  0.00540138  0.24840299  0.24472876  1
  Zn  Zn95  1  0.37277387  0.12739780  0.75963041  1
  Zn  Zn96  1  0.25183793  0.12588070  0.37332711  1
  Zn  Zn97  1  0.25069398  0.24889828  0.50001572  1
  Zn  Zn98  1  0.38382325  0.25418629  0.11304299  1
  Zn  Zn99  1  0.63360100  0.61930818  0.48730861  1
  Zn  Zn100  1  0.12294405  0.00736684  0.13106565  1
  Zn  Zn101  1  0.25240673  0.00137971  0.25068753  1
  Zn  Zn102  1  0.12596140  0.13431990  0.01933829  1
  Zn  Zn103  1  -0.00053849  0.37534234  0.37079235  1
  Zn  Zn104  1  0.75265673  0.37392166  0.12886927  1
  Zn  Zn105  1  0.27567984  0.22526867  -0.02422576  1
  Zn  Zn106  1  0.62109343  0.37790743  0.75262747  1
  Zn  Zn107  1  0.19043098  0.18443095  0.18808363  1
  Zn  Zn108  1  0.18692766  0.18746230  0.68834498  1
  Zn  Zn109  1  0.18758511  0.68759870  0.17775462  1
  Zn  Zn110  1  0.18880676  0.68378999  0.69366118  1
  Zn  Zn111  1  0.69459917  0.19181405  0.18822149  1
  Zn  Zn112  1  0.68651215  0.19039502  0.68435352  1
  Zn  Zn113  1  0.68920722  0.68672991  0.18666248  1
  Zn  Zn114  1  0.68483723  0.69110482  0.68565171  1
  Zn  Zn115  1  0.31365636  0.30666100  0.31120747  1
  Zn  Zn116  1  0.31615309  0.31750947  0.81168684  1
  Zn  Zn117  1  0.31949324  0.81246207  0.31060253  1
  Zn  Zn118  1  0.31303860  0.81791832  0.81687814  1
  Zn  Zn119  1  0.81516851  0.31089685  0.31406084  1
  Zn  Zn120  1  0.80618383  0.31121983  0.81043632  1
  Zn  Zn121  1  0.81041928  0.81918715  0.31233410  1
  Zn  Zn122  1  0.81225942  0.81444693  0.81327081  1
  Zn  Zn123  1  0.18738398  0.43971242  0.43746887  1
  Zn  Zn124  1  0.18627016  0.43864939  0.94534819  1
  Zn  Zn125  1  0.19057233  0.93599038  0.43910905  1
  Zn  Zn126  1  0.18734581  0.93773904  0.94225426  1
  Zn  Zn127  1  0.68599506  0.43305438  0.43776528  1
  Zn  Zn128  1  0.68544171  0.43549543  0.93726374  1
  Zn  Zn129  1  0.68744442  0.93847564  0.43447904  1
  Zn  Zn130  1  0.68323330  0.93803099  0.93598934  1
  Zn  Zn131  1  0.31208700  0.06224907  0.05440298  1
  Zn  Zn132  1  0.31507888  0.06097695  0.56481856  1
  Zn  Zn133  1  0.30984409  0.56564978  0.05993568  1
  Zn  Zn134  1  0.31631026  0.56188274  0.56212158  1
  Zn  Zn135  1  0.81330654  0.06249014  0.06213379  1
  Zn  Zn136  1  0.80751673  0.06312121  0.56143402  1
  Zn  Zn137  1  0.85027952  0.53704791  0.08400899  1
  Zn  Zn138  1  0.81089981  0.56574767  0.56215824  1
  Zn  Zn139  1  0.43712736  0.43454225  0.18540758  1
  Zn  Zn140  1  0.43601010  0.43646233  0.69347372  1
  Zn  Zn141  1  0.43550923  0.93527473  0.18952598  1
  Zn  Zn142  1  0.43307382  0.93867246  0.69002020  1
  Zn  Zn143  1  0.94372156  0.43893691  0.19079778  1
  Zn  Zn144  1  0.93354546  0.44007221  0.68811148  1
  Zn  Zn145  1  0.93032509  0.93336252  0.18516582  1
  Zn  Zn146  1  0.93397642  0.93802314  0.68901782  1
  Zn  Zn147  1  0.06469100  0.06491529  0.31187359  1
  Zn  Zn148  1  0.06029586  0.05818910  0.81169232  1
  Zn  Zn149  1  0.08033029  0.58256786  0.25422270  1
  Zn  Zn150  1  0.07775618  0.54456297  0.86512647  1
  Zn  Zn151  1  0.56034633  0.06148611  0.31296037  1
  Zn  Zn152  1  0.56151335  0.06475008  0.81034737  1
  Zn  Zn153  1  0.56528672  0.55484209  0.31060192  1
  Zn  Zn154  1  0.55768775  0.56258899  0.81583606  1
  Zn  Zn155  1  0.44325410  0.18573631  0.43845576  1
  Zn  Zn156  1  0.44264532  0.17796041  0.93895274  1
  Zn  Zn157  1  0.47357929  0.66766435  0.41851236  1
  Zn  Zn158  1  0.43537702  0.68451049  0.93652986  1
  Zn  Zn159  1  0.93685729  0.18825584  0.43441771  1
  Zn  Zn160  1  0.93505870  0.18667695  0.93221270  1
  Zn  Zn161  1  0.93810681  0.68877847  0.44182866  1
  Zn  Zn162  1  0.93450728  0.68874999  0.91546254  1
  Zn  Zn163  1  0.06580423  0.32053175  0.06036099  1
  Zn  Zn164  1  0.06232310  0.31463540  0.56103630  1
  Zn  Zn165  1  0.06714644  0.82647008  0.06010740  1
  Zn  Zn166  1  0.06550838  0.81112370  0.56024896  1
  Zn  Zn167  1  0.56766068  0.31124479  0.06396183  1
  Zn  Zn168  1  0.56036707  0.30843379  0.56489109  1
  Zn  Zn169  1  0.56443372  0.80982578  0.06457751  1
  Zn  Zn170  1  0.56092347  0.81362578  0.56569538  1
  O  O171  1  0.11863962  0.12040466  0.13259576  1
  O  O172  1  0.11933646  0.11661897  0.61892256  1
  O  O173  1  0.11460346  0.61140986  0.14733048  1
  O  O174  1  0.11895238  0.61221437  0.63137783  1
  O  O175  1  0.63259296  0.12248341  0.11687210  1
  O  O176  1  0.61277346  0.12587773  0.62618846  1
  O  O177  1  0.61689782  0.61382604  0.13437495  1
  O  O178  1  0.61136571  0.63170369  0.61649909  1
  O  O179  1  0.37985658  0.37529438  0.38386286  1
  O  O180  1  0.38638167  0.38722996  0.87261048  1
  O  O181  1  0.38124289  0.88733669  0.37834536  1
  O  O182  1  0.36557373  0.89945695  0.87645778  1
  O  O183  1  0.87615921  0.38263058  0.38782439  1
  O  O184  1  0.87793825  0.37723134  0.87635052  1
  O  O185  1  0.88092173  0.88444403  0.38137255  1
  O  O186  1  0.87758711  0.87503158  0.88726651  1
  O  O187  1  0.26015453  0.00128367  0.37425552  1
  O  O188  1  0.24031983  -0.00259092  0.86030049  1
  O  O189  1  0.25791767  0.50689794  0.37144174  1
  O  O190  1  0.25861318  0.50714582  0.87755294  1
  O  O191  1  0.75683598  0.00534029  0.36893050  1
  O  O192  1  0.75067151  0.00660465  0.86582647  1
  O  O193  1  0.76043082  0.49966163  0.37946512  1
  O  O194  1  0.74861772  0.50708624  0.86656112  1
  O  O195  1  0.25400051  0.49475773  0.13535167  1
  O  O196  1  0.24156301  0.49645449  0.62589865  1
  O  O197  1  0.25292557  0.98821554  0.12722754  1
  O  O198  1  0.24469472  0.99226522  0.63179923  1
  O  O199  1  0.74804368  0.49852804  0.13030449  1
  O  O200  1  0.75372490  0.49206903  0.63076798  1
  O  O201  1  0.75609086  0.99142124  0.13280179  1
  O  O202  1  0.75132874  0.98811806  0.63020727  1
  O  O203  1  0.00495396  0.37046826  0.25325886  1
  O  O204  1  0.00450140  0.36881798  0.75124398  1
  O  O205  1  0.00385123  0.86884464  0.25586567  1
  O  O206  1  -0.00586459  0.87269715  0.76232830  1
  O  O207  1  0.50627255  0.36955418  0.25870649  1
  O  O208  1  0.50096695  0.36648749  0.75857273  1
  O  O209  1  0.50139311  0.86728290  0.25656570  1
  O  O210  1  0.50698772  0.86508074  0.74352001  1
  O  O211  1  0.49315360  0.13485661  0.25774286  1
  O  O212  1  0.49624525  0.13190822  0.74291707  1
  O  O213  1  0.48860057  0.62930423  0.24192144  1
  O  O214  1  0.49847937  0.63453219  0.74300182  1
  O  O215  1  0.98494338  0.12605986  0.25620779  1
  O  O216  1  0.99219643  0.12851189  0.74309805  1
  O  O217  1  0.98492043  0.64426895  0.25608462  1
  O  O218  1  0.99363235  0.63917276  0.73520696  1
  O  O219  1  0.38139562  0.24727414  -0.00016154  1
  O  O220  1  0.37686268  0.25891399  0.50735285  1
  O  O221  1  0.37418746  0.74847904  0.01165240  1
  O  O222  1  0.36831905  0.75646703  0.51079821  1
  O  O223  1  0.86948361  0.25346594  0.00293566  1
  O  O224  1  0.87157129  0.25876812  0.50482411  1
  O  O225  1  0.87006563  0.75382395  0.00361000  1
  O  O226  1  0.86707192  0.75731270  0.50985797  1
  O  O227  1  0.12525923  0.24057272  0.49713905  1
  O  O228  1  0.11625510  0.24964690  0.98128023  1
  O  O229  1  0.13449597  0.75216513  0.48780806  1
  O  O230  1  0.13506846  0.75078274  1.00369715  1
  O  O231  1  0.63695028  0.25396963  0.49979805  1
  O  O232  1  0.63328859  0.23497504  1.00515080  1
  O  O233  1  0.63856563  0.75418445  0.50377745  1
  O  O234  1  0.63126840  0.75390451  0.98650950  1
  O  O235  1  0.50015505  0.25821737  0.14077085  1
  O  O236  1  0.49310706  0.24325331  0.63221452  1
  O  O237  1  0.49465390  0.74319852  0.13149503  1
  O  O238  1  0.49163812  0.74329978  0.63163017  1
  O  O239  1  0.98887189  0.25508167  0.12130065  1
  O  O240  1  0.99396949  0.24461290  0.62866469  1
  O  O241  1  0.99534815  0.76232858  0.13230977  1
  O  O242  1  0.99226728  0.74764624  0.62458945  1
  O  O243  1  0.01026227  0.25244933  0.37491833  1
  O  O244  1  0.00177647  0.25988225  0.86500891  1
  O  O245  1  0.00906837  0.75590690  0.37189977  1
  O  O246  1  -0.00339410  0.76330394  0.86085965  1
  O  O247  1  0.49670010  0.26068398  0.36804012  1
  O  O248  1  0.49481431  0.26094100  0.86807093  1
  O  O249  1  0.47995148  0.76504770  0.36119244  1
  O  O250  1  0.50693544  0.74414889  0.86668677  1
  O  O251  1  0.23728175  0.12400296  0.50276929  1
  O  O252  1  0.23775660  0.12206733  0.99759885  1
  O  O253  1  0.25712594  0.62813012  0.48478727  1
  O  O254  1  0.25132178  0.64057790  0.99431720  1
  O  O255  1  0.75424856  0.13492178  0.49110553  1
  O  O256  1  0.74153424  0.12693341  0.99304846  1
  O  O257  1  0.74752898  0.64234521  0.50390972  1
  O  O258  1  0.75537602  0.63770433  0.98921889  1
  O  O259  1  0.25079350  0.36761805  0.00632785  1
  O  O260  1  0.25920917  0.37441019  0.50693181  1
  O  O261  1  0.24645558  0.86365870  0.00859773  1
  O  O262  1  0.25592888  0.86969285  0.51159163  1
  O  O263  1  0.75775448  0.36406323  -0.00422787  1
  O  O264  1  0.75613178  0.36892141  0.50570653  1
  O  O265  1  0.75508264  0.86871201  0.00232175  1
  O  O266  1  0.75260526  0.87088276  0.50723700  1
  O  O267  1  0.14595635  0.49039934  0.26473665  1
  O  O268  1  0.12394469  0.48816210  0.74853089  1
  O  O269  1  0.12663910  0.98597587  0.25477819  1
  O  O270  1  0.13470091  1.00366054  0.73997230  1
  O  O271  1  0.62735782  0.48816767  0.24264607  1
  O  O272  1  0.63366310  0.50148346  0.75079366  1
  O  O273  1  0.63867581  0.99921521  0.25379609  1
  O  O274  1  0.63450106  0.99276714  0.75256183  1
  O  O275  1  0.37855357  0.00847179  0.25983997  1
  O  O276  1  0.36340983  0.00177675  0.75865259  1
  O  O277  1  0.36718597  0.50492863  0.25470844  1
  O  O278  1  0.37280394  0.50149272  0.76458743  1
  O  O279  1  0.86731130  0.00551070  0.25418756  1
  O  O280  1  0.86046537  0.00585664  0.74925346  1
  O  O281  1  0.87394118  0.51237586  0.26479804  1
  O  O282  1  0.85927958  0.49914310  0.75731055  1
  O  O283  1  0.12273737  0.36257441  0.38233211  1
  O  O284  1  0.11454287  0.36884116  0.86718603  1
  O  O285  1  0.12367458  0.86545767  0.36959155  1
  O  O286  1  0.10985414  0.87568187  0.87761131  1
  O  O287  1  0.61578835  0.37803212  0.36649119  1
  O  O288  1  0.60624098  0.38029458  0.87249775  1
  O  O289  1  0.61102241  0.87664269  0.37190316  1
  O  O290  1  0.63178205  0.86511014  0.86075830  1
  O  O291  1  0.37617491  0.12360079  0.13365331  1
  O  O292  1  0.37890427  0.13790761  0.62496775  1
  O  O293  1  0.38024810  0.62985646  0.13065498  1
  O  O294  1  0.37727848  0.63641189  0.62944228  1
  O  O295  1  0.87078895  0.13307303  0.13315171  1
  O  O296  1  0.87859484  0.12932353  0.62947183  1
  O  O297  1  0.86718446  0.64332999  0.13648325  1
  O  O298  1  0.88052460  0.63549459  0.62545416  1
  O  O299  1  0.25489600  0.26054621  0.12546293  1
  O  O300  1  0.25723514  0.25646349  0.62391552  1
  O  O301  1  0.25632581  0.75452647  0.11394416  1
  O  O302  1  0.25447321  0.75446591  0.62306313  1
  O  O303  1  0.76088736  0.25088043  0.11122532  1
  O  O304  1  0.75503447  0.25761740  0.61756200  1
  O  O305  1  0.74349230  0.75723885  0.11260512  1
  O  O306  1  0.75573241  0.76177079  0.62123603  1
  O  O307  1  0.24166433  0.24654860  0.38085355  1
  O  O308  1  0.23453767  0.25673942  0.86934669  1
  O  O309  1  0.24784942  0.74360157  0.37759095  1
  O  O310  1  0.25752448  0.74681730  0.88992286  1
  O  O311  1  0.75682934  0.24023899  0.38472669  1
  O  O312  1  0.75331756  0.24110423  0.88671866  1
  O  O313  1  0.75215034  0.75947676  0.39157735  1
  O  O314  1  0.74307135  0.74290402  0.87825001  1
  O  O315  1  -0.00059672  0.10953564  -0.00851825  1
  O  O316  1  0.00825542  0.11947968  0.50562311  1
  O  O317  1  -0.01775920  0.64635410  0.01388693  1
  O  O318  1  -0.00228124  0.61938843  0.51424497  1
  O  O319  1  0.51829574  0.11482796  0.00044928  1
  O  O320  1  0.49741557  0.11462516  0.51002248  1
  O  O321  1  0.49867151  0.62441667  0.01474720  1
  O  O322  1  0.48547382  0.60839395  0.51519286  1
  O  O323  1  0.49464725  0.37713597  0.49675445  1
  O  O324  1  0.50335607  0.37450408  0.98917585  1
  O  O325  1  0.49401723  0.87873170  0.49488547  1
  O  O326  1  0.51123067  0.88917547  1.00239933  1
  O  O327  1  0.98952312  0.38511840  0.50416817  1
  O  O328  1  0.98557361  0.36961129  0.98765102  1
  O  O329  1  0.99535406  0.88033300  0.49453439  1
  O  O330  1  0.99226255  0.87951490  0.98852989  1
  O  O331  1  0.49141587  0.48432359  0.38343151  1
  O  O332  1  0.49068577  0.49363799  0.88036614  1
  O  O333  1  0.49437735  0.99304065  0.38405199  1
  O  O334  1  0.49918885  0.99344575  0.87628533  1
  O  O335  1  0.98983704  0.49947123  0.39182546  1
  O  O336  1  0.98271678  0.48427198  0.85874392  1
  O  O337  1  0.99581757  0.99545760  0.38105139  1
  O  O338  1  0.99601630  0.98890972  0.87992241  1
  O  O339  1  -0.00324403  -0.00974973  0.10814460  1
  O  O340  1  0.00776388  0.00253524  0.62200537  1
  O  O341  1  -0.03864073  0.51108377  0.11038962  1
  O  O342  1  0.00378780  0.50841859  0.62102697  1
  O  O343  1  0.50202252  -0.00468780  0.11751123  1
  O  O344  1  0.49114672  0.00928098  0.61801238  1
  O  O345  1  0.50807015  0.50591504  0.12499667  1
  O  O346  1  0.49393149  0.50688326  0.62045510  1
  O  O347  1  0.25244075  0.38569773  0.24925937  1
  O  O348  1  0.24119119  0.37840111  0.74331170  1
  O  O349  1  0.24352095  0.87317467  0.24278424  1
  O  O350  1  0.25231834  0.88361427  0.73869102  1
  O  O351  1  0.74303168  0.37638858  0.25193132  1
  O  O352  1  0.74491058  0.38228662  0.74106219  1
  O  O353  1  0.74979539  0.88379290  0.24036463  1
  O  O354  1  0.74434869  0.88245435  0.74330988  1
  O  O355  1  0.26494286  0.12212698  0.25429196  1
  O  O356  1  0.25289327  0.11035561  0.74337100  1
  O  O357  1  0.26045930  0.61607014  0.25462702  1
  O  O358  1  0.25731993  0.62383307  0.76031560  1
  O  O359  1  0.75902712  0.11978478  0.25631086  1
  O  O360  1  0.74906474  0.11952921  0.75383209  1
  O  O361  1  0.76102561  0.62836533  0.25492282  1
  O  O362  1  0.74946148  0.62042504  0.75319146  1
  O  O363  1  0.37625525  0.11336126  0.37613426  1
  O  O364  1  0.37970976  0.10372645  0.87369986  1
  O  O365  1  0.37250791  0.61799326  0.36523105  1
  O  O366  1  0.36910915  0.61347287  0.87491434  1
  O  O367  1  0.86855709  0.11836757  0.36898150  1
  O  O368  1  0.86305551  0.12278693  0.86560683  1
  O  O369  1  0.87731772  0.61858158  0.37455764  1
  O  O370  1  0.86197621  0.61547695  0.86785112  1
  O  O371  1  0.14319388  0.37616038  0.12381188  1
  O  O372  1  0.12726391  0.38462050  0.63159349  1
  O  O373  1  0.13506509  0.88104107  0.13444369  1
  O  O374  1  0.13264420  0.88740575  0.61745135  1
  O  O375  1  0.63055400  0.38281511  0.13254091  1
  O  O376  1  0.63591167  0.37291283  0.62586268  1
  O  O377  1  0.63846097  0.87357169  0.12672792  1
  O  O378  1  0.63250037  0.86893129  0.63910886  1
  O  O379  1  0.12597737  0.25265191  0.26156093  1
  O  O380  1  0.11938957  0.26065112  0.75328685  1
  O  O381  1  0.11768120  0.76081007  0.25405626  1
  O  O382  1  0.11184072  0.75791077  0.73409522  1
  O  O383  1  0.62082955  0.26159654  0.24563278  1
  O  O384  1  0.61199721  0.25255391  0.74710506  1
  O  O385  1  0.61088890  0.75022429  0.24748307  1
  O  O386  1  0.61723990  0.75598592  0.75832949  1
  O  O387  1  0.38489906  0.23937529  0.24831670  1
  O  O388  1  0.38292312  0.24850307  0.74385343  1
  O  O389  1  0.37889731  0.74016154  0.23868158  1
  O  O390  1  0.38248016  0.75262178  0.74562740  1
  O  O391  1  0.87525195  0.24227873  0.23924212  1
  O  O392  1  0.87631170  0.24500122  0.74148261  1
  O  O393  1  0.88287699  0.74832509  0.25983775  1
  O  O394  1  0.87825840  0.75421750  0.73627485  1
  O  O395  1  0.38133467  0.48575792  0.49817873  1
  O  O396  1  0.37658522  0.50272745  0.98791625  1
  O  O397  1  0.38034957  0.99335103  0.49485732  1
  O  O398  1  0.39707620  1.00392412  0.99310393  1
  O  O399  1  0.87941237  0.49474707  0.49878964  1
  O  O400  1  0.86111519  0.48642042  0.97929153  1
  O  O401  1  0.88052407  0.99595174  0.49567542  1
  O  O402  1  0.88339062  0.99366545  0.99628256  1
  O  O403  1  0.10837881  -0.00262500  0.00220920  1
  O  O404  1  0.12049352  0.00657679  0.50579605  1
  O  O405  1  0.10550428  0.50875440  -0.02684638  1
  O  O406  1  0.11515161  0.49574467  0.51107107  1
  O  O407  1  0.61859959  0.00973040  -0.00067174  1
  O  O408  1  0.61203830  -0.00728845  0.50155730  1
  O  O409  1  0.62481602  0.49680996  0.01448446  1
  O  O410  1  0.61185826  0.49896234  0.49928527  1
  O  O411  1  0.35749984  0.37489786  0.12877039  1
  O  O412  1  0.37261398  0.36489274  0.62017796  1
  O  O413  1  0.36518505  0.86388944  0.13205375  1
  O  O414  1  0.36760702  0.86463075  0.62308714  1
  O  O415  1  0.87149321  0.36664789  0.11338567  1
  O  O416  1  0.86610257  0.37232778  0.61594913  1
  O  O417  1  0.86425544  0.87364673  0.10969983  1
  O  O418  1  0.86720814  0.87103578  0.61880602  1
  O  O419  1  0.12642280  0.13291575  0.38414652  1
  O  O420  1  0.11613439  0.14382634  0.86548276  1
  O  O421  1  0.13667802  0.63800801  0.35787320  1
  O  O422  1  0.14186310  0.63587281  0.86178751  1
  O  O423  1  0.63946467  0.12137878  0.37189996  1
  O  O424  1  0.63522865  0.12328277  0.87902504  1
  O  O425  1  0.58211086  0.63156852  0.38753730  1
  O  O426  1  0.63404527  0.63331554  0.87100012  1
