# generated using pymatgen
data_V85Zn86O256
_symmetry_space_group_name_H-M   'P 1'
_cell_length_a   16.95129472
_cell_length_b   16.94985221
_cell_length_c   16.95230570
_cell_angle_alpha   89.92731468
_cell_angle_beta   90.06929786
_cell_angle_gamma   90.08714550
_symmetry_Int_Tables_number   1
_chemical_formula_structural   V85Zn86O256
_chemical_formula_sum   'V85 Zn86 O256'
_cell_volume   4870.75626168
_cell_formula_units_Z   1
loop_
 _symmetry_equiv_pos_site_id
 _symmetry_equiv_pos_as_xyz
  1  'x, y, z'
loop_
 _atom_site_type_symbol
 _atom_site_label
 _atom_site_symmetry_multiplicity
 _atom_site_fract_x
 _atom_site_fract_y
 _atom_site_fract_z
 _atom_site_occupancy
  V  V0  1  0.12748940  0.37739267  0.75330510  1
  V  V1  1  0.24792857  0.49892502  0.26760584  1
  V  V2  1  0.25634240  0.37463639  0.63158690  1
  V  V3  1  0.49498822  0.11945162  0.61323564  1
  V  V4  1  0.87526693  0.00441188  0.86989297  1
  V  V5  1  0.62359230  0.61418338  0.00199530  1
  V  V6  1  0.61768013  0.87293595  0.74876260  1
  V  V7  1  0.25127204  0.24534231  0.01074577  1
  V  V8  1  0.51279327  0.38481451  0.37060980  1
  V  V9  1  0.87677058  0.61385998  0.25650665  1
  V  V10  1  0.73138867  0.38526609  0.11925907  1
  V  V11  1  0.75276771  0.75064384  0.49890351  1
  V  V12  1  0.37683579  -0.00239152  0.87687127  1
  V  V13  1  -0.00067766  0.87459999  0.87379891  1
  V  V14  1  0.62180596  0.12772297  0.49214881  1
  V  V15  1  0.13955307  0.75022023  0.38017318  1
  V  V16  1  0.87456372  0.87674946  0.49930402  1
  V  V17  1  0.62919185  0.50309802  0.63895217  1
  V  V18  1  0.00387962  0.00156558  -0.00079077  1
  V  V19  1  0.38406895  0.12903194  0.75172429  1
  V  V20  1  0.74843038  0.12620233  0.87402330  1
  V  V21  1  0.37622839  0.87179981  0.00082929  1
  V  V22  1  0.87641939  0.87327353  -0.00001089  1
  V  V23  1  0.25011766  0.87421285  0.12429425  1
  V  V24  1  0.62423476  0.36671068  0.74924102  1
  V  V25  1  0.12763536  0.00564764  0.12293284  1
  V  V26  1  0.75158165  0.62137420  0.86659457  1
  V  V27  1  0.14105030  0.62833676  0.49817864  1
  V  V28  1  0.74708796  0.00009424  0.23881253  1
  V  V29  1  0.49896436  0.63288737  0.63853505  1
  V  V30  1  -0.00626650  0.49615315  0.49341138  1
  V  V31  1  0.26591488  0.00622447  0.25448153  1
  V  V32  1  0.12561337  0.01020235  0.62605339  1
  V  V33  1  0.12447752  0.61875673  0.00223249  1
  V  V34  1  0.87533917  0.12690948  0.24377877  1
  V  V35  1  0.75832074  0.61637384  0.37903137  1
  V  V36  1  0.75051503  0.74623227  -0.00150526  1
  V  V37  1  0.61050009  0.24535234  0.87580380  1
  V  V38  1  0.49875589  0.86932615  0.87439861  1
  V  V39  1  0.37047904  0.62322118  0.27047976  1
  V  V40  1  0.12870189  0.25789135  0.37225910  1
  V  V41  1  -0.00278781  0.75027909  0.74830810  1
  V  V42  1  0.13317561  0.50129671  0.62761750  1
  V  V43  1  0.12726316  0.24673944  0.87822741  1
  V  V44  1  0.24845276  0.12365218  0.88101221  1
  V  V45  1  0.24814951  0.87359363  0.61360888  1
  V  V46  1  0.00861735  0.26115939  0.24545012  1
  V  V47  1  0.62605555  0.62740953  0.50302922  1
  V  V48  1  0.87787394  0.00496054  0.37395160  1
  V  V49  1  0.37452403  0.37239069  0.00441504  1
  V  V50  1  0.24662723  0.37958209  0.13030012  1
  V  V51  1  0.49434214  0.26603843  0.24044790  1
  V  V52  1  0.51223400  -0.00270057  0.00602648  1
  V  V53  1  0.74981559  0.00183093  0.74671713  1
  V  V54  1  0.00124002  0.62236907  0.62412071  1
  V  V55  1  0.62585355  0.87204024  0.23971031  1
  V  V56  1  0.00235281  0.74949896  0.25213835  1
  V  V57  1  0.74966501  0.87646099  0.62400879  1
  V  V58  1  0.37684114  0.37927902  0.49110518  1
  V  V59  1  0.86983680  0.74812532  0.12783135  1
  V  V60  1  0.49476459  0.12145600  0.13447211  1
  V  V61  1  0.00217389  -0.00284772  0.50526468  1
  V  V62  1  0.62025866  0.74610393  0.87058082  1
  V  V63  1  0.38992129  0.25515592  0.62883460  1
  V  V64  1  0.24887736  0.74743495  -0.00049835  1
  V  V65  1  0.12613977  0.87671609  0.24971308  1
  V  V66  1  0.24644336  0.61721584  0.86738050  1
  V  V67  1  0.74686068  0.13164613  0.37172404  1
  V  V68  1  0.25178794  -0.00283771  0.75015399  1
  V  V69  1  0.00121413  0.87496482  0.37433757  1
  V  V70  1  0.86891929  0.25959969  0.11589997  1
  V  V71  1  0.62640811  0.75057422  0.37275091  1
  V  V72  1  -0.00526702  0.48948967  -0.00023105  1
  V  V73  1  0.12276515  0.74838354  0.87539547  1
  V  V74  1  -0.00049145  0.62387827  0.12515766  1
  V  V75  1  0.62130845  -0.00200995  0.61407279  1
  V  V76  1  -0.00781254  0.23775478  0.75134520  1
  V  V77  1  0.37194171  0.49594223  0.86748661  1
  V  V78  1  0.49735320  0.50640625  0.49852980  1
  V  V79  1  0.37093135  0.75232823  0.62824681  1
  V  V80  1  0.50035388  0.88034524  0.37966749  1
  V  V81  1  0.00349151  0.12755336  0.11856094  1
  V  V82  1  -0.04541814  0.17082256  0.57862336  1
  V  V83  1  0.86968511  0.48795500  0.87087331  1
  V  V84  1  0.49381904  0.61794943  0.12343080  1
  Zn  Zn85  1  0.77564088  0.34498368  0.60566969  1
  Zn  Zn86  1  0.62737894  0.12346391  0.00701055  1
  Zn  Zn87  1  0.49589796  0.37194793  0.87340311  1
  Zn  Zn88  1  0.49669791  0.74756573  0.24831279  1
  Zn  Zn89  1  0.40666334  0.03165594  0.40728589  1
  Zn  Zn90  1  0.12171197  0.49413012  0.13424364  1
  Zn  Zn91  1  0.37251091  0.74428703  0.12647611  1
  Zn  Zn92  1  -0.00499403  0.36857398  0.87730173  1
  Zn  Zn93  1  0.37502711  0.87432656  0.49757723  1
  Zn  Zn94  1  0.75153618  0.25596085  -0.00826041  1
  Zn  Zn95  1  0.73365545  0.48817932  0.25379808  1
  Zn  Zn96  1  0.37245750  0.62682395  0.75311453  1
  Zn  Zn97  1  0.74631609  0.87741843  0.12007866  1
  Zn  Zn98  1  -0.00926784  0.38480220  0.36903002  1
  Zn  Zn99  1  0.87427005  0.62065769  0.74943824  1
  Zn  Zn100  1  0.12939758  0.12759607  0.49477259  1
  Zn  Zn101  1  0.25817942  0.13000681  0.37460197  1
  Zn  Zn102  1  0.12417459  0.87565847  0.74874244  1
  Zn  Zn103  1  0.50199540  0.49198914  0.00298476  1
  Zn  Zn104  1  0.25239604  0.24837207  0.50222597  1
  Zn  Zn105  1  0.62738225  0.26004085  0.36697036  1
  Zn  Zn106  1  0.87416151  0.74473156  0.62377171  1
  Zn  Zn107  1  0.18823303  0.18579654  0.19009588  1
  Zn  Zn108  1  0.19421646  0.19030665  0.69106058  1
  Zn  Zn109  1  0.19039787  0.68360674  0.19061085  1
  Zn  Zn110  1  0.18583957  0.69091377  0.68749585  1
  Zn  Zn111  1  0.67833989  0.19130353  0.18519275  1
  Zn  Zn112  1  0.67519391  0.18437236  0.69324318  1
  Zn  Zn113  1  0.67361711  0.65533791  0.20224026  1
  Zn  Zn114  1  0.68840208  0.68913377  0.68753196  1
  Zn  Zn115  1  0.31819140  0.31372212  0.31017212  1
  Zn  Zn116  1  0.31280763  0.30999563  0.81329492  1
  Zn  Zn117  1  0.31607551  0.81523312  0.30847244  1
  Zn  Zn118  1  0.31224329  0.80869767  0.80941660  1
  Zn  Zn119  1  0.81060824  0.31814908  0.30046275  1
  Zn  Zn120  1  0.80471303  0.31063131  0.79913455  1
  Zn  Zn121  1  0.81241480  0.81084427  0.31019560  1
  Zn  Zn122  1  0.81132266  0.81256973  0.81135491  1
  Zn  Zn123  1  0.18272289  0.43274092  0.44314271  1
  Zn  Zn124  1  0.18799024  0.43488760  0.94037484  1
  Zn  Zn125  1  0.18807461  0.94056086  0.43519083  1
  Zn  Zn126  1  0.18629474  0.93657980  0.93837480  1
  Zn  Zn127  1  0.69211575  0.44313229  0.44590638  1
  Zn  Zn128  1  0.69021109  0.43116022  0.93608613  1
  Zn  Zn129  1  0.68927081  0.94226352  0.43017158  1
  Zn  Zn130  1  0.68984198  0.93300515  0.93509718  1
  Zn  Zn131  1  0.31805613  0.06079054  0.06429417  1
  Zn  Zn132  1  0.31206178  0.06215069  0.55775606  1
  Zn  Zn133  1  0.31237091  0.55628070  0.06106060  1
  Zn  Zn134  1  0.31546526  0.56118207  0.56649041  1
  Zn  Zn135  1  0.81537145  0.06439512  0.05738643  1
  Zn  Zn136  1  0.79433561  0.16144076  0.57049985  1
  Zn  Zn137  1  0.81295809  0.55961605  0.05841344  1
  Zn  Zn138  1  0.83537794  0.52013808  0.59103809  1
  Zn  Zn139  1  0.42956588  0.44326968  0.18681349  1
  Zn  Zn140  1  0.44476554  0.44057978  0.69049210  1
  Zn  Zn141  1  0.44208378  0.93315612  0.18615575  1
  Zn  Zn142  1  0.43648337  0.93798876  0.68495437  1
  Zn  Zn143  1  0.93254313  0.43835014  0.18541356  1
  Zn  Zn144  1  0.94493386  0.42931519  0.69143251  1
  Zn  Zn145  1  0.93793205  0.93794293  0.18589774  1
  Zn  Zn146  1  0.93552262  0.94000072  0.68559089  1
  Zn  Zn147  1  0.06688483  0.07039449  0.31111510  1
  Zn  Zn148  1  0.06627859  0.06292191  0.81293399  1
  Zn  Zn149  1  0.06942787  0.56607382  0.31616403  1
  Zn  Zn150  1  0.05868001  0.55857199  0.81301171  1
  Zn  Zn151  1  0.56559219  0.06111388  0.30072585  1
  Zn  Zn152  1  0.56204288  0.05859685  0.81263304  1
  Zn  Zn153  1  0.56032159  0.56358427  0.31315055  1
  Zn  Zn154  1  0.55816295  0.55741657  0.81800981  1
  Zn  Zn155  1  0.43746192  0.20217876  0.43242268  1
  Zn  Zn156  1  0.43386480  0.18272828  0.94802360  1
  Zn  Zn157  1  0.43890806  0.69566181  0.44407017  1
  Zn  Zn158  1  0.43614583  0.68367588  0.93728920  1
  Zn  Zn159  1  0.90978973  0.23357821  0.40754894  1
  Zn  Zn160  1  0.93712023  0.18477406  0.93579408  1
  Zn  Zn161  1  0.94406096  0.68606267  0.44025628  1
  Zn  Zn162  1  0.93631961  0.68179900  0.93736438  1
  Zn  Zn163  1  0.06808791  0.31073750  0.06152939  1
  Zn  Zn164  1  0.06823128  0.31761491  0.55929534  1
  Zn  Zn165  1  0.06239082  0.81112055  0.06336396  1
  Zn  Zn166  1  0.06677520  0.81208645  0.56374952  1
  Zn  Zn167  1  0.56099908  0.30559675  0.05936496  1
  Zn  Zn168  1  0.59880994  0.33139147  0.54172569  1
  Zn  Zn169  1  0.56048430  0.80006222  0.06173060  1
  Zn  Zn170  1  0.56063433  0.80949541  0.56188614  1
  O  O171  1  0.11623346  0.11702840  0.12745374  1
  O  O172  1  0.13244143  0.11260866  0.62721307  1
  O  O173  1  0.11782990  0.62400895  0.11713100  1
  O  O174  1  0.12244176  0.61890031  0.62134310  1
  O  O175  1  0.60597048  0.12851647  0.12053619  1
  O  O176  1  0.61467422  0.11668112  0.61623995  1
  O  O177  1  0.61284234  0.63747269  0.10676980  1
  O  O178  1  0.61361044  0.62429782  0.62540458  1
  O  O179  1  0.38303497  0.37541017  0.38895537  1
  O  O180  1  0.37231035  0.38084853  0.88028729  1
  O  O181  1  0.39570421  0.86531036  0.37445066  1
  O  O182  1  0.37969678  0.87670919  0.87974201  1
  O  O183  1  0.88529086  0.34126535  0.37806400  1
  O  O184  1  0.87221413  0.38440416  0.87021919  1
  O  O185  1  0.88172425  0.88057778  0.37909672  1
  O  O186  1  0.87962645  0.88260913  0.87997055  1
  O  O187  1  0.24791695  -0.00073203  0.35772170  1
  O  O188  1  0.25425547  0.00507404  0.87080263  1
  O  O189  1  0.24648029  0.49266133  0.36636726  1
  O  O190  1  0.25565731  0.50764050  0.88072366  1
  O  O191  1  0.75995525  0.00847942  0.36090004  1
  O  O192  1  0.75700450  0.00160299  0.86814724  1
  O  O193  1  0.74828919  0.51285938  0.37490475  1
  O  O194  1  0.76291102  0.50520508  0.87996899  1
  O  O195  1  0.24543124  0.49205451  0.13053450  1
  O  O196  1  0.24053090  0.49368032  0.62631264  1
  O  O197  1  0.24483936  0.99538131  0.13041253  1
  O  O198  1  0.24410630  0.99366654  0.63403629  1
  O  O199  1  0.75177639  0.48747681  0.12168254  1
  O  O200  1  0.72570170  0.51968435  0.62366107  1
  O  O201  1  0.76093021  0.99681502  0.13491428  1
  O  O202  1  0.73736387  0.99220979  0.63471527  1
  O  O203  1  -0.00240006  0.36451264  0.24596003  1
  O  O204  1  0.01340104  0.36110601  0.75280900  1
  O  O205  1  0.00672525  0.87054774  0.25362719  1
  O  O206  1  -0.00050807  0.86744444  0.75542393  1
  O  O207  1  0.49489791  0.37445580  0.25363783  1
  O  O208  1  0.51487458  0.38206998  0.75844474  1
  O  O209  1  0.50976269  0.86847297  0.25586034  1
  O  O210  1  0.51172769  0.87915169  0.75497327  1
  O  O211  1  0.49461759  0.12370534  0.23740381  1
  O  O212  1  0.48751675  0.11612883  0.74240740  1
  O  O213  1  0.48225644  0.62496322  0.24422448  1
  O  O214  1  0.49895478  0.62367148  0.74052776  1
  O  O215  1  0.99291965  0.12983676  0.23634896  1
  O  O216  1  1.00484441  0.13823322  0.75300463  1
  O  O217  1  0.99490074  0.62911681  0.24665904  1
  O  O218  1  1.00352329  0.63235514  0.73993277  1
  O  O219  1  0.36270688  0.26155311  -0.00744752  1
  O  O220  1  0.37676655  0.26488057  0.51154190  1
  O  O221  1  0.36621888  0.75699474  -0.00200029  1
  O  O222  1  0.38069616  0.75802592  0.51930704  1
  O  O223  1  0.87247776  0.24250686  0.01256283  1
  O  O224  1  0.88962654  0.22552454  0.52050214  1
  O  O225  1  0.87191757  0.75183781  0.00687375  1
  O  O226  1  0.87347703  0.76206050  0.49970801  1
  O  O227  1  0.12579068  0.24933312  0.48682102  1
  O  O228  1  0.13395022  0.25182491  0.98583157  1
  O  O229  1  0.12226948  0.74049629  0.49299026  1
  O  O230  1  0.12637879  0.73837024  0.99484865  1
  O  O231  1  0.61289583  0.23000828  0.48782292  1
  O  O232  1  0.63016784  0.24532378  0.98825425  1
  O  O233  1  0.63246255  0.74684373  0.49455069  1
  O  O234  1  0.63219339  0.74451837  0.98625455  1
  O  O235  1  0.49862096  0.24442297  0.13547207  1
  O  O236  1  0.49067522  0.23797978  0.62457670  1
  O  O237  1  0.49341270  0.73612064  0.12809336  1
  O  O238  1  0.49596974  0.73885189  0.62641629  1
  O  O239  1  0.99525148  0.24429323  0.12546687  1
  O  O240  1  1.00891439  0.24417339  0.63428338  1
  O  O241  1  0.99181656  0.74321322  0.12956211  1
  O  O242  1  0.99968039  0.74294854  0.63231934  1
  O  O243  1  0.01515116  0.24166057  0.35747075  1
  O  O244  1  0.00818802  0.24824324  0.86895698  1
  O  O245  1  0.00757063  0.75702936  0.36884701  1
  O  O246  1  0.00298748  0.75214933  0.86843486  1
  O  O247  1  0.50436355  0.26988135  0.36670937  1
  O  O248  1  0.50791591  0.24465211  0.87993801  1
  O  O249  1  0.51428082  0.75602360  0.37367766  1
  O  O250  1  0.50940655  0.75491341  0.87910830  1
  O  O251  1  0.24656199  0.13093373  0.49689425  1
  O  O252  1  0.25789070  0.13109061  0.99169066  1
  O  O253  1  0.24009452  0.62347428  0.50716648  1
  O  O254  1  0.24006933  0.62753847  0.99367238  1
  O  O255  1  0.73721922  0.11906058  0.48369577  1
  O  O256  1  0.74635624  0.12118311  0.98532245  1
  O  O257  1  0.74740667  0.63720419  0.49181051  1
  O  O258  1  0.74228263  0.62868128  0.99131746  1
  O  O259  1  0.25430511  0.36568468  0.00729698  1
  O  O260  1  0.26072404  0.37678484  0.51310029  1
  O  O261  1  0.25534074  0.86940173  0.00499707  1
  O  O262  1  0.24730552  0.87689727  0.51127132  1
  O  O263  1  0.75034478  0.37122407  0.01302773  1
  O  O264  1  0.70880832  0.36010069  0.51510520  1
  O  O265  1  0.75738329  0.86561045  0.00069184  1
  O  O266  1  0.75766798  0.87281283  0.50101944  1
  O  O267  1  0.14273189  0.50915324  0.24950462  1
  O  O268  1  0.11890366  0.48702333  0.74331599  1
  O  O269  1  0.12692784  0.99424178  0.23787564  1
  O  O270  1  0.13320754  0.99811335  0.74421456  1
  O  O271  1  0.64106526  0.54908089  0.24021689  1
  O  O272  1  0.62271292  0.49701766  0.74382196  1
  O  O273  1  0.63709539  0.98694036  0.24853003  1
  O  O274  1  0.63055123  0.99047992  0.74404345  1
  O  O275  1  0.36442142  -0.00682922  0.24830803  1
  O  O276  1  0.36854028  0.00437710  0.75726688  1
  O  O277  1  0.36293598  0.51468637  0.25220264  1
  O  O278  1  0.37572150  0.50267945  0.76333520  1
  O  O279  1  0.87419790  0.01115530  0.25319421  1
  O  O280  1  0.86353109  -0.00856931  0.75881013  1
  O  O281  1  0.86919356  0.51200214  0.24844330  1
  O  O282  1  0.88657396  0.50346965  0.76905843  1
  O  O283  1  0.11512248  0.36189798  0.37875541  1
  O  O284  1  0.12619151  0.36659572  0.86765323  1
  O  O285  1  0.11858245  0.87119490  0.36970830  1
  O  O286  1  0.11651893  0.86827727  0.87420315  1
  O  O287  1  0.61610917  0.38428297  0.37093484  1
  O  O288  1  0.62380808  0.36398058  0.86691669  1
  O  O289  1  0.62047368  0.86940104  0.36516931  1
  O  O290  1  0.62034325  0.86622079  0.86741928  1
  O  O291  1  0.39582603  0.12902618  0.11007972  1
  O  O292  1  0.38049773  0.13037292  0.63195520  1
  O  O293  1  0.38090504  0.62522110  0.12272003  1
  O  O294  1  0.38429861  0.63107289  0.62924925  1
  O  O295  1  0.88174740  0.13085883  0.12832873  1
  O  O296  1  0.89068776  0.11217255  0.62605516  1
  O  O297  1  0.88027510  0.63020771  0.13234862  1
  O  O298  1  0.88709299  0.62151487  0.62986209  1
  O  O299  1  0.24440748  0.25314195  0.11446269  1
  O  O300  1  0.26116057  0.25923876  0.62477768  1
  O  O301  1  0.24770093  0.75609391  0.11711058  1
  O  O302  1  0.25492474  0.76275701  0.63146874  1
  O  O303  1  0.75957826  0.25363717  0.12329756  1
  O  O304  1  0.75523396  0.23884834  0.63905756  1
  O  O305  1  0.76379361  0.74737767  0.11987530  1
  O  O306  1  0.75237319  0.75678608  0.61691118  1
  O  O307  1  0.23851179  0.25711111  0.37287443  1
  O  O308  1  0.24492014  0.24080462  0.88163958  1
  O  O309  1  0.23809869  0.76115515  0.37286133  1
  O  O310  1  0.24120208  0.74317119  0.88080934  1
  O  O311  1  0.74334769  0.23503963  0.35857911  1
  O  O312  1  0.74392473  0.23888975  0.87047828  1
  O  O313  1  0.74199761  0.75113227  0.38241961  1
  O  O314  1  0.74525747  0.74163297  0.87974916  1
  O  O315  1  -0.00291016  0.11788690  0.01065223  1
  O  O316  1  0.00726447  0.11454658  0.50707785  1
  O  O317  1  0.00731273  0.61685208  0.00476758  1
  O  O318  1  0.01122514  0.62096849  0.51198493  1
  O  O319  1  0.50419726  0.11032948  0.00231597  1
  O  O320  1  0.50062598  0.12181032  0.50784053  1
  O  O321  1  0.50662547  0.62240975  0.00521924  1
  O  O322  1  0.50513236  0.62314327  0.50997485  1
  O  O323  1  0.50078107  0.38702421  0.49148044  1
  O  O324  1  0.48885971  0.37216086  0.99697959  1
  O  O325  1  0.50806237  0.87331488  0.48203206  1
  O  O326  1  0.49433908  0.87685784  0.99741903  1
  O  O327  1  1.00338160  0.39359968  0.50310759  1
  O  O328  1  1.00600426  0.38596341  0.99809847  1
  O  O329  1  0.99544499  0.87951067  0.49547816  1
  O  O330  1  0.99575820  0.87987727  0.99377347  1
  O  O331  1  0.50117456  0.49953057  0.38569146  1
  O  O332  1  0.48580093  0.49908277  0.88336015  1
  O  O333  1  0.50382545  0.98419372  0.36569321  1
  O  O334  1  0.49523208  0.99007830  0.88302233  1
  O  O335  1  1.00958563  0.50034174  0.38843131  1
  O  O336  1  0.99055008  0.49544770  0.88358803  1
  O  O337  1  0.99857133  0.99778988  0.38381108  1
  O  O338  1  0.99424627  0.99665053  0.87730057  1
  O  O339  1  0.00745664  0.00724204  0.12048666  1
  O  O340  1  0.01041224  -0.00947875  0.61370284  1
  O  O341  1  0.00040835  0.50523733  0.11800267  1
  O  O342  1  0.01414284  0.50687352  0.61922970  1
  O  O343  1  0.49701113  0.00753294  0.11756708  1
  O  O344  1  0.50998324  0.00696709  0.62912159  1
  O  O345  1  0.49577363  0.51229828  0.12098452  1
  O  O346  1  0.50648162  0.51607691  0.62196598  1
  O  O347  1  0.26019938  0.39047818  0.24409453  1
  O  O348  1  0.24257585  0.36995833  0.73983531  1
  O  O349  1  0.24555848  0.88398126  0.24213564  1
  O  O350  1  0.24875301  0.88784400  0.74899719  1
  O  O351  1  0.74968922  0.37697281  0.22871270  1
  O  O352  1  0.72819197  0.37499308  0.74396333  1
  O  O353  1  0.74451687  0.88196448  0.24718437  1
  O  O354  1  0.73933544  0.88093294  0.74670041  1
  O  O355  1  0.25162708  0.10851214  0.24573257  1
  O  O356  1  0.26039864  0.11380967  0.75672155  1
  O  O357  1  0.26156304  0.61478127  0.25054601  1
  O  O358  1  0.24572018  0.62777451  0.76460759  1
  O  O359  1  0.75588994  0.11794735  0.24777440  1
  O  O360  1  0.74086664  0.10839446  0.76057175  1
  O  O361  1  0.76838323  0.64172775  0.26709440  1
  O  O362  1  0.75125296  0.62901670  0.76305721  1
  O  O363  1  0.37311502  0.13074631  0.37597575  1
  O  O364  1  0.36842694  0.11897657  0.86919743  1
  O  O365  1  0.37770040  0.63087042  0.36861870  1
  O  O366  1  0.36311384  0.61680088  0.87611886  1
  O  O367  1  0.86786639  0.12802633  0.36197806  1
  O  O368  1  0.86731311  0.11154469  0.87671651  1
  O  O369  1  0.87037496  0.63278265  0.36871663  1
  O  O370  1  0.86573091  0.61717397  0.87308891  1
  O  O371  1  0.14047969  0.37595907  0.12206961  1
  O  O372  1  0.13556955  0.38129568  0.63130551  1
  O  O373  1  0.13148462  0.88024150  0.12946556  1
  O  O374  1  0.13328736  0.88357218  0.62814049  1
  O  O375  1  0.63261640  0.37507155  0.11905828  1
  O  O376  1  0.61102940  0.39422478  0.63897682  1
  O  O377  1  0.62695849  0.86264435  0.13601904  1
  O  O378  1  0.62687861  0.87907894  0.63048574  1
  O  O379  1  0.11968912  0.25008480  0.25585622  1
  O  O380  1  0.12308086  0.25476287  0.76081441  1
  O  O381  1  0.12108314  0.75495711  0.25599972  1
  O  O382  1  0.11272728  0.75268574  0.75643658  1
  O  O383  1  0.60199970  0.24227276  0.25427235  1
  O  O384  1  0.61736492  0.25906418  0.75770511  1
  O  O385  1  0.62645276  0.75264299  0.25944377  1
  O  O386  1  0.63031513  0.75809005  0.76183537  1
  O  O387  1  0.39526448  0.25044920  0.25486461  1
  O  O388  1  0.37136266  0.23915378  0.74343867  1
  O  O389  1  0.37160732  0.73489543  0.24775164  1
  O  O390  1  0.37337324  0.74534959  0.73757895  1
  O  O391  1  0.88256551  0.23960382  0.23356320  1
  O  O392  1  0.89376768  0.25288722  0.75436705  1
  O  O393  1  0.88472191  0.74768354  0.24215032  1
  O  O394  1  0.88642150  0.74764970  0.74870480  1
  O  O395  1  0.38945857  0.49298707  0.51161780  1
  O  O396  1  0.37222112  0.48548878  0.99045395  1
  O  O397  1  0.37520569  0.98768771  0.50403732  1
  O  O398  1  0.38152969  0.98816488  0.99398725  1
  O  O399  1  0.89628203  0.51445868  0.49284495  1
  O  O400  1  0.88553733  0.50566720  0.98629131  1
  O  O401  1  0.88598762  0.98747512  0.49129104  1
  O  O402  1  0.88283494  0.99301812  0.99131641  1
  O  O403  1  0.11993327  -0.00578802  0.01416719  1
  O  O404  1  0.11830789  0.00117421  0.50691396  1
  O  O405  1  0.11706293  0.50915970  0.00019357  1
  O  O406  1  0.12209807  0.50981910  0.50896411  1
  O  O407  1  0.61467662  -0.00631579  -0.00258942  1
  O  O408  1  0.62858631  0.00395921  0.50975599  1
  O  O409  1  0.62350589  0.51118789  -0.01008410  1
  O  O410  1  0.61342982  0.51110324  0.51168667  1
  O  O411  1  0.36249179  0.37906070  0.11481918  1
  O  O412  1  0.37371752  0.37120938  0.62556211  1
  O  O413  1  0.36777627  0.87077376  0.11801252  1
  O  O414  1  0.36427838  0.86926751  0.62903015  1
  O  O415  1  0.87439860  0.36047641  0.12247130  1
  O  O416  1  0.86139140  0.41283673  0.62258425  1
  O  O417  1  0.87632136  0.86536088  0.11807951  1
  O  O418  1  0.86762072  0.87455378  0.61500518  1
  O  O419  1  0.13391224  0.13857102  0.37328377  1
  O  O420  1  0.14053147  0.12981583  0.87165708  1
  O  O421  1  0.12516008  0.63691301  0.38775404  1
  O  O422  1  0.12808286  0.62635588  0.88244856  1
  O  O423  1  0.63100565  0.11518833  0.37881024  1
  O  O424  1  0.63038702  0.12983645  0.87408649  1
  O  O425  1  0.63319224  0.63561049  0.38498097  1
  O  O426  1  0.63025632  0.63022908  0.87836243  1
