# generated using pymatgen
data_V85Zn86O256
_symmetry_space_group_name_H-M   'P 1'
_cell_length_a   16.93661381
_cell_length_b   16.93441452
_cell_length_c   16.93765751
_cell_angle_alpha   90.06213632
_cell_angle_beta   90.02214937
_cell_angle_gamma   89.86839503
_symmetry_Int_Tables_number   1
_chemical_formula_structural   V85Zn86O256
_chemical_formula_sum   'V85 Zn86 O256'
_cell_volume   4857.90128082
_cell_formula_units_Z   1
loop_
 _symmetry_equiv_pos_site_id
 _symmetry_equiv_pos_as_xyz
  1  'x, y, z'
loop_
 _atom_site_type_symbol
 _atom_site_label
 _atom_site_symmetry_multiplicity
 _atom_site_fract_x
 _atom_site_fract_y
 _atom_site_fract_z
 _atom_site_occupancy
  V  V0  1  0.75360752  0.48858229  0.24629852  1
  V  V1  1  0.87074795  0.62813517  0.76214093  1
  V  V2  1  0.24252394  0.38060027  0.62544911  1
  V  V3  1  0.49879984  0.00132929  0.50223563  1
  V  V4  1  0.00188066  0.13241806  0.63074741  1
  V  V5  1  0.37346751  0.00153128  0.87460292  1
  V  V6  1  0.62387711  0.62432287  0.50279031  1
  V  V7  1  0.37622313  0.62603357  0.23483182  1
  V  V8  1  0.24697136  0.36297240  0.12004997  1
  V  V9  1  0.88391324  0.88205977  0.00158706  1
  V  V10  1  -0.00718392  0.38394985  0.86597161  1
  V  V11  1  0.62213943  0.26227463  0.37231619  1
  V  V12  1  0.50339398  0.25138237  0.76094118  1
  V  V13  1  0.62348031  0.12730423  0.49965140  1
  V  V14  1  0.25027530  0.13829262  0.87886145  1
  V  V15  1  0.87297423  0.25609843  0.12268523  1
  V  V16  1  0.37848161  0.37718273  0.48471350  1
  V  V17  1  0.24716588  0.87582914  0.12096704  1
  V  V18  1  0.00030055  0.25204285  0.24714472  1
  V  V19  1  0.87841277  0.75136160  0.12568370  1
  V  V20  1  0.25011068  -0.00453758  0.74562652  1
  V  V21  1  0.27089300  0.61994334  0.87472750  1
  V  V22  1  0.87675021  0.62579015  0.25125770  1
  V  V23  1  0.36809049  0.38000599  -0.00666822  1
  V  V24  1  0.63352664  -0.00267121  0.62235112  1
  V  V25  1  0.12300217  0.74235396  0.87239156  1
  V  V26  1  0.12525157  0.12436247  0.50063739  1
  V  V27  1  0.00002936  0.37705372  0.37563543  1
  V  V28  1  0.63606764  0.87401428  0.74419068  1
  V  V29  1  0.11154477  0.25199764  0.87579941  1
  V  V30  1  0.62912022  0.87404636  0.25040476  1
  V  V31  1  0.00176858  0.62251083  0.12345175  1
  V  V32  1  0.62879055  0.00218452  0.12363340  1
  V  V33  1  0.49365807  0.74491943  0.74894589  1
  V  V34  1  0.00759537  0.50019493  0.50872177  1
  V  V35  1  0.50055621  0.24539160  0.25434959  1
  V  V36  1  0.12510879  0.11451809  0.00160950  1
  V  V37  1  0.37432352  0.12686484  0.75076363  1
  V  V38  1  0.37822954  0.25389248  0.62529876  1
  V  V39  1  0.75396091  0.49901379  0.77088395  1
  V  V40  1  0.87144684  0.87657364  0.51264854  1
  V  V41  1  0.37380773  0.86448964  -0.00012294  1
  V  V42  1  0.12816348  0.74553799  0.37737098  1
  V  V43  1  0.00179021  0.74888451  0.25203398  1
  V  V44  1  0.49051345  0.61964798  0.62679230  1
  V  V45  1  0.24939907  0.74957382  0.50681049  1
  V  V46  1  0.25546023  0.50590377  0.74701084  1
  V  V47  1  0.63265749  0.74458233  0.87091348  1
  V  V48  1  0.12473637  0.88054372  0.24418791  1
  V  V49  1  0.57775536  0.41552995  0.20635275  1
  V  V50  1  0.12976429  0.37943365  0.24914119  1
  V  V51  1  0.88290906  0.00428741  0.87777256  1
  V  V52  1  0.37088559  0.11883810  0.24702168  1
  V  V53  1  0.50244441  0.87476219  0.87033480  1
  V  V54  1  0.12633462  0.87040303  0.74405291  1
  V  V55  1  0.74292842  0.12494483  0.87470764  1
  V  V56  1  0.36960536  0.87458848  0.51031176  1
  V  V57  1  0.26016407  0.61188997  0.37087342  1
  V  V58  1  -0.00048511  0.87290220  0.37856211  1
  V  V59  1  0.50051618  0.00092971  -0.00246506  1
  V  V60  1  0.00202755  0.11513321  0.11943584  1
  V  V61  1  0.13247526  0.50029081  0.12234070  1
  V  V62  1  0.49671153  0.87179954  0.37432762  1
  V  V63  1  0.63616618  0.49801490  0.62576822  1
  V  V64  1  0.74854949  0.25556601  0.51030181  1
  V  V65  1  0.24984399  0.24987347  0.49928779  1
  V  V66  1  0.87116373  0.37819941  0.50771444  1
  V  V67  1  0.62852291  0.37161657  0.74905437  1
  V  V68  1  0.49883779  0.49485555  0.48970093  1
  V  V69  1  0.74888406  0.75326623  0.51113512  1
  V  V70  1  0.75160911  0.62594967  0.37586141  1
  V  V71  1  0.74166171  0.25434735  -0.00157408  1
  V  V72  1  0.00225173  0.62856336  0.63435194  1
  V  V73  1  0.87374895  0.38087140  -0.00130305  1
  V  V74  1  0.74818195  0.12792147  0.37422668  1
  V  V75  1  0.00321109  0.87264829  0.87081801  1
  V  V76  1  0.49729815  0.11952087  0.12505613  1
  V  V77  1  0.62108692  0.74985826  0.37267443  1
  V  V78  1  0.87422996  0.00134945  0.37760337  1
  V  V79  1  0.87627648  0.12691161  0.24943724  1
  V  V80  1  0.87910517  0.13333532  0.75258261  1
  V  V81  1  0.00082845  0.00060441  0.50305525  1
  V  V82  1  0.37035241  -0.00133691  0.37299588  1
  V  V83  1  0.50138274  0.39044168  0.88002143  1
  V  V84  1  0.75729646  0.74799068  -0.00454106  1
  Zn  Zn85  1  0.37115677  0.24553926  0.11977210  1
  Zn  Zn86  1  0.50222860  0.12740147  0.62728369  1
  Zn  Zn87  1  0.36842042  0.74791769  0.63120131  1
  Zn  Zn88  1  0.52535436  0.70431046  0.18046172  1
  Zn  Zn89  1  0.13016485  -0.00424144  0.62380010  1
  Zn  Zn90  1  0.12334730  0.37358789  0.74743334  1
  Zn  Zn91  1  0.12515563  0.24897216  0.37317672  1
  Zn  Zn92  1  0.12835456  0.61991209  0.50865596  1
  Zn  Zn93  1  0.62222975  0.12690464  -0.00522066  1
  Zn  Zn94  1  0.75585282  -0.00139660  0.74608153  1
  Zn  Zn95  1  0.62834355  0.63334694  -0.00274058  1
  Zn  Zn96  1  0.12659531  0.62148884  -0.00545489  1
  Zn  Zn97  1  0.87520095  0.75251528  0.63311436  1
  Zn  Zn98  1  0.87560968  0.25698035  0.63238177  1
  Zn  Zn99  1  0.75117584  0.00288880  0.24928275  1
  Zn  Zn100  1  0.55196643  0.54736756  0.07662562  1
  Zn  Zn101  1  0.87672449  0.50223061  0.37897036  1
  Zn  Zn102  1  0.24704620  0.12348294  0.37292880  1
  Zn  Zn103  1  0.75605242  0.87885495  0.12506872  1
  Zn  Zn104  1  0.25164747  0.74208568  0.00452058  1
  Zn  Zn105  1  0.24311044  0.00201878  0.24199997  1
  Zn  Zn106  1  -0.00528809  0.50168530  -0.00204379  1
  Zn  Zn107  1  0.18442544  0.18720588  0.18509147  1
  Zn  Zn108  1  0.18730191  0.19046172  0.68996481  1
  Zn  Zn109  1  0.19184565  0.69032446  0.18819329  1
  Zn  Zn110  1  0.18640256  0.68396038  0.69126330  1
  Zn  Zn111  1  0.68684641  0.19205022  0.18461411  1
  Zn  Zn112  1  0.68719595  0.18505528  0.68982589  1
  Zn  Zn113  1  0.69684096  0.68454908  0.18315764  1
  Zn  Zn114  1  0.68710711  0.68097598  0.69072057  1
  Zn  Zn115  1  0.30987667  0.30809913  0.30881976  1
  Zn  Zn116  1  0.31454041  0.31802786  0.81207224  1
  Zn  Zn117  1  0.31037893  0.80629875  0.30927064  1
  Zn  Zn118  1  0.30965978  0.80968330  0.81597384  1
  Zn  Zn119  1  0.81632036  0.31046449  0.32037690  1
  Zn  Zn120  1  0.80876871  0.31267059  0.81615346  1
  Zn  Zn121  1  0.81228392  0.81235703  0.31838814  1
  Zn  Zn122  1  0.81652422  0.81435044  0.81349933  1
  Zn  Zn123  1  0.18662377  0.43481445  0.43849569  1
  Zn  Zn124  1  0.18568861  0.44151048  0.93403631  1
  Zn  Zn125  1  0.18814721  0.93409401  0.43668593  1
  Zn  Zn126  1  0.18939138  0.93818049  0.93233954  1
  Zn  Zn127  1  0.68690568  0.43972908  0.43535291  1
  Zn  Zn128  1  0.67298147  0.43267520  0.94101928  1
  Zn  Zn129  1  0.68939814  0.93782287  0.43879226  1
  Zn  Zn130  1  0.69391331  0.93596361  0.93621170  1
  Zn  Zn131  1  0.30745476  0.05445353  0.06184705  1
  Zn  Zn132  1  0.31314169  0.06461398  0.56432782  1
  Zn  Zn133  1  0.31448998  0.55536264  0.06062860  1
  Zn  Zn134  1  0.31180500  0.55957563  0.55822266  1
  Zn  Zn135  1  0.81361065  0.06628029  0.06093470  1
  Zn  Zn136  1  0.81337531  0.06830108  0.56377594  1
  Zn  Zn137  1  0.76586424  0.53551035  0.03900224  1
  Zn  Zn138  1  0.81784658  0.56464511  0.56615286  1
  Zn  Zn139  1  0.40648921  0.44128802  0.19747332  1
  Zn  Zn140  1  0.43696756  0.43733378  0.68475145  1
  Zn  Zn141  1  0.45434049  0.89987858  0.17137861  1
  Zn  Zn142  1  0.44286025  0.93915370  0.68818143  1
  Zn  Zn143  1  0.93583286  0.44002368  0.18646353  1
  Zn  Zn144  1  0.93460397  0.44315574  0.68875156  1
  Zn  Zn145  1  0.93956839  0.93862905  0.19113939  1
  Zn  Zn146  1  0.94277773  0.94462024  0.69105917  1
  Zn  Zn147  1  0.05951264  0.06343481  0.31469265  1
  Zn  Zn148  1  0.06403922  0.06108565  0.81333413  1
  Zn  Zn149  1  0.06675409  0.56020366  0.31370904  1
  Zn  Zn150  1  0.06756186  0.55647596  0.80491807  1
  Zn  Zn151  1  0.56131680  0.06069252  0.31306230  1
  Zn  Zn152  1  0.56304021  0.06070127  0.80756264  1
  Zn  Zn153  1  0.55947358  0.56689273  0.31145943  1
  Zn  Zn154  1  0.56438531  0.56428831  0.81116679  1
  Zn  Zn155  1  0.43604357  0.18654581  0.43575581  1
  Zn  Zn156  1  0.43536053  0.19264298  0.94011354  1
  Zn  Zn157  1  0.43606531  0.68671613  0.43856003  1
  Zn  Zn158  1  0.44590822  0.68227821  0.94329070  1
  Zn  Zn159  1  0.93712144  0.19187611  0.44034672  1
  Zn  Zn160  1  0.93773466  0.18992661  0.94006552  1
  Zn  Zn161  1  0.93819917  0.68768831  0.44453282  1
  Zn  Zn162  1  0.94158823  0.68979626  0.93750049  1
  Zn  Zn163  1  0.06105232  0.30926966  0.05606077  1
  Zn  Zn164  1  0.06152551  0.31123302  0.56150256  1
  Zn  Zn165  1  0.06580648  0.81108246  0.05859510  1
  Zn  Zn166  1  0.06077118  0.80805866  0.56487538  1
  Zn  Zn167  1  0.55478709  0.30712254  0.06101336  1
  Zn  Zn168  1  0.56194970  0.31530642  0.56567601  1
  Zn  Zn169  1  0.56940292  0.81582269  0.05552472  1
  Zn  Zn170  1  0.55941996  0.81143314  0.56358260  1
  O  O171  1  0.11898253  0.12871166  0.10931326  1
  O  O172  1  0.12051514  0.12507297  0.61636114  1
  O  O173  1  0.11999144  0.61720451  0.12658031  1
  O  O174  1  0.10808005  0.62675194  0.62827036  1
  O  O175  1  0.61959181  0.11325652  0.12447173  1
  O  O176  1  0.62337987  0.11756699  0.61776803  1
  O  O177  1  0.61093178  0.64258761  0.12644053  1
  O  O178  1  0.61764502  0.61746138  0.61968271  1
  O  O179  1  0.37000594  0.36887307  0.38582491  1
  O  O180  1  0.38549692  0.37385736  0.88518016  1
  O  O181  1  0.38153099  0.87946680  0.37892414  1
  O  O182  1  0.38237441  0.88128474  0.87794780  1
  O  O183  1  0.88491811  0.37641344  0.38751635  1
  O  O184  1  0.88786590  0.36865147  0.88107812  1
  O  O185  1  0.88070601  0.88072061  0.38530640  1
  O  O186  1  0.88416578  0.88312743  0.87915428  1
  O  O187  1  0.26174769  -0.00133327  0.37297000  1
  O  O188  1  0.25627862  0.01031776  0.86494273  1
  O  O189  1  0.24143267  0.51443242  0.37855633  1
  O  O190  1  0.25126505  0.51322381  0.86735177  1
  O  O191  1  0.75456453  0.01414287  0.37716481  1
  O  O192  1  0.76353614  0.00755668  0.87413549  1
  O  O193  1  0.75025387  0.51440797  0.37101223  1
  O  O194  1  0.74633353  0.49917248  0.86868295  1
  O  O195  1  0.23650879  0.48763074  0.12040400  1
  O  O196  1  0.25144464  0.49311261  0.63209899  1
  O  O197  1  0.24214028  0.98535027  0.12531880  1
  O  O198  1  0.25074152  1.00513353  0.64069373  1
  O  O199  1  0.75611015  0.50241049  0.14874541  1
  O  O200  1  0.73821994  0.50426670  0.62581639  1
  O  O201  1  0.74361795  1.00051598  0.12687880  1
  O  O202  1  0.73780433  1.00389387  0.62338824  1
  O  O203  1  0.00341012  0.37138987  0.25774715  1
  O  O204  1  -0.00020951  0.37871842  0.76174395  1
  O  O205  1  0.00541075  0.86861123  0.25825947  1
  O  O206  1  0.00889591  0.88051788  0.76195001  1
  O  O207  1  0.49940548  0.36374925  0.25261541  1
  O  O208  1  0.50479029  0.37005882  0.75740092  1
  O  O209  1  0.51441301  0.88474521  0.26874492  1
  O  O210  1  0.50908251  0.87036675  0.75736988  1
  O  O211  1  0.49139928  0.12636382  0.24509495  1
  O  O212  1  0.49315702  0.13338813  0.75029296  1
  O  O213  1  0.48599868  0.62303270  0.24795353  1
  O  O214  1  0.50588727  0.63413018  0.74067505  1
  O  O215  1  0.99639694  0.13300518  0.24481630  1
  O  O216  1  0.99371009  0.12136177  0.74249502  1
  O  O217  1  0.99778553  0.62922698  0.24574878  1
  O  O218  1  0.98757252  0.61401289  0.74040693  1
  O  O219  1  0.38654139  0.27079050  0.00678067  1
  O  O220  1  0.36988887  0.25400573  0.50639622  1
  O  O221  1  0.37381347  0.76196107  -0.00984190  1
  O  O222  1  0.36768441  0.75883437  0.50190039  1
  O  O223  1  0.86771936  0.25704826  0.00644543  1
  O  O224  1  0.86467380  0.25849969  0.50188538  1
  O  O225  1  0.87488969  0.75867917  0.00521854  1
  O  O226  1  0.86575076  0.75960005  0.50240869  1
  O  O227  1  0.13314341  0.24245492  0.49837202  1
  O  O228  1  0.12365285  0.24126504  0.98258850  1
  O  O229  1  0.13158324  0.74790008  0.49419709  1
  O  O230  1  0.12935548  0.74578898  0.98603287  1
  O  O231  1  0.62944343  0.24786070  0.49455875  1
  O  O232  1  0.63830265  0.24672015  1.00502397  1
  O  O233  1  0.63141569  0.74704903  0.49395621  1
  O  O234  1  0.63895063  0.75980038  0.98689497  1
  O  O235  1  0.49901031  0.23746179  0.13722572  1
  O  O236  1  0.49195454  0.25050618  0.63430239  1
  O  O237  1  0.49141034  0.79573780  0.13059524  1
  O  O238  1  0.49959408  0.74010236  0.63255747  1
  O  O239  1  0.99255766  0.24373611  0.12917110  1
  O  O240  1  0.99670469  0.23681134  0.61983548  1
  O  O241  1  0.99898492  0.74262423  0.13097495  1
  O  O242  1  0.99370596  0.73316326  0.62126544  1
  O  O243  1  0.00069415  0.26204810  0.37006760  1
  O  O244  1  0.00693065  0.25820107  0.87405328  1
  O  O245  1  0.00729560  0.75306273  0.37403223  1
  O  O246  1  0.00937128  0.76047100  0.87556245  1
  O  O247  1  0.50769393  0.24136998  0.36365180  1
  O  O248  1  0.49696869  0.25687725  0.86345566  1
  O  O249  1  0.51205308  0.75743018  0.38351859  1
  O  O250  1  0.50904984  0.75785513  0.86687131  1
  O  O251  1  0.24246815  0.13170495  0.50019593  1
  O  O252  1  0.23782881  0.12073996  0.99162874  1
  O  O253  1  0.24637014  0.63004578  0.49130835  1
  O  O254  1  0.25146713  0.62145449  0.98589941  1
  O  O255  1  0.74536013  0.13484910  0.49309052  1
  O  O256  1  0.74929903  0.13409485  0.99115960  1
  O  O257  1  0.74558292  0.63152241  0.49382342  1
  O  O258  1  0.75340931  0.64496257  1.00342033  1
  O  O259  1  0.26046198  0.37830035  0.00102166  1
  O  O260  1  0.25587703  0.36846767  0.50573626  1
  O  O261  1  0.25721869  0.87419092  0.00113143  1
  O  O262  1  0.25927065  0.86563547  0.49720113  1
  O  O263  1  0.75535623  0.35998645  -0.00948167  1
  O  O264  1  0.75871352  0.36799734  0.49299964  1
  O  O265  1  0.76689648  0.86877864  0.00042181  1
  O  O266  1  0.75972811  0.86620156  0.49523386  1
  O  O267  1  0.11888963  0.48577890  0.24134994  1
  O  O268  1  0.14560981  0.48970991  0.75431143  1
  O  O269  1  0.12431304  0.98435530  0.26259926  1
  O  O270  1  0.13431277  0.99215551  0.75047246  1
  O  O271  1  0.63343436  0.49093788  0.25712993  1
  O  O272  1  0.63774440  0.49652641  0.74573802  1
  O  O273  1  0.62820089  0.99421799  0.24369159  1
  O  O274  1  0.62744482  0.99182633  0.73977446  1
  O  O275  1  0.37418459  0.00963397  0.25722017  1
  O  O276  1  0.37156875  0.00549665  0.75517433  1
  O  O277  1  0.36571354  0.52349962  0.25779679  1
  O  O278  1  0.35628406  0.48886422  0.74808832  1
  O  O279  1  0.87358709  0.00777170  0.25956875  1
  O  O280  1  0.87372935  0.01143986  0.75781074  1
  O  O281  1  0.86910112  0.50700630  0.25771522  1
  O  O282  1  0.85893623  0.50638368  0.74947073  1
  O  O283  1  0.11918012  0.37259477  0.36644710  1
  O  O284  1  0.11167298  0.36580455  0.87793706  1
  O  O285  1  0.11948389  0.86294891  0.37170277  1
  O  O286  1  0.11935375  0.86870404  0.86865286  1
  O  O287  1  0.62838467  0.36188481  0.37332700  1
  O  O288  1  0.61139547  0.37590003  0.86333497  1
  O  O289  1  0.62051752  0.86931378  0.37186396  1
  O  O290  1  0.61928690  0.87222257  0.86543278  1
  O  O291  1  0.37724569  0.12215200  0.13056771  1
  O  O292  1  0.37620124  0.13808099  0.63045865  1
  O  O293  1  0.36467470  0.62695516  0.13400469  1
  O  O294  1  0.38756126  0.62584361  0.61939427  1
  O  O295  1  0.88269440  0.13447537  0.12865783  1
  O  O296  1  0.88311601  0.12696296  0.63465166  1
  O  O297  1  0.88802735  0.63419618  0.13706159  1
  O  O298  1  0.88334209  0.62774610  0.63548624  1
  O  O299  1  0.24686336  0.25930998  0.12021019  1
  O  O300  1  0.25691398  0.25415653  0.61541763  1
  O  O301  1  0.24205199  0.76616965  0.11907055  1
  O  O302  1  0.25075395  0.74068046  0.61246752  1
  O  O303  1  0.76005548  0.24235585  0.11038091  1
  O  O304  1  0.75016776  0.24690869  0.61296715  1
  O  O305  1  0.76384994  0.75762645  0.11976115  1
  O  O306  1  0.74882802  0.74523941  0.61369859  1
  O  O307  1  0.24854425  0.24683578  0.38826955  1
  O  O308  1  0.24718098  0.24097399  0.87332430  1
  O  O309  1  0.24242271  0.74477287  0.38664166  1
  O  O310  1  0.24496323  0.73274159  0.87426609  1
  O  O311  1  0.74331067  0.24130916  0.38200568  1
  O  O312  1  0.75418429  0.23923673  0.88835371  1
  O  O313  1  0.74089600  0.74196164  0.38244495  1
  O  O314  1  0.74411921  0.75880536  0.88199961  1
  O  O315  1  0.01148711  0.12963895  0.00670898  1
  O  O316  1  0.00698457  0.12090987  0.50488797  1
  O  O317  1  -0.00014221  0.62282863  0.01281826  1
  O  O318  1  0.00038629  0.61603133  0.51079305  1
  O  O319  1  0.50174440  0.11931096  0.00483378  1
  O  O320  1  0.50575187  0.11929827  0.50125547  1
  O  O321  1  0.51322790  0.62060246  0.00089658  1
  O  O322  1  0.50645478  0.61825963  0.50704347  1
  O  O323  1  0.49060084  0.38181111  0.50425502  1
  O  O324  1  0.50256931  0.37489702  0.98432899  1
  O  O325  1  0.49386402  0.88042680  0.49052719  1
  O  O326  1  0.49500315  0.88133043  0.98384532  1
  O  O327  1  0.99557347  0.38071778  0.49478429  1
  O  O328  1  0.98965027  0.37663784  0.99031850  1
  O  O329  1  0.99347371  0.87985103  0.49731901  1
  O  O330  1  0.99127951  0.87251671  0.98980694  1
  O  O331  1  0.50990914  0.50134187  0.39093527  1
  O  O332  1  0.50054409  0.48875844  0.86879297  1
  O  O333  1  0.48923247  0.99436430  0.38260939  1
  O  O334  1  0.49510405  0.99329538  0.87512801  1
  O  O335  1  0.99993842  0.48974552  0.38144384  1
  O  O336  1  1.00284844  0.48640686  0.87745732  1
  O  O337  1  0.99299911  0.99512220  0.38415507  1
  O  O338  1  0.98950781  0.99420408  0.87312442  1
  O  O339  1  -0.00328247  0.01607946  0.13021538  1
  O  O340  1  0.00438320  0.01248443  0.61821574  1
  O  O341  1  0.00761591  0.50829524  0.12438905  1
  O  O342  1  -0.00478148  0.51134653  0.61834861  1
  O  O343  1  0.50876929  -0.00028803  0.11869227  1
  O  O344  1  0.50958027  0.00397607  0.61835176  1
  O  O345  1  0.51163421  0.47113240  0.14751969  1
  O  O346  1  0.50977630  0.50569030  0.62181009  1
  O  O347  1  0.23978032  0.36817683  0.23863925  1
  O  O348  1  0.24920807  0.37901426  0.74045175  1
  O  O349  1  0.24188427  0.87457898  0.24218691  1
  O  O350  1  0.24101048  0.88386681  0.75800287  1
  O  O351  1  0.75975247  0.38953269  0.26044951  1
  O  O352  1  0.74258750  0.38657753  0.75620293  1
  O  O353  1  0.74004046  0.87904971  0.25450587  1
  O  O354  1  0.73979229  0.87759375  0.75127498  1
  O  O355  1  0.25448267  0.12218733  0.25097810  1
  O  O356  1  0.25637833  0.12070753  0.75814621  1
  O  O357  1  0.25378736  0.63133456  0.26561091  1
  O  O358  1  0.25187872  0.61494978  0.75826484  1
  O  O359  1  0.75712139  0.12758419  0.25844352  1
  O  O360  1  0.75754681  0.12273997  0.75856182  1
  O  O361  1  0.75754840  0.62124064  0.25983352  1
  O  O362  1  0.76011659  0.61256254  0.75042159  1
  O  O363  1  0.37197309  0.11503627  0.36831986  1
  O  O364  1  0.36770060  0.12304697  0.87243144  1
  O  O365  1  0.36104214  0.62275819  0.38216849  1
  O  O366  1  0.36859514  0.62837880  0.87323169  1
  O  O367  1  0.86811420  0.12383852  0.37188854  1
  O  O368  1  0.87211461  0.12051967  0.87093650  1
  O  O369  1  0.86760611  0.62791939  0.37121911  1
  O  O370  1  0.88415972  0.62526890  0.86081637  1
  O  O371  1  0.12729452  0.37861184  0.12796899  1
  O  O372  1  0.13889494  0.36652751  0.62490949  1
  O  O373  1  0.12595129  0.87239859  0.13542384  1
  O  O374  1  0.11819016  0.87500247  0.63959708  1
  O  O375  1  0.62641273  0.35912822  0.14083202  1
  O  O376  1  0.62008429  0.38444246  0.63955916  1
  O  O377  1  0.63226971  0.88677858  0.13431730  1
  O  O378  1  0.61877972  0.88344050  0.63264998  1
  O  O379  1  0.11698094  0.25931477  0.25030180  1
  O  O380  1  0.13074661  0.25244870  0.76960314  1
  O  O381  1  0.11995943  0.75794156  0.25911141  1
  O  O382  1  0.13174899  0.75839554  0.76084640  1
  O  O383  1  0.61473221  0.23976950  0.26048548  1
  O  O384  1  0.61688654  0.25926100  0.74373762  1
  O  O385  1  0.62689507  0.75858987  0.25855472  1
  O  O386  1  0.62040863  0.75758655  0.75238348  1
  O  O387  1  0.38055721  0.23487588  0.24922554  1
  O  O388  1  0.38165228  0.24786414  0.74339765  1
  O  O389  1  0.37483344  0.72903772  0.26043999  1
  O  O390  1  0.38962621  0.75887426  0.74845350  1
  O  O391  1  0.87907464  0.24646015  0.24302054  1
  O  O392  1  0.86889228  0.23814973  0.74992819  1
  O  O393  1  0.88203950  0.74750415  0.24774130  1
  O  O394  1  0.86630890  0.73382233  0.74916925  1
  O  O395  1  0.38551296  0.48806383  0.50479105  1
  O  O396  1  0.38486890  0.47839063  1.01140016  1
  O  O397  1  0.37706381  0.99376913  0.49436230  1
  O  O398  1  0.38149431  0.99446536  0.98990972  1
  O  O399  1  0.88315457  0.49411245  0.49827574  1
  O  O400  1  0.86636062  0.48377945  1.00790690  1
  O  O401  1  0.87831566  0.99482146  0.49748313  1
  O  O402  1  0.87386108  0.99347255  0.99272875  1
  O  O403  1  0.12240423  0.01595387  -0.01238484  1
  O  O404  1  0.12185055  0.00603116  0.50217996  1
  O  O405  1  0.11920726  0.50196170  0.00845044  1
  O  O406  1  0.11165655  0.49936734  0.49909162  1
  O  O407  1  0.62060427  -0.00146847  0.00685432  1
  O  O408  1  0.61996841  0.00446339  0.50456103  1
  O  O409  1  0.65219273  0.51317613  0.01548990  1
  O  O410  1  0.62092565  0.50295874  0.50842191  1
  O  O411  1  0.36142310  0.36971107  0.12163182  1
  O  O412  1  0.36621137  0.36396404  0.61904433  1
  O  O413  1  0.36136459  0.88556611  0.10803713  1
  O  O414  1  0.38270018  0.87407099  0.61267564  1
  O  O415  1  0.88072631  0.36272801  0.11833610  1
  O  O416  1  0.88055373  0.37387736  0.61279693  1
  O  O417  1  0.88029890  0.87126015  0.11811875  1
  O  O418  1  0.88150902  0.87558883  0.61639915  1
  O  O419  1  0.12499866  0.12650478  0.38790855  1
  O  O420  1  0.12862137  0.13400424  0.88047041  1
  O  O421  1  0.13049180  0.63579326  0.37543113  1
  O  O422  1  0.12352287  0.63190447  0.87294056  1
  O  O423  1  0.63213216  0.12875430  0.38148710  1
  O  O424  1  0.63897735  0.11672395  0.87424374  1
  O  O425  1  0.63055862  0.63373469  0.37983919  1
  O  O426  1  0.62765729  0.64176529  0.86970741  1
