# generated using pymatgen
data_V85Zn86O256
_symmetry_space_group_name_H-M   'P 1'
_cell_length_a   16.97706977
_cell_length_b   16.97414636
_cell_length_c   16.98758934
_cell_angle_alpha   90.01541174
_cell_angle_beta   90.03103940
_cell_angle_gamma   89.96208154
_symmetry_Int_Tables_number   1
_chemical_formula_structural   V85Zn86O256
_chemical_formula_sum   'V85 Zn86 O256'
_cell_volume   4895.33317528
_cell_formula_units_Z   1
loop_
 _symmetry_equiv_pos_site_id
 _symmetry_equiv_pos_as_xyz
  1  'x, y, z'
loop_
 _atom_site_type_symbol
 _atom_site_label
 _atom_site_symmetry_multiplicity
 _atom_site_fract_x
 _atom_site_fract_y
 _atom_site_fract_z
 _atom_site_occupancy
  V  V0  1  0.25196199  0.37287592  0.62697781  1
  V  V1  1  0.25218104  0.00300993  0.24516439  1
  V  V2  1  0.24300762  0.86183106  0.62635637  1
  V  V3  1  0.25254556  0.49809862  0.75299145  1
  V  V4  1  0.00354617  0.74446358  0.24492949  1
  V  V5  1  0.24713662  0.62222221  0.88050403  1
  V  V6  1  -0.00547625  0.00285058  0.49355663  1
  V  V7  1  0.50530528  0.24399313  0.75160558  1
  V  V8  1  0.37894819  0.63486684  0.75406745  1
  V  V9  1  0.12042574  0.75135394  0.87789064  1
  V  V10  1  0.88605177  0.50460920  0.87656458  1
  V  V11  1  0.87917044  0.62212412  0.24137314  1
  V  V12  1  0.38046067  0.11417359  0.75747553  1
  V  V13  1  0.50271056  0.75272943  0.24950779  1
  V  V14  1  0.37883452  0.23556535  0.62590918  1
  V  V15  1  0.00306919  0.38034241  0.37956779  1
  V  V16  1  0.75140486  0.62677002  0.37508109  1
  V  V17  1  0.50078154  0.37000663  0.87936141  1
  V  V18  1  0.87415957  0.37691783  0.50222997  1
  V  V19  1  -0.00236571  0.75343581  0.74821961  1
  V  V20  1  0.24880860  0.49344097  0.25115853  1
  V  V21  1  0.49159311  0.49405598  0.00354717  1
  V  V22  1  0.00468847  0.87852035  0.37318305  1
  V  V23  1  0.11609862  0.49563891  0.13325899  1
  V  V24  1  0.12575486  0.25249863  0.87963906  1
  V  V25  1  0.24713911  0.75136297  0.00237473  1
  V  V26  1  0.87834119  0.49960375  0.38034786  1
  V  V27  1  0.11634936  0.88531757  0.75075723  1
  V  V28  1  0.74530673  0.75799530  0.00279776  1
  V  V29  1  0.87141841  0.25285165  0.12845167  1
  V  V30  1  0.37535510  0.88183411  -0.01073683  1
  V  V31  1  0.63868789  0.13478146  -0.01360331  1
  V  V32  1  0.24886044  0.12737243  0.37329556  1
  V  V33  1  0.12783514  0.87430278  0.25014245  1
  V  V34  1  0.26048487  0.25722544  -0.00089844  1
  V  V35  1  0.12641363  0.25528275  0.37255408  1
  V  V36  1  0.87148502  0.75611005  0.12418490  1
  V  V37  1  0.25007513  0.24853047  0.50136608  1
  V  V38  1  0.12111508  0.49908993  0.61740530  1
  V  V39  1  0.60955371  0.22024373  0.39790047  1
  V  V40  1  0.00103740  0.12871142  0.12693940  1
  V  V41  1  0.24620306  0.00113511  0.74965502  1
  V  V42  1  0.88155158  0.24911653  0.62609470  1
  V  V43  1  0.11221890  0.62274556  0.00752415  1
  V  V44  1  0.49927855  0.62457287  0.12542537  1
  V  V45  1  0.87206565  0.75713029  0.61910280  1
  V  V46  1  0.37678797  0.12771218  0.24569221  1
  V  V47  1  0.75005535  0.49686398  0.25228695  1
  V  V48  1  0.50101795  0.38202747  0.37548283  1
  V  V49  1  0.76183284  0.11826031  0.37911649  1
  V  V50  1  0.50306342  0.25136524  0.24871482  1
  V  V51  1  0.76054341  -0.00226600  0.24678592  1
  V  V52  1  0.63282160  0.87467463  0.23673653  1
  V  V53  1  0.49948948  0.50342586  0.50511097  1
  V  V54  1  0.14029296  0.62861756  0.49743725  1
  V  V55  1  0.37358169  0.75436798  0.12366414  1
  V  V56  1  0.36741348  0.62927651  0.25617721  1
  V  V57  1  0.63158366  0.00374257  0.11849979  1
  V  V58  1  0.62276602  0.62702491  0.49917690  1
  V  V59  1  0.62865962  0.37159773  0.25864148  1
  V  V60  1  0.62153556  0.62125687  0.00041885  1
  V  V61  1  0.00244588  0.25537562  0.25333852  1
  V  V62  1  0.61852943  0.86600830  0.73203904  1
  V  V63  1  0.50404496  0.88401016  0.37498343  1
  V  V64  1  0.36852605  0.50907219  0.37918001  1
  V  V65  1  0.00246417  0.25272174  0.75628682  1
  V  V66  1  0.00397914  0.11910680  0.62854917  1
  V  V67  1  -0.00828864  0.00093664  -0.00235855  1
  V  V68  1  0.73737472  0.22377560  0.52150680  1
  V  V69  1  0.12331697  0.00009661  0.12212694  1
  V  V70  1  0.87039565  0.87566193  0.49027257  1
  V  V71  1  0.49966231  0.00309918  -0.00841517  1
  V  V72  1  0.74801872  0.50244693  0.75195390  1
  V  V73  1  0.13795916  0.74716284  0.37763956  1
  V  V74  1  0.73700136  -0.00592320  0.75642310  1
  V  V75  1  0.62464030  0.37118049  0.74755867  1
  V  V76  1  0.37701864  0.37578493  0.50332800  1
  V  V77  1  0.75114756  0.37191037  0.11904319  1
  V  V78  1  0.87541315  0.63064438  0.74597805  1
  V  V79  1  0.12835996  0.11893931  0.50421793  1
  V  V80  1  0.87288942  0.11740715  0.76624499  1
  V  V81  1  -0.00104306  0.62469836  0.61126092  1
  V  V82  1  -0.01371380  0.87780398  0.87583496  1
  V  V83  1  0.12132529  0.37629411  0.75425899  1
  V  V84  1  0.74809927  0.62863488  0.87469721  1
  Zn  Zn85  1  0.86376925  0.88247512  0.00092829  1
  Zn  Zn86  1  0.49773480  0.87295066  0.86187766  1
  Zn  Zn87  1  0.37940323  0.25852171  0.12096093  1
  Zn  Zn88  1  0.38229113  0.00190826  0.37957803  1
  Zn  Zn89  1  0.62349683  0.50216414  0.62832524  1
  Zn  Zn90  1  0.62827440  0.75200251  0.37190668  1
  Zn  Zn91  1  0.25031014  0.87762303  0.12244095  1
  Zn  Zn92  1  0.50676179  0.63378672  0.63967824  1
  Zn  Zn93  1  0.74763139  0.75432339  0.50024153  1
  Zn  Zn94  1  0.37130227  0.49170642  0.88271000  1
  Zn  Zn95  1  0.25137151  0.11828657  0.87917077  1
  Zn  Zn96  1  0.61394425  0.75168282  0.86750291  1
  Zn  Zn97  1  0.62302548  0.49777511  0.12854022  1
  Zn  Zn98  1  0.50441103  0.12718594  0.12101841  1
  Zn  Zn99  1  0.37250901  0.74642052  0.60744304  1
  Zn  Zn100  1  0.25209457  0.37808063  0.12106516  1
  Zn  Zn101  1  -0.00714579  0.49167953  0.00635164  1
  Zn  Zn102  1  0.39011932  0.88733787  0.51440677  1
  Zn  Zn103  1  0.12744337  0.12869789  -0.00010730  1
  Zn  Zn104  1  0.75065368  0.37966610  0.62439844  1
  Zn  Zn105  1  0.87177462  0.34529496  -0.03202235  1
  Zn  Zn106  1  0.88142447  0.11967559  0.25355878  1
  Zn  Zn107  1  0.18642598  0.19236696  0.18470876  1
  Zn  Zn108  1  0.19022689  0.18539053  0.68878078  1
  Zn  Zn109  1  0.18763763  0.68336616  0.18680799  1
  Zn  Zn110  1  0.18188962  0.68441333  0.69347814  1
  Zn  Zn111  1  0.68838460  0.18342917  0.19135870  1
  Zn  Zn112  1  0.70037832  0.19106888  0.70135148  1
  Zn  Zn113  1  0.68926753  0.68549152  0.18494481  1
  Zn  Zn114  1  0.68851876  0.69005889  0.68217332  1
  Zn  Zn115  1  0.31608090  0.31642695  0.31157920  1
  Zn  Zn116  1  0.31690304  0.30903178  0.81460829  1
  Zn  Zn117  1  0.31623784  0.81728984  0.31410333  1
  Zn  Zn118  1  0.30530609  0.81466967  0.81400222  1
  Zn  Zn119  1  0.80996809  0.30339177  0.32068307  1
  Zn  Zn120  1  0.81795532  0.31794501  0.80480948  1
  Zn  Zn121  1  0.81575363  0.81324696  0.31131748  1
  Zn  Zn122  1  0.80386509  0.81653146  0.80987455  1
  Zn  Zn123  1  0.19009699  0.43905162  0.43887626  1
  Zn  Zn124  1  0.18075929  0.43651793  0.94125953  1
  Zn  Zn125  1  0.20322389  0.94495580  0.44405628  1
  Zn  Zn126  1  0.18544312  0.93848363  0.93461621  1
  Zn  Zn127  1  0.68860540  0.43545062  0.44203635  1
  Zn  Zn128  1  0.68908985  0.30958275  0.93101290  1
  Zn  Zn129  1  0.68255645  0.93984352  0.42947025  1
  Zn  Zn130  1  0.68157616  0.93811705  0.92703868  1
  Zn  Zn131  1  0.31417054  0.06948914  0.06110884  1
  Zn  Zn132  1  0.33032505  0.03667554  0.56869680  1
  Zn  Zn133  1  0.30977974  0.56383755  0.06757947  1
  Zn  Zn134  1  0.31269820  0.56306327  0.57015666  1
  Zn  Zn135  1  0.81252389  0.06768648  0.06459839  1
  Zn  Zn136  1  0.70388887  0.03679582  0.57562337  1
  Zn  Zn137  1  0.80785488  0.56264204  0.06224945  1
  Zn  Zn138  1  0.81199976  0.56291650  0.56180715  1
  Zn  Zn139  1  0.43435010  0.43704899  0.18715863  1
  Zn  Zn140  1  0.43905390  0.43625149  0.68849877  1
  Zn  Zn141  1  0.44223237  0.94006475  0.18168946  1
  Zn  Zn142  1  0.43988058  0.93890114  0.67515001  1
  Zn  Zn143  1  0.93847117  0.43347453  0.19131617  1
  Zn  Zn144  1  0.93873904  0.44153022  0.68905227  1
  Zn  Zn145  1  0.94082177  0.93356568  0.18502169  1
  Zn  Zn146  1  0.88838537  0.97019181  0.65134122  1
  Zn  Zn147  1  0.06683029  0.06448324  0.31265149  1
  Zn  Zn148  1  0.06086402  0.06422192  0.81638983  1
  Zn  Zn149  1  0.06423475  0.56407754  0.31585660  1
  Zn  Zn150  1  0.06413753  0.56853491  0.80629180  1
  Zn  Zn151  1  0.56753430  0.05868794  0.30730883  1
  Zn  Zn152  1  0.56435102  0.06027794  0.81379055  1
  Zn  Zn153  1  0.56092148  0.56441256  0.31327776  1
  Zn  Zn154  1  0.56214616  0.55772761  0.82077165  1
  Zn  Zn155  1  0.43290214  0.18936690  0.43124834  1
  Zn  Zn156  1  0.44205078  0.18460649  0.93444890  1
  Zn  Zn157  1  0.43411665  0.69951716  0.44164178  1
  Zn  Zn158  1  0.43557392  0.68860234  0.93510026  1
  Zn  Zn159  1  0.93576722  0.18967758  0.44136431  1
  Zn  Zn160  1  0.94131700  0.18924172  0.94053683  1
  Zn  Zn161  1  0.94280799  0.69035693  0.43145435  1
  Zn  Zn162  1  0.93394459  0.68906191  0.93846768  1
  Zn  Zn163  1  0.05593442  0.32058162  0.05687758  1
  Zn  Zn164  1  0.06262410  0.31169610  0.56159694  1
  Zn  Zn165  1  0.05839845  0.81412936  0.06379366  1
  Zn  Zn166  1  0.06584697  0.81396910  0.56023704  1
  Zn  Zn167  1  0.56549808  0.31380588  0.06682488  1
  Zn  Zn168  1  0.56573883  0.18722936  0.56984429  1
  Zn  Zn169  1  0.56043595  0.81375606  0.05678506  1
  Zn  Zn170  1  0.55950219  0.80725373  0.56268608  1
  O  O171  1  0.11456240  0.11945177  0.12557571  1
  O  O172  1  0.11619144  0.13466074  0.61547385  1
  O  O173  1  0.12990132  0.61170223  0.11661005  1
  O  O174  1  0.11849617  0.61863475  0.61932227  1
  O  O175  1  0.62478151  0.11873087  0.11753186  1
  O  O176  1  0.66940413  0.15167740  0.59832175  1
  O  O177  1  0.61680366  0.62253205  0.12019539  1
  O  O178  1  0.62422549  0.62163627  0.61396336  1
  O  O179  1  0.38026794  0.38547526  0.38341547  1
  O  O180  1  0.39273066  0.37676049  0.86738725  1
  O  O181  1  0.39824152  0.88038271  0.35907194  1
  O  O182  1  0.37363440  0.87402635  0.88696863  1
  O  O183  1  0.88067145  0.37723679  0.38301035  1
  O  O184  1  0.88199432  0.40433189  0.86105538  1
  O  O185  1  0.89617250  0.86633509  0.37715434  1
  O  O186  1  0.88380334  0.86858457  0.87847715  1
  O  O187  1  0.23090829  0.01419904  0.35026587  1
  O  O188  1  0.24435253  0.00114605  0.85970586  1
  O  O189  1  0.26175593  0.50067181  0.37132990  1
  O  O190  1  0.24778448  0.50494928  0.87149651  1
  O  O191  1  0.75061727  0.01182414  0.36254171  1
  O  O192  1  0.75411139  -0.00518378  0.85603091  1
  O  O193  1  0.75545401  0.50729780  0.36746313  1
  O  O194  1  0.76271544  0.51807486  0.86262776  1
  O  O195  1  0.24166424  0.49985041  0.13523463  1
  O  O196  1  0.24243509  0.49297447  0.63476364  1
  O  O197  1  0.24204945  1.00424509  0.13131258  1
  O  O198  1  0.24934968  0.98521467  0.64314004  1
  O  O199  1  0.75036128  0.49356946  0.13959341  1
  O  O200  1  0.75214648  0.50175549  0.64016207  1
  O  O201  1  0.74031336  1.00382013  0.13070798  1
  O  O202  1  0.77563040  1.00333287  0.65335332  1
  O  O203  1  -0.00126908  0.36251521  0.26234026  1
  O  O204  1  0.01454944  0.36936101  0.74344173  1
  O  O205  1  0.00872469  0.86837582  0.25472058  1
  O  O206  1  0.00378094  0.86962164  0.76161625  1
  O  O207  1  0.50930937  0.37137694  0.25501690  1
  O  O208  1  0.50708892  0.36661357  0.75361781  1
  O  O209  1  0.51071275  0.86896880  0.24862273  1
  O  O210  1  0.51465361  0.88923311  0.74363825  1
  O  O211  1  0.49462605  0.13444676  0.25201988  1
  O  O212  1  0.48965890  0.12719192  0.75269467  1
  O  O213  1  0.49246271  0.63287383  0.24412311  1
  O  O214  1  0.48166470  0.61513433  0.75709950  1
  O  O215  1  1.00216422  0.13513200  0.24555471  1
  O  O216  1  0.99968037  0.13453635  0.74450616  1
  O  O217  1  0.99008356  0.63254844  0.25683984  1
  O  O218  1  0.99570871  0.63567635  0.73877449  1
  O  O219  1  0.36322895  0.24477480  -0.00076704  1
  O  O220  1  0.37098004  0.25246083  0.50783947  1
  O  O221  1  0.36684734  0.75681170  0.00841236  1
  O  O222  1  0.37130720  0.77327231  0.49406857  1
  O  O223  1  0.88739379  0.24135406  0.02634976  1
  O  O224  1  0.86459894  0.25182286  0.51116045  1
  O  O225  1  0.86442545  0.74787252  0.00922755  1
  O  O226  1  0.87852893  0.75778892  0.50218244  1
  O  O227  1  0.12980422  0.24332035  0.49157504  1
  O  O228  1  0.12911830  0.25296640  0.99223794  1
  O  O229  1  0.11907107  0.73946046  0.48902748  1
  O  O230  1  0.12784993  0.74311859  0.99918365  1
  O  O231  1  0.64263789  0.26596231  0.49602757  1
  O  O232  1  0.62454626  0.24070743  0.99953969  1
  O  O233  1  0.62987250  0.74034016  0.49268891  1
  O  O234  1  0.63094633  0.73862920  1.00406875  1
  O  O235  1  0.50187500  0.24989793  0.13902653  1
  O  O236  1  0.49136440  0.24222184  0.63697202  1
  O  O237  1  0.49265392  0.74686650  0.13244915  1
  O  O238  1  0.48812296  0.74176115  0.61701704  1
  O  O239  1  1.00174569  0.24547990  0.13756342  1
  O  O240  1  0.99967838  0.24566819  0.63526501  1
  O  O241  1  0.99382050  0.75135068  0.13807044  1
  O  O242  1  0.99170532  0.74351422  0.62712963  1
  O  O243  1  0.00714062  0.25653188  0.37210032  1
  O  O244  1  0.00815181  0.25023712  0.86359871  1
  O  O245  1  0.01061779  0.75641208  0.36182916  1
  O  O246  1  0.00228188  0.75738280  0.87200898  1
  O  O247  1  0.50459228  0.26445303  0.36408872  1
  O  O248  1  0.49506094  0.25470639  0.86020918  1
  O  O249  1  0.50444532  0.75631366  0.35784933  1
  O  O250  1  0.50168860  0.75975199  0.88471703  1
  O  O251  1  0.24251486  0.13207026  0.49519396  1
  O  O252  1  0.24597916  0.13679145  0.99731144  1
  O  O253  1  0.23933802  0.62336992  0.50632502  1
  O  O254  1  0.24254009  0.62862091  0.99414083  1
  O  O255  1  0.76551464  0.12099519  0.48545793  1
  O  O256  1  0.73693568  0.12338203  0.99991690  1
  O  O257  1  0.74038101  0.62232730  0.49017840  1
  O  O258  1  0.74009161  0.62961043  0.99273940  1
  O  O259  1  0.24902565  0.36145412  -0.00274318  1
  O  O260  1  0.25724617  0.36870489  0.50653097  1
  O  O261  1  0.25592459  0.87148099  0.00214696  1
  O  O262  1  0.21632686  0.86905324  0.53015694  1
  O  O263  1  0.74715258  0.38246299  0.01970267  1
  O  O264  1  0.76395309  0.37263143  0.50336534  1
  O  O265  1  0.74614859  0.86133617  -0.00747452  1
  O  O266  1  0.76804938  0.87131772  0.47724955  1
  O  O267  1  0.13322523  0.50956969  0.24024762  1
  O  O268  1  0.13376473  0.49492380  0.74415361  1
  O  O269  1  0.12795454  0.99723405  0.23590185  1
  O  O270  1  0.12712450  0.99246849  0.75343647  1
  O  O271  1  0.63365089  0.49227818  0.25196334  1
  O  O272  1  0.63379947  0.49563763  0.75389786  1
  O  O273  1  0.63583716  0.99316205  0.23828446  1
  O  O274  1  0.63402124  1.00172305  0.74253772  1
  O  O275  1  0.36705413  0.00927109  0.24662301  1
  O  O276  1  0.37041344  0.01157744  0.74744550  1
  O  O277  1  0.36870788  0.51002706  0.25941330  1
  O  O278  1  0.36019193  0.50300344  0.75113086  1
  O  O279  1  0.86440481  -0.00323888  0.24175263  1
  O  O280  1  0.88941236  0.01759138  0.75707046  1
  O  O281  1  0.86987294  0.50556157  0.25772573  1
  O  O282  1  0.87133136  0.51317152  0.75441293  1
  O  O283  1  0.11586093  0.36754085  0.38630589  1
  O  O284  1  0.12753603  0.36547864  0.86543026  1
  O  O285  1  0.12081602  0.86925388  0.36921969  1
  O  O286  1  0.11501856  0.86832243  0.86970404  1
  O  O287  1  0.62024833  0.37662417  0.36783268  1
  O  O288  1  0.61265441  0.36907217  0.86363047  1
  O  O289  1  0.61806032  0.87294154  0.35592185  1
  O  O290  1  0.62077897  0.87257420  0.85678515  1
  O  O291  1  0.38005043  0.13353244  0.13650897  1
  O  O292  1  0.36635182  0.13345276  0.63397415  1
  O  O293  1  0.37914943  0.63778968  0.13177164  1
  O  O294  1  0.36850406  0.62780651  0.64570444  1
  O  O295  1  0.88873811  0.12922816  0.13187750  1
  O  O296  1  0.88941548  0.14163706  0.63790364  1
  O  O297  1  0.86996681  0.62991250  0.13772781  1
  O  O298  1  0.88344366  0.63099761  0.62631014  1
  O  O299  1  0.24694828  0.25323536  0.10924186  1
  O  O300  1  0.25726206  0.25564151  0.62121309  1
  O  O301  1  0.25731193  0.75167403  0.12049902  1
  O  O302  1  0.24554316  0.75777542  0.63695492  1
  O  O303  1  0.75954734  0.25842063  0.13794364  1
  O  O304  1  0.76690163  0.26042738  0.62749384  1
  O  O305  1  0.75905932  0.74424115  0.11531108  1
  O  O306  1  0.76800878  0.74371229  0.61742091  1
  O  O307  1  0.24453544  0.24767686  0.37917629  1
  O  O308  1  0.24453824  0.24935314  0.88487947  1
  O  O309  1  0.23669114  0.75511239  0.36510271  1
  O  O310  1  0.24111681  0.74200575  0.88331092  1
  O  O311  1  0.74004789  0.23227264  0.38653131  1
  O  O312  1  0.79296693  0.28144965  0.90508820  1
  O  O313  1  0.75195981  0.73526795  0.37189409  1
  O  O314  1  0.74724319  0.74014667  0.88103325  1
  O  O315  1  0.00606399  0.11784602  0.00919321  1
  O  O316  1  0.00546064  0.12102266  0.50541586  1
  O  O317  1  0.01075223  0.62501714  -0.00124791  1
  O  O318  1  0.00577722  0.62722339  0.50910519  1
  O  O319  1  0.50764413  0.11870059  0.00116158  1
  O  O320  1  0.53679764  0.16253569  0.46361205  1
  O  O321  1  0.50279806  0.62099448  0.00760240  1
  O  O322  1  0.51090823  0.61735654  0.48986342  1
  O  O323  1  0.49254562  0.39347404  0.49353662  1
  O  O324  1  0.50777511  0.38271731  0.99399541  1
  O  O325  1  0.51117089  0.86816932  0.47447354  1
  O  O326  1  0.48998882  0.88634259  1.00343519  1
  O  O327  1  0.98602988  0.36532028  0.49162691  1
  O  O328  1  0.97711421  0.37885993  1.00470154  1
  O  O329  1  1.00215652  0.88354219  0.48996639  1
  O  O330  1  0.99678363  0.88282831  0.99312066  1
  O  O331  1  0.48833443  0.49878112  0.37912105  1
  O  O332  1  0.49738120  0.48982063  0.88726093  1
  O  O333  1  0.50098722  0.98925863  0.36794917  1
  O  O334  1  0.50217791  0.99610973  0.88850110  1
  O  O335  1  0.99673459  0.48621163  0.37022353  1
  O  O336  1  0.98815662  0.51692541  0.87414695  1
  O  O337  1  1.00858883  0.99148875  0.38005541  1
  O  O338  1  1.00712652  0.99100304  0.88817866  1
  O  O339  1  0.00672030  0.00740057  0.12127947  1
  O  O340  1  -0.00515725  0.01546086  0.61595317  1
  O  O341  1  0.01202932  0.49926815  0.13117948  1
  O  O342  1  0.01090595  0.51155097  0.63193441  1
  O  O343  1  0.51502820  0.00406486  0.11754979  1
  O  O344  1  0.43156010  -0.01763867  0.57455785  1
  O  O345  1  0.50104849  0.50598334  0.12212804  1
  O  O346  1  0.49789784  0.50938642  0.61644926  1
  O  O347  1  0.24924183  0.39107186  0.25569726  1
  O  O348  1  0.24191146  0.37944620  0.74743191  1
  O  O349  1  0.24605293  0.88680319  0.24581139  1
  O  O350  1  0.23443263  0.87944842  0.75024378  1
  O  O351  1  0.74428515  0.38017249  0.25524859  1
  O  O352  1  0.74378099  0.38634611  0.75105158  1
  O  O353  1  0.74364019  0.88296486  0.25509550  1
  O  O354  1  0.73580815  0.88525403  0.74764425  1
  O  O355  1  0.25871413  0.12489952  0.24975920  1
  O  O356  1  0.25981891  0.11772118  0.75101095  1
  O  O357  1  0.26390383  0.61857213  0.24702364  1
  O  O358  1  0.25142019  0.61573862  0.76200721  1
  O  O359  1  0.75772298  0.11589829  0.25694090  1
  O  O360  1  0.76704944  0.11793683  0.75743953  1
  O  O361  1  0.75608158  0.61567217  0.25601701  1
  O  O362  1  0.75329565  0.62363073  0.75544907  1
  O  O363  1  0.36760503  0.12095626  0.36445527  1
  O  O364  1  0.37140670  0.12836875  0.85940954  1
  O  O365  1  0.38236060  0.62065926  0.36679016  1
  O  O366  1  0.36207452  0.61850911  0.87044148  1
  O  O367  1  0.86584794  0.13062497  0.37011481  1
  O  O368  1  0.88443424  0.12981338  0.86353418  1
  O  O369  1  0.86998639  0.61935095  0.36821994  1
  O  O370  1  0.86780169  0.62749090  0.86435824  1
  O  O371  1  0.12942447  0.39267600  0.12197682  1
  O  O372  1  0.13022166  0.38212351  0.62947608  1
  O  O373  1  0.12590543  0.88352269  0.13136500  1
  O  O374  1  0.12154781  0.86503857  0.64778044  1
  O  O375  1  0.63356229  0.37447753  0.14252674  1
  O  O376  1  0.62876738  0.38356622  0.64358690  1
  O  O377  1  0.62299214  0.88218272  0.13131260  1
  O  O378  1  0.62732472  0.87067462  0.63240098  1
  O  O379  1  0.12047400  0.24775182  0.26481912  1
  O  O380  1  0.12206060  0.25843023  0.75518631  1
  O  O381  1  0.11935266  0.75170877  0.25225658  1
  O  O382  1  0.11434898  0.75214311  0.76176274  1
  O  O383  1  0.61862890  0.25381799  0.26324023  1
  O  O384  1  0.61687457  0.25518653  0.74586610  1
  O  O385  1  0.61937649  0.75646231  0.24541187  1
  O  O386  1  0.62695424  0.76225887  0.74608532  1
  O  O387  1  0.38546812  0.24307158  0.25489039  1
  O  O388  1  0.38112184  0.23966050  0.74225017  1
  O  O389  1  0.38137365  0.74616456  0.24371173  1
  O  O390  1  0.36794534  0.73385853  0.76039779  1
  O  O391  1  0.88576828  0.24733099  0.24652616  1
  O  O392  1  0.88722934  0.24777076  0.74490326  1
  O  O393  1  0.88138402  0.74187787  0.24345495  1
  O  O394  1  0.87809098  0.75040954  0.73940551  1
  O  O395  1  0.37917601  0.50116159  0.49610485  1
  O  O396  1  0.38742187  0.50702110  1.00273518  1
  O  O397  1  0.31614956  0.97531145  0.46957193  1
  O  O398  1  0.38475338  0.99271762  1.01056367  1
  O  O399  1  0.87229512  0.49115711  0.49238581  1
  O  O400  1  0.87494348  0.51545673  0.98193286  1
  O  O401  1  0.89228520  0.98937745  0.49862289  1
  O  O402  1  0.88732805  0.99891793  1.00954422  1
  O  O403  1  0.11866215  -0.00024539  0.01184402  1
  O  O404  1  0.11792660  0.01562185  0.49508723  1
  O  O405  1  0.11839439  0.50618160  0.01126556  1
  O  O406  1  0.12912209  0.50565890  0.51267531  1
  O  O407  1  0.62074797  0.00683115  0.00314232  1
  O  O408  1  0.63311555  -0.00245151  0.50601261  1
  O  O409  1  0.61103316  0.51604706  0.00651383  1
  O  O410  1  0.61639773  0.50610540  0.50153802  1
  O  O411  1  0.36525286  0.36933191  0.13559298  1
  O  O412  1  0.37128146  0.36621240  0.62097121  1
  O  O413  1  0.37445567  0.86429103  0.12120937  1
  O  O414  1  0.34978722  0.86222392  0.63757198  1
  O  O415  1  0.86346783  0.36635994  0.13718994  1
  O  O416  1  0.88111145  0.36819055  0.61937744  1
  O  O417  1  0.87798601  0.85990649  0.12177657  1
  O  O418  1  0.88332619  0.86658869  0.60453683  1
  O  O419  1  0.12947983  0.13635268  0.38291797  1
  O  O420  1  0.12725367  0.14093530  0.87502167  1
  O  O421  1  0.12289569  0.63275507  0.38620068  1
  O  O422  1  0.13226663  0.62887254  0.88290466  1
  O  O423  1  0.64269107  0.12674623  0.36215156  1
  O  O424  1  0.62593579  0.12465087  0.88772097  1
  O  O425  1  0.63510879  0.62517555  0.37889517  1
  O  O426  1  0.63139164  0.62784094  0.88278412  1
