# generated using pymatgen
data_V85Zn86O256
_symmetry_space_group_name_H-M   'P 1'
_cell_length_a   16.95531974
_cell_length_b   16.94497462
_cell_length_c   16.95086559
_cell_angle_alpha   89.98124036
_cell_angle_beta   89.83760884
_cell_angle_gamma   89.98684586
_symmetry_Int_Tables_number   1
_chemical_formula_structural   V85Zn86O256
_chemical_formula_sum   'V85 Zn86 O256'
_cell_volume   4870.09023433
_cell_formula_units_Z   1
loop_
 _symmetry_equiv_pos_site_id
 _symmetry_equiv_pos_as_xyz
  1  'x, y, z'
loop_
 _atom_site_type_symbol
 _atom_site_label
 _atom_site_symmetry_multiplicity
 _atom_site_fract_x
 _atom_site_fract_y
 _atom_site_fract_z
 _atom_site_occupancy
  V  V0  1  0.92592090  0.30985722  0.56765477  1
  V  V1  1  0.80552025  0.56953226  0.91854346  1
  V  V2  1  0.62627944  0.12378166  0.51088267  1
  V  V3  1  0.25086851  -0.00278905  0.74741131  1
  V  V4  1  0.64140738  -0.00446763  0.12881285  1
  V  V5  1  0.63199899  0.37363061  0.24658273  1
  V  V6  1  0.50150420  0.49906205  0.49975173  1
  V  V7  1  0.87683245  0.00279643  0.87375774  1
  V  V8  1  0.24477177  0.50721569  0.24793642  1
  V  V9  1  0.75144818  0.25942346  0.00506090  1
  V  V10  1  0.62563880  0.12430358  0.00071901  1
  V  V11  1  0.87164752  -0.00390917  0.37749299  1
  V  V12  1  0.24129743  0.87592502  0.13922573  1
  V  V13  1  0.74988371  0.25926326  0.50426993  1
  V  V14  1  0.50031073  0.62567200  0.12511172  1
  V  V15  1  0.24893415  0.37647923  0.12303821  1
  V  V16  1  0.49061724  0.49740519  -0.00247024  1
  V  V17  1  0.24757468  0.75128475  0.00103815  1
  V  V18  1  0.75394929  -0.00168082  0.74625961  1
  V  V19  1  0.12123103  0.00411922  0.62421739  1
  V  V20  1  0.75431834  0.50755274  0.25624178  1
  V  V21  1  0.00459662  0.61798416  0.61358985  1
  V  V22  1  -0.00432905  0.25341262  0.24913484  1
  V  V23  1  0.12906695  0.87226429  0.73903911  1
  V  V24  1  0.37357890  0.87365303  0.00141452  1
  V  V25  1  0.11437542  0.50004909  0.12210281  1
  V  V26  1  0.87210282  0.12166765  0.24756183  1
  V  V27  1  0.62703584  0.49455322  0.12474943  1
  V  V28  1  0.37424747  0.24674881  0.12306134  1
  V  V29  1  0.25385037  0.37225348  0.62345646  1
  V  V30  1  0.63605527  0.87467786  0.25210119  1
  V  V31  1  0.11781369  0.12539245  0.50133317  1
  V  V32  1  0.37699408  0.62062363  0.75703562  1
  V  V33  1  0.37431668  0.50502523  0.37830315  1
  V  V34  1  0.74818263  0.49812947  0.75175706  1
  V  V35  1  0.00197585  0.87691595  0.87315904  1
  V  V36  1  0.37490427  0.75035383  0.12764249  1
  V  V37  1  0.37546516  0.24117991  0.63117259  1
  V  V38  1  0.37354308  0.62628823  0.25306890  1
  V  V39  1  0.36727086  0.75679683  0.62362131  1
  V  V40  1  0.49468975  0.37571489  0.86437627  1
  V  V41  1  0.62589123  0.62517867  -0.00124090  1
  V  V42  1  0.00538684  0.12845067  0.12019515  1
  V  V43  1  0.49816248  -0.00114755  0.50577543  1
  V  V44  1  0.49730402  0.25005745  0.24756701  1
  V  V45  1  0.50307737  0.75374198  0.25957022  1
  V  V46  1  0.62945576  0.87401073  0.74770321  1
  V  V47  1  -0.00382524  0.24872478  0.75212006  1
  V  V48  1  0.12137574  0.24158741  0.37216995  1
  V  V49  1  -0.00230703  -0.01025794  0.50120551  1
  V  V50  1  0.13178253  0.76303676  0.37008495  1
  V  V51  1  0.24984408  0.01936569  0.25849958  1
  V  V52  1  0.29594503  0.18884703  0.43855793  1
  V  V53  1  0.50034888  -0.00160347  0.00397915  1
  V  V54  1  -0.00123375  0.74813105  0.74508793  1
  V  V55  1  0.62331554  0.25345840  0.86747080  1
  V  V56  1  0.50177815  0.87407381  0.87726859  1
  V  V57  1  0.12325146  0.24695498  0.88479222  1
  V  V58  1  0.18977171  0.57573609  0.43699321  1
  V  V59  1  0.63245321  0.74477639  0.87378539  1
  V  V60  1  0.11710256  0.62347588  -0.00080502  1
  V  V61  1  0.50339758  0.62552934  0.62574039  1
  V  V62  1  0.75411310  0.75338737  0.48703016  1
  V  V63  1  0.24710352  0.12355196  0.88192182  1
  V  V64  1  -0.00542796  0.38899013  0.88294516  1
  V  V65  1  0.25485423  0.49760255  0.75808614  1
  V  V66  1  -0.00072979  0.63335967  0.13486597  1
  V  V67  1  0.75151377  0.12730282  0.87421024  1
  V  V68  1  -0.00150983  0.87122888  0.35745545  1
  V  V69  1  0.63033375  0.63115729  0.48701366  1
  V  V70  1  0.87458568  0.75669488  0.13394907  1
  V  V71  1  0.87265195  0.62319009  0.75019055  1
  V  V72  1  0.62679307  0.49361023  0.62744352  1
  V  V73  1  0.50185420  0.74940211  0.74961883  1
  V  V74  1  0.49497008  0.11909596  0.13172535  1
  V  V75  1  0.12806526  0.74979126  0.87283963  1
  V  V76  1  0.75210248  0.75570556  0.00140261  1
  V  V77  1  0.87263407  0.87989858  0.00437903  1
  V  V78  1  0.62750137  0.25028911  0.37345174  1
  V  V79  1  0.12539385  0.37598601  0.75258729  1
  V  V80  1  0.87771692  0.12979946  0.73557361  1
  V  V81  1  0.01030727  0.00587014  -0.00177650  1
  V  V82  1  0.37557718  0.00020837  0.87552072  1
  V  V83  1  0.74854938  0.12228431  0.37172646  1
  V  V84  1  0.87988072  0.49997431  0.39375534  1
  Zn  Zn85  1  0.50088770  0.87747178  0.37627706  1
  Zn  Zn86  1  -0.00626102  0.37369958  0.38585495  1
  Zn  Zn87  1  0.37177141  0.37618779  -0.00438765  1
  Zn  Zn88  1  0.24651517  0.24448689  0.00375064  1
  Zn  Zn89  1  0.62146379  0.00289082  0.63019632  1
  Zn  Zn90  1  0.87131013  0.63454031  0.25967951  1
  Zn  Zn91  1  0.50871984  0.24231301  0.73919466  1
  Zn  Zn92  1  0.12661781  0.50240318  0.61672700  1
  Zn  Zn93  1  0.38379832  0.11979548  0.74960965  1
  Zn  Zn94  1  0.25469262  0.61894519  0.88029833  1
  Zn  Zn95  1  0.36547056  0.87772836  0.49760974  1
  Zn  Zn96  1  0.12018643  0.37607280  0.25181339  1
  Zn  Zn97  1  0.86980572  0.25913243  0.12613761  1
  Zn  Zn98  1  0.49857548  0.37638534  0.37234315  1
  Zn  Zn99  1  0.75703765  0.87217498  0.61670741  1
  Zn  Zn100  1  0.37379482  0.37117599  0.49843175  1
  Zn  Zn101  1  0.75209008  0.37329363  0.63078077  1
  Zn  Zn102  1  0.23844344  0.75688899  0.50343994  1
  Zn  Zn103  1  0.12340949  -0.00026934  0.12971852  1
  Zn  Zn104  1  0.37422153  0.00079397  0.37097205  1
  Zn  Zn105  1  0.87383668  0.75347123  0.61662728  1
  Zn  Zn106  1  0.87214664  0.39394226  0.00098689  1
  Zn  Zn107  1  0.18323218  0.18740918  0.18623404  1
  Zn  Zn108  1  0.19081998  0.18489994  0.69123085  1
  Zn  Zn109  1  0.18298830  0.68989683  0.19197241  1
  Zn  Zn110  1  0.18784795  0.68112086  0.68710617  1
  Zn  Zn111  1  0.68546689  0.18330691  0.18676843  1
  Zn  Zn112  1  0.69443226  0.19062060  0.68762233  1
  Zn  Zn113  1  0.68739456  0.69025928  0.18649561  1
  Zn  Zn114  1  0.69206108  0.68336164  0.68091089  1
  Zn  Zn115  1  0.31558722  0.32088787  0.30394330  1
  Zn  Zn116  1  0.31344059  0.30927655  0.81239369  1
  Zn  Zn117  1  0.31573141  0.81559331  0.31899050  1
  Zn  Zn118  1  0.31310965  0.81130903  0.81157194  1
  Zn  Zn119  1  0.81276626  0.31662104  0.31484980  1
  Zn  Zn120  1  0.81458158  0.31559177  0.81600539  1
  Zn  Zn121  1  0.80888483  0.81575472  0.31906683  1
  Zn  Zn122  1  0.81568324  0.81162195  0.81266268  1
  Zn  Zn123  1  0.18854592  0.41263742  0.43542733  1
  Zn  Zn124  1  0.18432732  0.43672936  0.93874286  1
  Zn  Zn125  1  0.19027004  0.93495586  0.43674861  1
  Zn  Zn126  1  0.18762363  0.93445580  0.93498251  1
  Zn  Zn127  1  0.68760706  0.43940061  0.43337136  1
  Zn  Zn128  1  0.67534578  0.43253286  0.93820844  1
  Zn  Zn129  1  0.68452509  0.93706106  0.43512362  1
  Zn  Zn130  1  0.68881459  0.93740837  0.93583980  1
  Zn  Zn131  1  0.31135870  0.06055455  0.06527204  1
  Zn  Zn132  1  0.31040906  0.05329715  0.56675050  1
  Zn  Zn133  1  0.30932475  0.56510532  0.06496136  1
  Zn  Zn134  1  0.31723017  0.56170663  0.57345953  1
  Zn  Zn135  1  0.81716337  0.06958950  0.05993966  1
  Zn  Zn136  1  0.81044065  0.06195511  0.55894041  1
  Zn  Zn137  1  0.80994818  0.56548664  0.08403216  1
  Zn  Zn138  1  0.80980905  0.57044830  0.56655923  1
  Zn  Zn139  1  0.43706598  0.43584988  0.18767146  1
  Zn  Zn140  1  0.43668457  0.43515453  0.68592111  1
  Zn  Zn141  1  0.43174235  0.93624992  0.19194185  1
  Zn  Zn142  1  0.44099977  0.93746933  0.68756443  1
  Zn  Zn143  1  0.93337654  0.43465919  0.18227212  1
  Zn  Zn144  1  0.94045779  0.44616302  0.69744583  1
  Zn  Zn145  1  0.93305478  0.94362426  0.18553067  1
  Zn  Zn146  1  0.93790071  0.93556375  0.68279391  1
  Zn  Zn147  1  0.06370773  0.05957911  0.31029577  1
  Zn  Zn148  1  0.06302612  0.06593248  0.80952589  1
  Zn  Zn149  1  0.05155321  0.55929638  0.31266934  1
  Zn  Zn150  1  0.06567895  0.56436117  0.80890397  1
  Zn  Zn151  1  0.56301929  0.05923180  0.31403677  1
  Zn  Zn152  1  0.56264936  0.06454507  0.81186300  1
  Zn  Zn153  1  0.56019679  0.56205502  0.31063166  1
  Zn  Zn154  1  0.56427115  0.55934788  0.81316999  1
  Zn  Zn155  1  0.45700616  0.18374350  0.43933224  1
  Zn  Zn156  1  0.43735306  0.18721514  0.93796320  1
  Zn  Zn157  1  0.43684250  0.68553883  0.43955843  1
  Zn  Zn158  1  0.43951848  0.68776580  0.93781275  1
  Zn  Zn159  1  0.93973086  0.17894227  0.43456824  1
  Zn  Zn160  1  0.93557535  0.18901566  0.93391100  1
  Zn  Zn161  1  0.93751125  0.68749839  0.43220863  1
  Zn  Zn162  1  0.94374009  0.69479739  0.94163655  1
  Zn  Zn163  1  0.05776082  0.31530390  0.06293795  1
  Zn  Zn164  1  0.08709889  0.30598826  0.56562533  1
  Zn  Zn165  1  0.05993506  0.81477520  0.06364330  1
  Zn  Zn166  1  0.06316178  0.80898242  0.55623702  1
  Zn  Zn167  1  0.56217836  0.31264292  0.05862100  1
  Zn  Zn168  1  0.56139384  0.31445005  0.56078751  1
  Zn  Zn169  1  0.56435791  0.81337132  0.06791536  1
  Zn  Zn170  1  0.56460872  0.81286477  0.56245229  1
  O  O171  1  0.10978412  0.12399094  0.12370095  1
  O  O172  1  0.12993960  0.11682559  0.61668488  1
  O  O173  1  0.11813013  0.62199553  0.11974249  1
  O  O174  1  0.11096907  0.62122733  0.62840762  1
  O  O175  1  0.61788232  0.11218646  0.12127202  1
  O  O176  1  0.63517212  0.12393959  0.61371832  1
  O  O177  1  0.61911980  0.61883439  0.11803018  1
  O  O178  1  0.61831816  0.61429641  0.61685307  1
  O  O179  1  0.37276622  0.38997216  0.37761056  1
  O  O180  1  0.38924373  0.36760807  0.87825214  1
  O  O181  1  0.38364347  0.87967584  0.38017911  1
  O  O182  1  0.38071658  0.87878132  0.88179256  1
  O  O183  1  0.87566222  0.39267477  0.37163815  1
  O  O184  1  0.89022756  0.37536162  0.88114445  1
  O  O185  1  0.88473611  0.88611105  0.36936682  1
  O  O186  1  0.88279581  0.88192149  0.88208926  1
  O  O187  1  0.25072581  0.00235859  0.36222574  1
  O  O188  1  0.25324126  0.00418000  0.86831373  1
  O  O189  1  0.24792469  0.50622344  0.37406723  1
  O  O190  1  0.24815807  0.49861396  0.86360293  1
  O  O191  1  0.76009868  0.00896765  0.38224954  1
  O  O192  1  0.75505838  0.00550089  0.86485306  1
  O  O193  1  0.75874337  0.49834651  0.36190588  1
  O  O194  1  0.73637629  0.50525099  0.87011680  1
  O  O195  1  0.24132009  0.49568646  0.13171168  1
  O  O196  1  0.24935843  0.49192359  0.63840208  1
  O  O197  1  0.24820791  0.98866878  0.13100660  1
  O  O198  1  0.23908909  1.00103278  0.63973294  1
  O  O199  1  0.73360922  0.50050866  0.13684637  1
  O  O200  1  0.74342934  0.49883027  0.63284580  1
  O  O201  1  0.73912891  1.00638742  0.12145497  1
  O  O202  1  0.74806132  0.99712328  0.63683147  1
  O  O203  1  -0.00128692  0.36156141  0.24847103  1
  O  O204  1  0.00635140  0.36831229  0.75855489  1
  O  O205  1  -0.00097158  0.88169416  0.25900169  1
  O  O206  1  0.00832132  0.86719942  0.75481960  1
  O  O207  1  0.50974962  0.36793499  0.25021860  1
  O  O208  1  0.49774310  0.37054089  0.76153840  1
  O  O209  1  0.50588978  0.86636512  0.24720907  1
  O  O210  1  0.50995714  0.87019264  0.75718629  1
  O  O211  1  0.50723268  0.13340487  0.23882509  1
  O  O212  1  0.49710237  0.12859832  0.75159907  1
  O  O213  1  0.49551364  0.63191465  0.24365652  1
  O  O214  1  0.49551789  0.62945044  0.74704517  1
  O  O215  1  0.99232975  0.13363386  0.24326010  1
  O  O216  1  0.99418857  0.14021926  0.75194337  1
  O  O217  1  0.99454472  0.62504683  0.23781804  1
  O  O218  1  0.99435226  0.63222181  0.74631213  1
  O  O219  1  0.37230096  0.25165155  0.01290532  1
  O  O220  1  0.36542408  0.24372820  0.49815076  1
  O  O221  1  0.36678675  0.75249955  0.00634960  1
  O  O222  1  0.37822743  0.74754784  0.51670531  1
  O  O223  1  0.85625849  0.24632202  -0.00339675  1
  O  O224  1  0.87080884  0.24726348  0.50389031  1
  O  O225  1  0.86977623  0.76103420  0.00455589  1
  O  O226  1  0.85785543  0.74277202  0.49629292  1
  O  O227  1  0.12977700  0.23693474  0.48985828  1
  O  O228  1  0.12565342  0.25384670  0.98817081  1
  O  O229  1  0.12178099  0.74787029  0.48000149  1
  O  O230  1  0.13104749  0.74596145  0.99544118  1
  O  O231  1  0.63028807  0.24312044  0.49500513  1
  O  O232  1  0.63353629  0.24516357  0.99245087  1
  O  O233  1  0.62660727  0.73568527  0.50146240  1
  O  O234  1  0.63346030  0.74758298  0.99545190  1
  O  O235  1  0.49463828  0.24270486  0.12862662  1
  O  O236  1  0.48094155  0.25628799  0.62039847  1
  O  O237  1  0.49334732  0.74415110  0.13003701  1
  O  O238  1  0.49655767  0.74424368  0.63296102  1
  O  O239  1  0.99716746  0.24400900  0.13065879  1
  O  O240  1  0.99274711  0.25972586  0.62985517  1
  O  O241  1  0.98857360  0.74556152  0.12047237  1
  O  O242  1  1.00171544  0.74284936  0.63490064  1
  O  O243  1  0.00423188  0.24977370  0.36710094  1
  O  O244  1  0.00678743  0.25647407  0.86837601  1
  O  O245  1  0.00115299  0.76772695  0.37622225  1
  O  O246  1  0.00825871  0.75470627  0.86379694  1
  O  O247  1  0.50749038  0.25199769  0.36372490  1
  O  O248  1  0.50727637  0.25891697  0.87696333  1
  O  O249  1  0.49842374  0.74822272  0.36202075  1
  O  O250  1  0.50834617  0.75652898  0.87002109  1
  O  O251  1  0.24224563  0.12215988  0.49650229  1
  O  O252  1  0.25148162  0.12297329  0.98730534  1
  O  O253  1  0.25014651  0.62843934  0.50005980  1
  O  O254  1  0.24210803  0.63709717  1.00197622  1
  O  O255  1  0.74552955  0.13380801  0.49002560  1
  O  O256  1  0.74412229  0.13119142  0.99204143  1
  O  O257  1  0.73572648  0.63264556  0.50166542  1
  O  O258  1  0.74662751  0.62930784  0.99408687  1
  O  O259  1  0.25136703  0.37489139  0.01198024  1
  O  O260  1  0.25460069  0.37583896  0.51721345  1
  O  O261  1  0.25297446  0.86503068  0.00511914  1
  O  O262  1  0.25142347  0.87126996  0.50369073  1
  O  O263  1  0.74874500  0.36188410  -0.00708982  1
  O  O264  1  0.74583304  0.36173798  0.49773118  1
  O  O265  1  0.76092836  0.86906186  -0.00490029  1
  O  O266  1  0.73674623  0.85771782  0.49905621  1
  O  O267  1  0.12968640  0.50007911  0.24365188  1
  O  O268  1  0.13265238  0.48768478  0.75015700  1
  O  O269  1  0.14160571  1.00489455  0.24614762  1
  O  O270  1  0.12861771  0.99334975  0.74357015  1
  O  O271  1  0.62989852  0.49377104  0.24556156  1
  O  O272  1  0.63451531  0.50746239  0.73960196  1
  O  O273  1  0.62078298  0.99110153  0.23586358  1
  O  O274  1  0.63504815  0.99093757  0.75285162  1
  O  O275  1  0.35692353  -0.00173804  0.25080592  1
  O  O276  1  0.36661677  -0.00401058  0.75596649  1
  O  O277  1  0.36613277  0.50377537  0.25771412  1
  O  O278  1  0.36904503  0.50865243  0.74567551  1
  O  O279  1  0.87796413  0.01444223  0.25880763  1
  O  O280  1  0.87117558  0.00679734  0.75454365  1
  O  O281  1  0.85796021  0.50299819  0.24163875  1
  O  O282  1  0.86827668  0.51459163  0.75538311  1
  O  O283  1  0.11626297  0.35834362  0.37212582  1
  O  O284  1  0.11806481  0.36791183  0.86935270  1
  O  O285  1  0.11362632  0.87000243  0.37082866  1
  O  O286  1  0.11945390  0.86886229  0.86561516  1
  O  O287  1  0.62255047  0.36822421  0.36558225  1
  O  O288  1  0.60875276  0.36397112  0.87791975  1
  O  O289  1  0.61876852  0.88420432  0.35548613  1
  O  O290  1  0.62262419  0.86524027  0.86795923  1
  O  O291  1  0.38392356  0.13283064  0.12165667  1
  O  O292  1  0.36462255  0.13847316  0.62573618  1
  O  O293  1  0.37952830  0.63108590  0.13197556  1
  O  O294  1  0.38434350  0.63321971  0.63686275  1
  O  O295  1  0.88263780  0.12964325  0.13336234  1
  O  O296  1  0.87126271  0.12199637  0.63675359  1
  O  O297  1  0.88365122  0.63878748  0.12711890  1
  O  O298  1  0.88595561  0.62948264  0.63469438  1
  O  O299  1  0.25579149  0.25759301  0.12638678  1
  O  O300  1  0.26139342  0.25928005  0.63322866  1
  O  O301  1  0.25131483  0.75876086  0.12141482  1
  O  O302  1  0.26466134  0.74324394  0.62689828  1
  O  O303  1  0.74639349  0.24339448  0.10816286  1
  O  O304  1  0.75031213  0.25672655  0.61487177  1
  O  O305  1  0.75776831  0.74458260  0.10912699  1
  O  O306  1  0.75073913  0.74942336  0.61052648  1
  O  O307  1  0.24561682  0.25189612  0.37210574  1
  O  O308  1  0.24224087  0.24184930  0.87631138  1
  O  O309  1  0.23638718  0.75414086  0.37595248  1
  O  O310  1  0.24550467  0.74831485  0.88464913  1
  O  O311  1  0.74584914  0.24364734  0.38106584  1
  O  O312  1  0.74195813  0.24707448  0.88112311  1
  O  O313  1  0.74674562  0.74772128  0.38660416  1
  O  O314  1  0.74321749  0.75293294  0.88596426  1
  O  O315  1  -0.00913208  0.11728699  0.00667866  1
  O  O316  1  0.01208500  0.11277040  0.49624350  1
  O  O317  1  0.01246933  0.63070837  0.00919211  1
  O  O318  1  -0.00510214  0.62996410  0.51610772  1
  O  O319  1  0.50662195  0.11938237  0.00981577  1
  O  O320  1  0.51392812  0.11307605  0.50287491  1
  O  O321  1  0.50583143  0.61857482  0.00399040  1
  O  O322  1  0.50804434  0.61598072  0.50473125  1
  O  O323  1  0.49713434  0.38764326  0.49538796  1
  O  O324  1  0.49609844  0.38319924  0.99319934  1
  O  O325  1  0.50468624  0.88836433  0.49821545  1
  O  O326  1  0.49462025  0.87771301  0.99746990  1
  O  O327  1  0.99387709  0.35925168  0.50930784  1
  O  O328  1  1.00198015  0.37873428  0.98584534  1
  O  O329  1  1.00425126  0.88717922  0.49135481  1
  O  O330  1  0.99311382  0.88351040  0.99291574  1
  O  O331  1  0.49054064  0.49953923  0.38153271  1
  O  O332  1  0.50583476  0.48517271  0.88215748  1
  O  O333  1  0.49502001  1.00475735  0.38830108  1
  O  O334  1  0.49748588  0.99234755  0.88414373  1
  O  O335  1  0.98643177  0.49221905  0.37829703  1
  O  O336  1  1.00532997  0.48684283  0.86976866  1
  O  O337  1  0.99486539  0.99157054  0.37962335  1
  O  O338  1  0.99634233  0.99851075  0.87934336  1
  O  O339  1  0.00073940  0.00814566  0.11543857  1
  O  O340  1  0.01282550  -0.00236106  0.61841960  1
  O  O341  1  0.01045848  0.50891002  0.12858186  1
  O  O342  1  0.00444822  0.51307552  0.62811416  1
  O  O343  1  0.49973950  0.00587264  0.12129830  1
  O  O344  1  0.50382116  -0.00254817  0.61261209  1
  O  O345  1  0.50665105  0.50534072  0.11989226  1
  O  O346  1  0.50508965  0.50406048  0.61786499  1
  O  O347  1  0.24583167  0.38773532  0.23935688  1
  O  O348  1  0.24487897  0.37855476  0.74641804  1
  O  O349  1  0.25003647  0.87339113  0.23898924  1
  O  O350  1  0.23949153  0.88328504  0.75774738  1
  O  O351  1  0.73739632  0.38400883  0.25181077  1
  O  O352  1  0.75797493  0.39269928  0.75226681  1
  O  O353  1  0.73500607  0.87343487  0.24974052  1
  O  O354  1  0.74420738  0.88281499  0.75492586  1
  O  O355  1  0.25248762  0.11793183  0.24554365  1
  O  O356  1  0.25390993  0.11381662  0.76212831  1
  O  O357  1  0.25592351  0.61378842  0.24302171  1
  O  O358  1  0.25840865  0.61534645  0.75293225  1
  O  O359  1  0.75599519  0.13089175  0.26234990  1
  O  O360  1  0.75729507  0.11813267  0.75511923  1
  O  O361  1  0.74742471  0.61162706  0.24728339  1
  O  O362  1  0.76012822  0.61652806  0.74939100  1
  O  O363  1  0.36269995  0.13436089  0.38583117  1
  O  O364  1  0.36817873  0.11614709  0.87564565  1
  O  O365  1  0.37655536  0.61405346  0.36945661  1
  O  O366  1  0.37471651  0.63168428  0.86164156  1
  O  O367  1  0.86817246  0.11762233  0.36796657  1
  O  O368  1  0.86916253  0.11918594  0.86669796  1
  O  O369  1  0.88144375  0.60775078  0.37080330  1
  O  O370  1  0.87642102  0.63116586  0.87096463  1
  O  O371  1  0.12981149  0.38397135  0.12587305  1
  O  O372  1  0.13505449  0.37992186  0.63478792  1
  O  O373  1  0.13830112  0.87645247  0.12063770  1
  O  O374  1  0.11972106  0.87934580  0.63538444  1
  O  O375  1  0.61794652  0.38416967  0.13141826  1
  O  O376  1  0.62606164  0.38930542  0.62016784  1
  O  O377  1  0.62407923  0.88926533  0.13100554  1
  O  O378  1  0.62839959  0.87475738  0.64047264  1
  O  O379  1  0.11485954  0.24967991  0.25572762  1
  O  O380  1  0.11829137  0.25959549  0.75484412  1
  O  O381  1  0.12046574  0.74015061  0.27153756  1
  O  O382  1  0.12130773  0.75512005  0.75191538  1
  O  O383  1  0.61777068  0.25650461  0.24957421  1
  O  O384  1  0.62712750  0.24632368  0.76296527  1
  O  O385  1  0.61699702  0.76547919  0.23813952  1
  O  O386  1  0.62501835  0.75359059  0.75719208  1
  O  O387  1  0.38898210  0.25716905  0.23934016  1
  O  O388  1  0.37780659  0.24620574  0.73888247  1
  O  O389  1  0.38175385  0.74590908  0.24608438  1
  O  O390  1  0.38086308  0.74479919  0.74187929  1
  O  O391  1  0.87894975  0.24111229  0.25057787  1
  O  O392  1  0.88314030  0.24289076  0.75595025  1
  O  O393  1  0.86349656  0.75327497  0.23723474  1
  O  O394  1  0.88476082  0.74038524  0.75304825  1
  O  O395  1  0.38348241  0.50300406  0.49536934  1
  O  O396  1  0.38730457  0.50243214  1.00535305  1
  O  O397  1  0.38724270  1.00044909  0.50188705  1
  O  O398  1  0.37957412  0.99229418  0.99561295  1
  O  O399  1  0.86591509  0.50227674  0.49156507  1
  O  O400  1  0.85610832  0.51227492  0.99109157  1
  O  O401  1  0.88523832  1.00798569  0.48889047  1
  O  O402  1  0.88104141  0.99510123  0.99405992  1
  O  O403  1  0.11250251  -0.00419801  -0.00090124  1
  O  O404  1  0.12042380  0.00508726  0.50672934  1
  O  O405  1  0.13267128  0.51231805  0.00987785  1
  O  O406  1  0.13927313  0.50607812  0.49299460  1
  O  O407  1  0.62095434  0.00119918  0.01064607  1
  O  O408  1  0.61925297  0.00732061  0.50286753  1
  O  O409  1  0.61539742  0.50425019  0.00842451  1
  O  O410  1  0.61985735  0.50738233  0.50365087  1
  O  O411  1  0.36567765  0.36860266  0.12370673  1
  O  O412  1  0.36913858  0.36496580  0.62180172  1
  O  O413  1  0.36282183  0.86893767  0.11925997  1
  O  O414  1  0.38099400  0.85859830  0.62687644  1
  O  O415  1  0.87794940  0.37140347  0.11096479  1
  O  O416  1  0.87573774  0.37855939  0.62439972  1
  O  O417  1  0.87923477  0.87219111  0.11287982  1
  O  O418  1  0.87026176  0.86658495  0.63188531  1
  O  O419  1  0.12148243  0.13429183  0.38088099  1
  O  O420  1  0.13309585  0.13559767  0.86845254  1
  O  O421  1  0.12326618  0.62580044  0.37905236  1
  O  O422  1  0.12774604  0.63093157  0.88291935  1
  O  O423  1  0.63296229  0.12980399  0.38015484  1
  O  O424  1  0.63148839  0.13056933  0.88314530  1
  O  O425  1  0.62090637  0.61939260  0.38905204  1
  O  O426  1  0.61803498  0.63850250  0.88163073  1
