# generated using pymatgen
data_V85Zn86O256
_symmetry_space_group_name_H-M   'P 1'
_cell_length_a   16.93886365
_cell_length_b   16.92724219
_cell_length_c   16.93512610
_cell_angle_alpha   89.97156039
_cell_angle_beta   89.99830203
_cell_angle_gamma   90.02487600
_symmetry_Int_Tables_number   1
_chemical_formula_structural   V85Zn86O256
_chemical_formula_sum   'V85 Zn86 O256'
_cell_volume   4855.77796811
_cell_formula_units_Z   1
loop_
 _symmetry_equiv_pos_site_id
 _symmetry_equiv_pos_as_xyz
  1  'x, y, z'
loop_
 _atom_site_type_symbol
 _atom_site_label
 _atom_site_symmetry_multiplicity
 _atom_site_fract_x
 _atom_site_fract_y
 _atom_site_fract_z
 _atom_site_occupancy
  V  V0  1  0.12246851  0.87902874  0.74747377  1
  V  V1  1  0.24866921  0.12398713  0.37679402  1
  V  V2  1  0.12334836  0.36753146  0.25035552  1
  V  V3  1  -0.00100453  0.25345177  0.75450289  1
  V  V4  1  0.37493145  0.50525352  0.87177687  1
  V  V5  1  0.37557868  0.12462069  0.74781392  1
  V  V6  1  0.24520717  0.87846230  0.62449973  1
  V  V7  1  0.62726753  0.50956336  0.12159316  1
  V  V8  1  0.87547632  0.37472447  0.50144188  1
  V  V9  1  0.50394086  0.37471868  0.87324741  1
  V  V10  1  -0.01061436  0.23927131  0.25251822  1
  V  V11  1  0.75655520  0.73937892  0.49649289  1
  V  V12  1  0.74787696  -0.00395017  0.76014045  1
  V  V13  1  0.12392634  0.50070871  0.12282427  1
  V  V14  1  0.25030891  0.36362025  0.12201596  1
  V  V15  1  0.24714320  0.88150903  0.14246904  1
  V  V16  1  0.50314700  0.37755791  0.38164693  1
  V  V17  1  0.37752137  0.74682578  0.63848637  1
  V  V18  1  0.00602392  0.88137787  0.36823091  1
  V  V19  1  0.75048473  0.74218349  0.00592893  1
  V  V20  1  0.12284410  0.75284028  0.87275793  1
  V  V21  1  0.87570036  0.24409498  0.62664043  1
  V  V22  1  0.12087463  0.37995345  0.75193903  1
  V  V23  1  0.50534276  0.50919619  0.00013068  1
  V  V24  1  0.49760199  0.62691782  0.63889716  1
  V  V25  1  0.86869116  0.50269281  0.36709422  1
  V  V26  1  0.50008936  0.25542966  0.74998254  1
  V  V27  1  0.62246989  0.87005363  0.24929564  1
  V  V28  1  0.74683726  0.37025938  0.11163652  1
  V  V29  1  -0.00892780  0.87936097  0.87388450  1
  V  V30  1  0.12533183  0.12612392  0.00284962  1
  V  V31  1  0.87374281  0.87234704  0.00687327  1
  V  V32  1  -0.00817479  0.75328970  0.74399382  1
  V  V33  1  0.37191108  0.37236743  0.00006897  1
  V  V34  1  0.86577435  0.23942643  0.12176132  1
  V  V35  1  0.87477115  0.87814306  0.49639318  1
  V  V36  1  0.76319676  0.12101130  0.37395647  1
  V  V37  1  0.74497108  0.49962864  0.74711317  1
  V  V38  1  0.50138820  0.86992599  0.86981985  1
  V  V39  1  0.61229600  0.62281974  0.49086253  1
  V  V40  1  0.62904311  0.37579166  0.25015766  1
  V  V41  1  -0.00626238  0.63026534  0.62106405  1
  V  V42  1  0.12491535  0.62654550  0.49788153  1
  V  V43  1  0.25139990  0.74917089  0.50168815  1
  V  V44  1  0.37435812  0.37434270  0.50099598  1
  V  V45  1  -0.00216335  0.63541565  0.12681607  1
  V  V46  1  0.62726456  -0.00085145  0.12627758  1
  V  V47  1  0.62019054  0.49598423  0.62224321  1
  V  V48  1  0.37602525  0.87379041  0.50213870  1
  V  V49  1  0.87638513  0.11353690  0.76430455  1
  V  V50  1  0.24946018  0.75418940  -0.00017494  1
  V  V51  1  0.25098868  0.50072397  0.24982766  1
  V  V52  1  0.25169721  0.13154779  0.87974455  1
  V  V53  1  0.12470769  0.25571656  0.88049550  1
  V  V54  1  0.24392813  0.00341903  0.74728269  1
  V  V55  1  0.37780865  0.74481454  0.13668532  1
  V  V56  1  0.75009411  0.24654382  0.50184489  1
  V  V57  1  0.37570585  -0.00027498  0.37116058  1
  V  V58  1  0.51234201  0.12284458  0.62804550  1
  V  V59  1  0.25173052  0.50540776  0.74717457  1
  V  V60  1  0.12830010  0.12083903  0.51226200  1
  V  V61  1  0.76067085  0.00247262  0.25395086  1
  V  V62  1  0.62171779  0.87157026  0.74087800  1
  V  V63  1  0.25329956  0.62821261  0.87198971  1
  V  V64  1  0.37836934  0.50288072  0.37871346  1
  V  V65  1  -0.00086519  0.37683567  0.37298706  1
  V  V66  1  0.62841786  0.11853925  0.49936720  1
  V  V67  1  0.50277466  0.00044652  -0.00201847  1
  V  V68  1  -0.00220586  0.50134110  0.49899746  1
  V  V69  1  0.50020835  0.86496916  0.37179551  1
  V  V70  1  0.37252305  0.87518944  0.00030944  1
  V  V71  1  0.37503463  0.12388589  0.25082818  1
  V  V72  1  -0.00518894  0.00300819  -0.00186272  1
  V  V73  1  0.25140724  0.62559004  0.36937642  1
  V  V74  1  0.87184738  0.62597071  0.75025101  1
  V  V75  1  0.49975768  0.12514832  0.12417448  1
  V  V76  1  0.62575195  0.74366119  0.87418728  1
  V  V77  1  0.50081260  0.25325492  0.25003532  1
  V  V78  1  0.50376581  -0.00302186  0.50519550  1
  V  V79  1  0.12273988  0.62556887  -0.00159902  1
  V  V80  1  0.87167698  0.63754780  0.25041255  1
  V  V81  1  0.37252846  0.25216213  0.12277590  1
  V  V82  1  0.75365173  0.87617664  0.62128447  1
  V  V83  1  0.63599491  0.13507709  -0.01252489  1
  V  V84  1  -0.00080895  -0.00035519  0.50695746  1
  Zn  Zn85  1  0.88088344  0.37369427  -0.00303646  1
  Zn  Zn86  1  0.75550992  0.87233826  0.12866145  1
  Zn  Zn87  1  0.37379021  -0.00023841  0.87469117  1
  Zn  Zn88  1  0.37251282  0.24863595  0.62146333  1
  Zn  Zn89  1  0.74571825  0.37342454  0.62492980  1
  Zn  Zn90  1  -0.00500936  0.11992838  0.13226257  1
  Zn  Zn91  1  0.50331558  0.63595411  0.13540292  1
  Zn  Zn92  1  0.75434962  0.50139948  0.24721578  1
  Zn  Zn93  1  0.12455377  0.50006519  0.62425558  1
  Zn  Zn94  1  0.88033073  0.48415860  0.86893243  1
  Zn  Zn95  1  0.00438071  0.11798926  0.63184065  1
  Zn  Zn96  1  0.12232278  0.24795741  0.37943327  1
  Zn  Zn97  1  0.74918082  0.62328277  0.87805790  1
  Zn  Zn98  1  0.62814268  0.74412208  0.36797674  1
  Zn  Zn99  1  0.24959864  0.37652674  0.62390326  1
  Zn  Zn100  1  0.66258689  0.32796920  0.79788256  1
  Zn  Zn101  1  0.12915004  0.75844264  0.36658072  1
  Zn  Zn102  1  0.24711220  0.25227518  0.50267574  1
  Zn  Zn103  1  0.12236416  -0.00848256  0.13755450  1
  Zn  Zn104  1  0.00755714  0.75820088  0.24670096  1
  Zn  Zn105  1  0.62691695  0.24663909  0.37439059  1
  Zn  Zn106  1  -0.00369712  0.49575082  -0.01241548  1
  Zn  Zn107  1  0.16868035  0.15665481  0.20888262  1
  Zn  Zn108  1  0.18997226  0.19438174  0.68868817  1
  Zn  Zn109  1  0.18853964  0.69110585  0.18790626  1
  Zn  Zn110  1  0.18327063  0.68822200  0.68612688  1
  Zn  Zn111  1  0.68606979  0.18348776  0.18683312  1
  Zn  Zn112  1  0.69948444  0.19214883  0.70917250  1
  Zn  Zn113  1  0.69215830  0.68802043  0.18770408  1
  Zn  Zn114  1  0.68573817  0.69027142  0.68137368  1
  Zn  Zn115  1  0.31209247  0.31067622  0.31423098  1
  Zn  Zn116  1  0.31284979  0.31528860  0.81052712  1
  Zn  Zn117  1  0.31292163  0.81114491  0.31362717  1
  Zn  Zn118  1  0.31219239  0.81566511  0.81344581  1
  Zn  Zn119  1  0.81185032  0.31073690  0.31308061  1
  Zn  Zn120  1  0.82048521  0.29572533  0.82951691  1
  Zn  Zn121  1  0.81319610  0.81694966  0.31796178  1
  Zn  Zn122  1  0.81084160  0.81126793  0.81493028  1
  Zn  Zn123  1  0.18686394  0.43881953  0.43725135  1
  Zn  Zn124  1  0.18719205  0.43798520  0.93708398  1
  Zn  Zn125  1  0.18796646  0.94326178  0.43799913  1
  Zn  Zn126  1  0.18393894  0.94316932  0.93703649  1
  Zn  Zn127  1  0.68906997  0.43872158  0.43971078  1
  Zn  Zn128  1  0.69229086  0.44596455  0.93889566  1
  Zn  Zn129  1  0.68735893  0.93609591  0.43503903  1
  Zn  Zn130  1  0.68633298  0.93330471  0.93723323  1
  Zn  Zn131  1  0.31180834  0.06168968  0.06166159  1
  Zn  Zn132  1  0.31504625  0.06078358  0.56351548  1
  Zn  Zn133  1  0.31115187  0.56148383  0.05950426  1
  Zn  Zn134  1  0.31561864  0.56211886  0.56172470  1
  Zn  Zn135  1  0.81037723  0.05992357  0.05830694  1
  Zn  Zn136  1  0.81328330  0.05793679  0.56799814  1
  Zn  Zn137  1  0.81796418  0.55949798  0.06357681  1
  Zn  Zn138  1  0.81223902  0.56306963  0.56347801  1
  Zn  Zn139  1  0.45280880  0.47079685  0.20443841  1
  Zn  Zn140  1  0.43839638  0.44303935  0.68688627  1
  Zn  Zn141  1  0.43746042  0.93497744  0.18717977  1
  Zn  Zn142  1  0.43427593  0.93764671  0.68810534  1
  Zn  Zn143  1  0.94541825  0.42951768  0.16476533  1
  Zn  Zn144  1  0.93648882  0.43757753  0.68779404  1
  Zn  Zn145  1  0.93764311  0.94006483  0.18404227  1
  Zn  Zn146  1  0.93234933  0.93548531  0.68079663  1
  Zn  Zn147  1  0.06264294  0.05730635  0.31860875  1
  Zn  Zn148  1  0.06358901  0.06368362  0.81608807  1
  Zn  Zn149  1  0.06134203  0.56537005  0.30899892  1
  Zn  Zn150  1  0.06096291  0.56495971  0.81176643  1
  Zn  Zn151  1  0.56481025  0.05896182  0.31495597  1
  Zn  Zn152  1  0.56526127  0.05687845  0.81135153  1
  Zn  Zn153  1  0.56145320  0.56228205  0.30809450  1
  Zn  Zn154  1  0.56301864  0.56196509  0.81068348  1
  Zn  Zn155  1  0.44066767  0.18986111  0.43882725  1
  Zn  Zn156  1  0.44178014  0.18994128  0.93554096  1
  Zn  Zn157  1  0.43406314  0.68688647  0.43918396  1
  Zn  Zn158  1  0.43816531  0.68884879  0.94035890  1
  Zn  Zn159  1  0.94134910  0.18587222  0.44028505  1
  Zn  Zn160  1  0.93807382  0.19089133  0.93882888  1
  Zn  Zn161  1  0.93658616  0.69291321  0.43049438  1
  Zn  Zn162  1  0.93553312  0.68539801  0.93681142  1
  Zn  Zn163  1  0.05659480  0.30938063  0.06679092  1
  Zn  Zn164  1  0.06262273  0.31021067  0.56658289  1
  Zn  Zn165  1  0.06525905  0.81555689  0.06241468  1
  Zn  Zn166  1  0.06300752  0.81218552  0.55901501  1
  Zn  Zn167  1  0.56012367  0.31597358  0.06055942  1
  Zn  Zn168  1  0.56045339  0.30639923  0.56347657  1
  Zn  Zn169  1  0.56399540  0.81164991  0.06030457  1
  Zn  Zn170  1  0.56509140  0.80557313  0.56167452  1
  O  O171  1  0.12064923  0.14430532  0.10411967  1
  O  O172  1  0.12648272  0.12718387  0.61561982  1
  O  O173  1  0.12503812  0.61946016  0.11635889  1
  O  O174  1  0.11379605  0.62426013  0.61544669  1
  O  O175  1  0.61756638  0.11321355  0.11985721  1
  O  O176  1  0.61502778  0.12477522  0.62187200  1
  O  O177  1  0.62349932  0.61313877  0.13105451  1
  O  O178  1  0.61215643  0.62305596  0.61521992  1
  O  O179  1  0.38152825  0.37916637  0.38316972  1
  O  O180  1  0.37895326  0.38337343  0.88231335  1
  O  O181  1  0.38057064  0.88191024  0.37980940  1
  O  O182  1  0.38271656  0.87638352  0.88218878  1
  O  O183  1  0.88122885  0.38154752  0.38045644  1
  O  O184  1  0.87791252  0.36770376  0.88238397  1
  O  O185  1  0.88696073  0.87350702  0.38824023  1
  O  O186  1  0.88714178  0.87057424  0.88227560  1
  O  O187  1  0.26241583  0.01255066  0.38108635  1
  O  O188  1  0.25056847  0.01275032  0.86707367  1
  O  O189  1  0.25340440  0.50702565  0.36859721  1
  O  O190  1  0.25661163  0.50764927  0.87003957  1
  O  O191  1  0.74679766  0.00492440  0.36204591  1
  O  O192  1  0.75222706  -0.01129279  0.85906980  1
  O  O193  1  0.76566896  0.49575961  0.37270511  1
  O  O194  1  0.74959503  0.50686742  0.86149602  1
  O  O195  1  0.24207657  0.49463960  0.13190876  1
  O  O196  1  0.24883801  0.50042246  0.63372917  1
  O  O197  1  0.25276422  0.98329715  0.12115843  1
  O  O198  1  0.25558309  0.98987142  0.63386529  1
  O  O199  1  0.74211878  0.48899486  0.12421537  1
  O  O200  1  0.73955822  0.50060798  0.62858873  1
  O  O201  1  0.74214274  0.99825424  0.13499322  1
  O  O202  1  0.75267726  0.98260164  0.63290381  1
  O  O203  1  0.01067103  0.36923181  0.25020036  1
  O  O204  1  0.00821036  0.36564664  0.74584571  1
  O  O205  1  -0.00477598  0.88077591  0.26460908  1
  O  O206  1  0.00080406  0.87152272  0.75407097  1
  O  O207  1  0.51113052  0.37418969  0.25893891  1
  O  O208  1  0.48864233  0.36863526  0.75951944  1
  O  O209  1  0.50870302  0.88164272  0.26045323  1
  O  O210  1  0.50848581  0.88207434  0.75756276  1
  O  O211  1  0.49306124  0.13029829  0.24672409  1
  O  O212  1  0.49432347  0.12693252  0.74545421  1
  O  O213  1  0.48314715  0.58226180  0.23229091  1
  O  O214  1  0.50013473  0.62805611  0.73764065  1
  O  O215  1  0.99503532  0.13686467  0.25735483  1
  O  O216  1  0.99073762  0.12587519  0.75065457  1
  O  O217  1  0.99129737  0.63138615  0.24471394  1
  O  O218  1  0.99534604  0.63490001  0.73938885  1
  O  O219  1  0.38113031  0.26326172  0.00561262  1
  O  O220  1  0.37257019  0.25946859  0.49960772  1
  O  O221  1  0.36968527  0.76306403  0.00338086  1
  O  O222  1  0.36852770  0.75724166  0.50740073  1
  O  O223  1  0.88110535  0.25199836  0.01845259  1
  O  O224  1  0.87192142  0.25204647  0.50902792  1
  O  O225  1  0.86059505  0.75751211  -0.00752856  1
  O  O226  1  0.86187854  0.75354803  0.49719742  1
  O  O227  1  0.12396607  0.23667047  0.49931322  1
  O  O228  1  0.11511958  0.25053140  0.98546002  1
  O  O229  1  0.13160617  0.73895904  0.49600948  1
  O  O230  1  0.13093918  0.74724609  0.99260325  1
  O  O231  1  0.63116881  0.23524872  0.50150291  1
  O  O232  1  0.61653529  0.23308044  1.00490117  1
  O  O233  1  0.63135668  0.73586886  0.49518344  1
  O  O234  1  0.64024126  0.75950591  0.99015325  1
  O  O235  1  0.49295314  0.24553580  0.13096482  1
  O  O236  1  0.49062452  0.23757563  0.62716179  1
  O  O237  1  0.48438999  0.75100258  0.11863424  1
  O  O238  1  0.49140770  0.73828816  0.62135236  1
  O  O239  1  0.98669925  0.24333112  0.13695326  1
  O  O240  1  0.99474099  0.24420369  0.63715388  1
  O  O241  1  1.00494865  0.73980117  0.12459717  1
  O  O242  1  1.00457827  0.74350873  0.63229291  1
  O  O243  1  -0.00285001  0.25926849  0.36867113  1
  O  O244  1  0.00933708  0.24450673  0.86231100  1
  O  O245  1  0.00462367  0.76864402  0.37708635  1
  O  O246  1  0.00490442  0.75657676  0.86613289  1
  O  O247  1  0.50302427  0.25795830  0.36662246  1
  O  O248  1  0.49701527  0.26201025  0.86444616  1
  O  O249  1  0.49930604  0.76184027  0.37879892  1
  O  O250  1  0.50758713  0.76257763  0.88424369  1
  O  O251  1  0.24188104  0.12413120  0.49795868  1
  O  O252  1  0.24350023  0.12156487  0.98959856  1
  O  O253  1  0.24183386  0.62768621  0.49472857  1
  O  O254  1  0.24248885  0.63270110  0.99317347  1
  O  O255  1  0.74423904  0.12399213  0.49643694  1
  O  O256  1  0.73541363  0.12198309  0.99951177  1
  O  O257  1  0.74321169  0.63654365  0.50442942  1
  O  O258  1  0.75496252  0.63879254  1.00009171  1
  O  O259  1  0.25881186  0.38089783  0.00955826  1
  O  O260  1  0.25858179  0.37416628  0.49946597  1
  O  O261  1  0.25832788  0.87206700  -0.00325083  1
  O  O262  1  0.25417118  0.87243463  0.50753844  1
  O  O263  1  0.74513332  0.37037675  0.00955718  1
  O  O264  1  0.75725913  0.36571432  0.50204587  1
  O  O265  1  0.75945459  0.87010814  0.00112767  1
  O  O266  1  0.75603602  0.87244625  0.50333961  1
  O  O267  1  0.13436418  0.49086737  0.24659506  1
  O  O268  1  0.13179471  0.49436981  0.74867401  1
  O  O269  1  0.13332239  1.04775416  0.23413008  1
  O  O270  1  0.13633813  0.99660540  0.75273274  1
  O  O271  1  0.63224383  0.49096389  0.24219507  1
  O  O272  1  0.63229409  0.50946132  0.73582836  1
  O  O273  1  0.62965743  0.99157138  0.24274584  1
  O  O274  1  0.63923597  0.98985590  0.75115401  1
  O  O275  1  0.38404560  0.00784826  0.26300437  1
  O  O276  1  0.36420471  0.00680637  0.75354888  1
  O  O277  1  0.35552901  0.48336798  0.26487498  1
  O  O278  1  0.36709312  0.49819506  0.76323682  1
  O  O279  1  0.85915782  -0.00118515  0.24522378  1
  O  O280  1  0.87119042  0.00637712  0.74929924  1
  O  O281  1  0.87827070  0.50360593  0.25592400  1
  O  O282  1  0.86494973  0.50905048  0.74620482  1
  O  O283  1  0.11867875  0.37277202  0.36689130  1
  O  O284  1  0.13156394  0.36827602  0.86339760  1
  O  O285  1  0.11145463  0.87849071  0.38189760  1
  O  O286  1  0.11639451  0.87088334  0.86786879  1
  O  O287  1  0.61928001  0.37479843  0.37022137  1
  O  O288  1  0.60913070  0.38781036  0.87677932  1
  O  O289  1  0.61564181  0.87425217  0.36707357  1
  O  O290  1  0.61808446  0.86817337  0.86531465  1
  O  O291  1  0.37927812  0.12826293  0.13220486  1
  O  O292  1  0.38241761  0.12188563  0.63736876  1
  O  O293  1  0.36721084  0.64388961  0.11818925  1
  O  O294  1  0.38886134  0.63160467  0.61886200  1
  O  O295  1  0.87171064  0.13565848  0.12416216  1
  O  O296  1  0.87865092  0.13348676  0.63088881  1
  O  O297  1  0.88576800  0.61983999  0.13923028  1
  O  O298  1  0.88673294  0.62405714  0.63171844  1
  O  O299  1  0.25472150  0.26139154  0.13105374  1
  O  O300  1  0.25617364  0.25752489  0.62273749  1
  O  O301  1  0.25932996  0.76294541  0.11922718  1
  O  O302  1  0.25620009  0.75443954  0.62040958  1
  O  O303  1  0.75868093  0.25272213  0.13022457  1
  O  O304  1  0.75880491  0.24942888  0.62072766  1
  O  O305  1  0.74537780  0.75470212  0.11007293  1
  O  O306  1  0.74240729  0.76185068  0.60710306  1
  O  O307  1  0.24994921  0.23623132  0.37938959  1
  O  O308  1  0.24177539  0.23933362  0.86678863  1
  O  O309  1  0.25156339  0.74265433  0.38253088  1
  O  O310  1  0.24443047  0.74717453  0.87853915  1
  O  O311  1  0.74852114  0.24078033  0.38384094  1
  O  O312  1  0.72951581  0.23957988  0.81368126  1
  O  O313  1  0.74514404  0.75720408  0.39226049  1
  O  O314  1  0.74217871  0.74755836  0.88335214  1
  O  O315  1  0.00573280  0.11658507  -0.00284685  1
  O  O316  1  0.01147183  0.11775494  0.50284826  1
  O  O317  1  0.00602566  0.62499368  0.00819694  1
  O  O318  1  0.00449244  0.62472623  0.50281520  1
  O  O319  1  0.49913041  0.11251312  0.00406805  1
  O  O320  1  0.50726534  0.11783053  0.50642336  1
  O  O321  1  0.49247451  0.61132911  0.00930672  1
  O  O322  1  0.51066403  0.62719134  0.50402097  1
  O  O323  1  0.49494242  0.36801663  0.48721936  1
  O  O324  1  0.49095346  0.38213735  0.99033492  1
  O  O325  1  0.49752926  0.88041677  0.49620385  1
  O  O326  1  0.49438421  0.88462869  0.99498687  1
  O  O327  1  0.99561727  0.38024923  0.49556893  1
  O  O328  1  0.98765460  0.39543074  1.04861338  1
  O  O329  1  0.99451234  0.88143968  0.49684869  1
  O  O330  1  0.99511787  0.87977938  0.99280408  1
  O  O331  1  0.48938716  0.49028053  0.37326701  1
  O  O332  1  0.49193572  0.49855444  0.87978857  1
  O  O333  1  0.49432738  0.99379823  0.38717126  1
  O  O334  1  0.49886837  0.98885947  0.88213920  1
  O  O335  1  0.99408396  0.49511360  0.37984494  1
  O  O336  1  0.99520715  0.50397309  0.87418481  1
  O  O337  1  1.00209283  0.98999278  0.38799448  1
  O  O338  1  1.00652301  0.98956227  0.88365908  1
  O  O339  1  0.00470895  0.00368165  0.11650111  1
  O  O340  1  0.00132465  -0.00075206  0.61337688  1
  O  O341  1  0.01949038  0.51775702  0.13857862  1
  O  O342  1  0.00023386  0.50960876  0.61605588  1
  O  O343  1  0.50548929  0.00371124  0.11761976  1
  O  O344  1  0.49359040  0.00560489  0.61251532  1
  O  O345  1  0.51552970  0.48330098  0.10957955  1
  O  O346  1  0.50553850  0.51531561  0.62671166  1
  O  O347  1  0.23847312  0.37647619  0.24600100  1
  O  O348  1  0.24404374  0.38907121  0.74989426  1
  O  O349  1  0.25396254  0.87898289  0.24135211  1
  O  O350  1  0.24509966  0.88409097  0.74475970  1
  O  O351  1  0.73715235  0.37297276  0.24713701  1
  O  O352  1  0.74588580  0.39284165  0.74236067  1
  O  O353  1  0.74418106  0.88538360  0.25039236  1
  O  O354  1  0.74760765  0.87940882  0.74201824  1
  O  O355  1  0.26970241  0.13226130  0.26153439  1
  O  O356  1  0.25626188  0.12013057  0.75386698  1
  O  O357  1  0.24722424  0.61416331  0.25803471  1
  O  O358  1  0.24242303  0.61423318  0.75563835  1
  O  O359  1  0.74227825  0.11113572  0.25943005  1
  O  O360  1  0.76353681  0.10122825  0.74021229  1
  O  O361  1  0.76711828  0.62277050  0.24601541  1
  O  O362  1  0.75805039  0.62090802  0.74311788  1
  O  O363  1  0.37411473  0.11831161  0.37137933  1
  O  O364  1  0.36960586  0.12554078  0.86525492  1
  O  O365  1  0.36225221  0.61690267  0.38081744  1
  O  O366  1  0.36643270  0.61782997  0.88192021  1
  O  O367  1  0.86231925  0.12599623  0.38196667  1
  O  O368  1  0.87422732  0.12883741  0.86238340  1
  O  O369  1  0.88279320  0.61721262  0.35985099  1
  O  O370  1  0.87292408  0.62901597  0.85686880  1
  O  O371  1  0.13273526  0.38071007  0.13205745  1
  O  O372  1  0.12636021  0.37785248  0.63802967  1
  O  O373  1  0.14253282  0.87561286  0.12301490  1
  O  O374  1  0.13828208  0.86867565  0.63017319  1
  O  O375  1  0.63187354  0.37692540  0.13211384  1
  O  O376  1  0.62014568  0.39214752  0.61263856  1
  O  O377  1  0.62411439  0.88578243  0.13058336  1
  O  O378  1  0.62933624  0.86945304  0.63503495  1
  O  O379  1  0.11476316  0.25361287  0.25401741  1
  O  O380  1  0.11848433  0.25712897  0.75769224  1
  O  O381  1  0.12188853  0.74811773  0.25434692  1
  O  O382  1  0.11447897  0.75762844  0.75367379  1
  O  O383  1  0.61771723  0.25604612  0.25025675  1
  O  O384  1  0.60163047  0.25667367  0.72636608  1
  O  O385  1  0.63079172  0.76376131  0.24929818  1
  O  O386  1  0.63223462  0.76078247  0.75870283  1
  O  O387  1  0.38269862  0.24565276  0.24450249  1
  O  O388  1  0.38185522  0.24148693  0.74788538  1
  O  O389  1  0.37439526  0.75262013  0.23587305  1
  O  O390  1  0.37004914  0.75267060  0.73783734  1
  O  O391  1  0.88075449  0.25450883  0.23967648  1
  O  O392  1  0.88433398  0.23644593  0.74313736  1
  O  O393  1  0.87805356  0.74053604  0.25554752  1
  O  O394  1  0.88554893  0.74689822  0.74976206  1
  O  O395  1  0.36951361  0.49235928  0.48574458  1
  O  O396  1  0.37980279  0.49176794  0.99183458  1
  O  O397  1  0.38288758  0.99417198  0.49179829  1
  O  O398  1  0.38274337  0.99018860  0.99878962  1
  O  O399  1  0.88053087  0.49685957  0.49293657  1
  O  O400  1  0.87383604  0.49591652  0.99098693  1
  O  O401  1  0.88451655  0.99131497  0.50364841  1
  O  O402  1  0.88656620  0.99217741  1.00221153  1
  O  O403  1  0.11600485  0.01034947  0.00408614  1
  O  O404  1  0.11980896  0.01412050  0.50068420  1
  O  O405  1  0.12412001  0.50581709  0.00830791  1
  O  O406  1  0.11781630  0.51138705  0.49975731  1
  O  O407  1  0.61861459  0.00225707  0.00721876  1
  O  O408  1  0.61832031  0.00896542  0.49798013  1
  O  O409  1  0.61756453  0.50059897  0.00716677  1
  O  O410  1  0.63344284  0.51759943  0.50559708  1
  O  O411  1  0.36658282  0.37382467  0.11733735  1
  O  O412  1  0.37863067  0.38032316  0.60898213  1
  O  O413  1  0.36677406  0.86926920  0.11908867  1
  O  O414  1  0.36639439  0.86762531  0.62155883  1
  O  O415  1  0.85599158  0.36364060  0.13005045  1
  O  O416  1  0.87567812  0.36187225  0.61935802  1
  O  O417  1  0.87702016  0.87332877  0.11159111  1
  O  O418  1  0.86701342  0.87038939  0.61095439  1
  O  O419  1  0.13534177  0.12568045  0.38751369  1
  O  O420  1  0.13271012  0.13374081  0.88274449  1
  O  O421  1  0.13588465  0.62343165  0.38181548  1
  O  O422  1  0.13191153  0.63393186  0.87899447  1
  O  O423  1  0.63151817  0.12480091  0.38530270  1
  O  O424  1  0.61745370  0.12017003  0.88945624  1
  O  O425  1  0.61896270  0.62475797  0.38499267  1
  O  O426  1  0.62301939  0.63983185  0.87133264  1
