# generated using pymatgen
data_V85Zn86O256
_symmetry_space_group_name_H-M   'P 1'
_cell_length_a   16.95021672
_cell_length_b   16.95343363
_cell_length_c   16.94618317
_cell_angle_alpha   90.09049824
_cell_angle_beta   90.07444125
_cell_angle_gamma   90.04122608
_symmetry_Int_Tables_number   1
_chemical_formula_structural   V85Zn86O256
_chemical_formula_sum   'V85 Zn86 O256'
_cell_volume   4869.71787192
_cell_formula_units_Z   1
loop_
 _symmetry_equiv_pos_site_id
 _symmetry_equiv_pos_as_xyz
  1  'x, y, z'
loop_
 _atom_site_type_symbol
 _atom_site_label
 _atom_site_symmetry_multiplicity
 _atom_site_fract_x
 _atom_site_fract_y
 _atom_site_fract_z
 _atom_site_occupancy
  V  V0  1  0.88060219  0.24947445  0.12790519  1
  V  V1  1  0.37344799  0.87477499  0.50047555  1
  V  V2  1  0.74965796  0.00279926  0.25142563  1
  V  V3  1  0.00190267  0.86936695  0.87125560  1
  V  V4  1  0.88104575  0.37345758  0.50587077  1
  V  V5  1  -0.00450562  0.62427970  0.12657889  1
  V  V6  1  0.12540324  0.87706931  0.25205170  1
  V  V7  1  0.88282935  0.00174083  0.87766894  1
  V  V8  1  0.24770166  0.87011391  0.12144193  1
  V  V9  1  0.12584128  0.11728260  0.49480532  1
  V  V10  1  0.00362607  0.25906431  0.25850284  1
  V  V11  1  0.87419678  0.87459476  0.50078224  1
  V  V12  1  0.75431211  0.38167970  0.13944971  1
  V  V13  1  0.88251678  0.87949461  0.00144618  1
  V  V14  1  0.37208519  0.75500789  0.62431132  1
  V  V15  1  0.11754728  0.61083228  0.50393827  1
  V  V16  1  0.63223847  0.50510013  0.62799142  1
  V  V17  1  0.62364148  0.37781464  0.26203128  1
  V  V18  1  0.62511996  0.12522087  0.00332689  1
  V  V19  1  0.24843631  0.24768989  0.49080530  1
  V  V20  1  0.50117053  0.74769397  0.74330904  1
  V  V21  1  0.48778868  0.39622876  0.37769188  1
  V  V22  1  0.00393831  0.12721303  0.63300392  1
  V  V23  1  0.11921564  -0.00093383  0.12037556  1
  V  V24  1  0.24024400  0.37423057  0.62477105  1
  V  V25  1  0.49875742  0.25193572  0.26122286  1
  V  V26  1  0.37245073  0.25055618  0.12480123  1
  V  V27  1  0.68035772  0.32851090  0.69220807  1
  V  V28  1  0.62348472  0.74989629  0.37370155  1
  V  V29  1  0.89815098  0.49007712  0.36936419  1
  V  V30  1  0.24691448  0.12469281  0.87390012  1
  V  V31  1  0.24455531  0.62916226  0.87505807  1
  V  V32  1  0.37191706  0.12270520  0.74969995  1
  V  V33  1  0.75304908  0.74710450  0.50102411  1
  V  V34  1  0.37456086  0.37252274  -0.00091314  1
  V  V35  1  0.88129723  0.37557293  0.00090002  1
  V  V36  1  0.10790725  0.37153977  0.74899329  1
  V  V37  1  0.49802144  0.87476894  0.87368610  1
  V  V38  1  0.49546361  0.00184951  -0.00164040  1
  V  V39  1  0.36992437  0.86662092  -0.00076259  1
  V  V40  1  0.62734640  0.13832819  0.49494429  1
  V  V41  1  0.24800859  0.75412948  0.50127177  1
  V  V42  1  0.62508150  0.00213917  0.12381882  1
  V  V43  1  0.50468001  0.63853551  0.13286526  1
  V  V44  1  0.50326560  -0.00082996  0.50028229  1
  V  V45  1  0.12572572  0.74751947  0.37617738  1
  V  V46  1  0.62944189  0.50142516  0.13142039  1
  V  V47  1  0.37155285  0.25227608  0.62183602  1
  V  V48  1  0.62882644  0.25580394  0.87954035  1
  V  V49  1  0.11762436  0.12101180  -0.00212912  1
  V  V50  1  0.75218771  -0.00154183  0.75398987  1
  V  V51  1  -0.00192125  0.61719825  0.63107434  1
  V  V52  1  0.24431781  -0.00592320  0.73582100  1
  V  V53  1  0.49826044  0.12411157  0.62460525  1
  V  V54  1  0.13377038  0.39050383  0.24744475  1
  V  V55  1  -0.00092309  0.87318943  0.37669075  1
  V  V56  1  0.75329542  0.62375143  0.87233019  1
  V  V57  1  -0.00149023  0.50247001  0.00485483  1
  V  V58  1  0.12588015  0.74977660  0.88545847  1
  V  V59  1  0.36614441  0.12804169  0.25300450  1
  V  V60  1  0.37659622  0.62313792  0.75263474  1
  V  V61  1  0.62710971  0.62065347  0.50301682  1
  V  V62  1  0.50528803  0.49987039  0.00057207  1
  V  V63  1  0.75271269  0.75206872  -0.00051808  1
  V  V64  1  0.62267346  0.87388815  0.24870123  1
  V  V65  1  0.10953170  0.25165026  0.86971852  1
  V  V66  1  0.45010940  0.56789663  0.56753481  1
  V  V67  1  0.50283758  0.37579140  0.87230882  1
  V  V68  1  0.37766352  0.62087864  0.25384856  1
  V  V69  1  0.87974755  0.49752909  0.87305231  1
  V  V70  1  0.75001539  0.87466140  0.62630078  1
  V  V71  1  0.24182460  0.49720401  0.74980486  1
  V  V72  1  0.62566725  0.62551393  0.00097808  1
  V  V73  1  0.87476950  0.74908002  0.13216297  1
  V  V74  1  0.87967026  0.12719681  0.25476082  1
  V  V75  1  0.49764226  0.87401855  0.36852287  1
  V  V76  1  0.36868204  0.00491386  0.37444138  1
  V  V77  1  0.12235368  0.86984466  0.73665610  1
  V  V78  1  0.50006732  0.25138967  0.74893027  1
  V  V79  1  0.62448621  0.74956675  0.87363674  1
  V  V80  1  0.75832076  0.61380045  0.36432627  1
  V  V81  1  0.87566304  0.00125119  0.37949703  1
  V  V82  1  0.25285158  0.61070428  0.37099961  1
  V  V83  1  0.17282292  0.56593601  0.05400916  1
  V  V84  1  0.75055868  0.25126602  0.00739056  1
  Zn  Zn85  1  0.75432579  0.12640442  0.87693413  1
  Zn  Zn86  1  0.37068572  0.39069706  0.49771022  1
  Zn  Zn87  1  0.37549901  0.75394242  0.13238577  1
  Zn  Zn88  1  0.88487469  0.75151244  0.63584667  1
  Zn  Zn89  1  0.49803419  0.12849956  0.12720001  1
  Zn  Zn90  1  0.88220510  0.13373950  0.75247039  1
  Zn  Zn91  1  0.75216712  0.87661720  0.12350561  1
  Zn  Zn92  1  0.24612433  0.00519229  0.25240306  1
  Zn  Zn93  1  0.62432566  -0.00221653  0.62673202  1
  Zn  Zn94  1  0.88469297  0.62946672  0.75448410  1
  Zn  Zn95  1  0.37421226  0.49959164  0.87547145  1
  Zn  Zn96  1  -0.00537377  0.74473930  0.25361405  1
  Zn  Zn97  1  -0.00074883  0.11968161  0.12262772  1
  Zn  Zn98  1  0.75428135  0.49897124  0.74396307  1
  Zn  Zn99  1  0.00622569  -0.00300809  0.50769082  1
  Zn  Zn100  1  0.24647020  0.25049359  -0.00189510  1
  Zn  Zn101  1  0.75375538  0.13673635  0.39071780  1
  Zn  Zn102  1  0.62278820  0.87690208  0.74985881  1
  Zn  Zn103  1  0.87553624  0.25602079  0.62741666  1
  Zn  Zn104  1  0.36933864  -0.00175123  0.87532658  1
  Zn  Zn105  1  0.12724225  0.24898424  0.37229823  1
  Zn  Zn106  1  0.24688628  0.38512382  0.12290227  1
  Zn  Zn107  1  0.18814095  0.18964803  0.18287191  1
  Zn  Zn108  1  0.18189743  0.18630312  0.68431883  1
  Zn  Zn109  1  0.19112602  0.69126181  0.19391556  1
  Zn  Zn110  1  0.18314184  0.69028488  0.68766930  1
  Zn  Zn111  1  0.70930539  0.21328397  0.22704895  1
  Zn  Zn112  1  0.69107027  0.16687728  0.68303069  1
  Zn  Zn113  1  0.68952906  0.69178433  0.18859563  1
  Zn  Zn114  1  0.69106416  0.68688134  0.68686909  1
  Zn  Zn115  1  0.31133197  0.32095256  0.31069579  1
  Zn  Zn116  1  0.30929618  0.30983117  0.81177740  1
  Zn  Zn117  1  0.31123841  0.80791758  0.30996929  1
  Zn  Zn118  1  0.30811375  0.81204219  0.81206379  1
  Zn  Zn119  1  0.79469518  0.32535378  0.36140789  1
  Zn  Zn120  1  0.82259939  0.31053610  0.81680405  1
  Zn  Zn121  1  0.80761103  0.81330653  0.31386257  1
  Zn  Zn122  1  0.81584777  0.81161848  0.81179974  1
  Zn  Zn123  1  0.18099356  0.42948714  0.43299384  1
  Zn  Zn124  1  0.19014480  0.43115839  0.92793371  1
  Zn  Zn125  1  0.18912111  0.93595505  0.43924757  1
  Zn  Zn126  1  0.18638820  0.93865919  0.93521368  1
  Zn  Zn127  1  0.68871735  0.43928893  0.44712899  1
  Zn  Zn128  1  0.69448182  0.43683336  0.94243955  1
  Zn  Zn129  1  0.68849572  0.94043345  0.43680499  1
  Zn  Zn130  1  0.68983071  0.93607304  0.93614737  1
  Zn  Zn131  1  0.30686795  0.06047428  0.06388161  1
  Zn  Zn132  1  0.31102963  0.06460233  0.55963264  1
  Zn  Zn133  1  0.33395084  0.56326427  0.06453203  1
  Zn  Zn134  1  0.28287734  0.56501803  0.56581838  1
  Zn  Zn135  1  0.81202066  0.06281840  0.06416171  1
  Zn  Zn136  1  0.81584749  0.06432901  0.56766956  1
  Zn  Zn137  1  0.81343172  0.56406981  0.06448717  1
  Zn  Zn138  1  0.81889594  0.55589354  0.55631330  1
  Zn  Zn139  1  0.43805280  0.44147686  0.18670919  1
  Zn  Zn140  1  0.43081652  0.43237893  0.69243191  1
  Zn  Zn141  1  0.43589971  0.94087684  0.18586105  1
  Zn  Zn142  1  0.43292784  0.93662482  0.68795325  1
  Zn  Zn143  1  0.93885469  0.44053575  0.19416430  1
  Zn  Zn144  1  0.93618883  0.44594493  0.67712471  1
  Zn  Zn145  1  0.93992921  0.93560799  0.19008641  1
  Zn  Zn146  1  0.93973138  0.94240559  0.68732695  1
  Zn  Zn147  1  0.06147668  0.06291372  0.31595836  1
  Zn  Zn148  1  0.06420605  0.05552637  0.81045666  1
  Zn  Zn149  1  0.06433003  0.56605523  0.30929306  1
  Zn  Zn150  1  0.06262292  0.55963073  0.81572430  1
  Zn  Zn151  1  0.55842054  0.06506217  0.31400705  1
  Zn  Zn152  1  0.56460842  0.06404012  0.81487260  1
  Zn  Zn153  1  0.56586776  0.56580419  0.31179647  1
  Zn  Zn154  1  0.56310258  0.56240820  0.81023762  1
  Zn  Zn155  1  0.43769601  0.18905859  0.43722502  1
  Zn  Zn156  1  0.43688155  0.18739662  0.93544487  1
  Zn  Zn157  1  0.43480646  0.69147828  0.42814547  1
  Zn  Zn158  1  0.43814008  0.68773863  0.93675926  1
  Zn  Zn159  1  0.93950680  0.19291818  0.44628644  1
  Zn  Zn160  1  0.93777891  0.18654935  0.93933764  1
  Zn  Zn161  1  0.93658590  0.68289807  0.43879057  1
  Zn  Zn162  1  0.94096787  0.68806926  0.94111702  1
  Zn  Zn163  1  0.06463335  0.31270022  0.06434543  1
  Zn  Zn164  1  0.05861685  0.30946416  0.55901564  1
  Zn  Zn165  1  0.05994622  0.81147462  0.06195903  1
  Zn  Zn166  1  0.05810552  0.80568697  0.56134594  1
  Zn  Zn167  1  0.56150078  0.31362074  0.06929102  1
  Zn  Zn168  1  0.55337317  0.31603135  0.55402475  1
  Zn  Zn169  1  0.56376431  0.81649239  0.05940248  1
  Zn  Zn170  1  0.56339816  0.81145088  0.56166186  1
  O  O171  1  0.12625161  0.11673123  0.11532290  1
  O  O172  1  0.11423698  0.12760470  0.61297743  1
  O  O173  1  0.12321892  0.62961284  0.11824552  1
  O  O174  1  0.12173885  0.62852809  0.61033609  1
  O  O175  1  0.62028601  0.12043469  0.11112672  1
  O  O176  1  0.61467014  0.11830298  0.61359291  1
  O  O177  1  0.62310027  0.62047887  0.12322698  1
  O  O178  1  0.62671895  0.62248374  0.61172953  1
  O  O179  1  0.38293911  0.38368060  0.37601356  1
  O  O180  1  0.38280190  0.37259190  0.88241752  1
  O  O181  1  0.38278733  0.87834449  0.37799385  1
  O  O182  1  0.37854860  0.87559163  0.88197307  1
  O  O183  1  0.89066899  0.38460125  0.37243824  1
  O  O184  1  0.87008372  0.38504462  0.88941420  1
  O  O185  1  0.87725340  0.88137943  0.37983915  1
  O  O186  1  0.88294145  0.87997523  0.88088901  1
  O  O187  1  0.26531019  -0.00576429  0.37383040  1
  O  O188  1  0.24825268  0.01204739  0.86607911  1
  O  O189  1  0.24924456  0.51319258  0.38306596  1
  O  O190  1  0.25239740  0.51078688  0.86926108  1
  O  O191  1  0.75793882  0.00489453  0.36778786  1
  O  O192  1  0.76040314  -0.00134153  0.86920679  1
  O  O193  1  0.74049705  0.51548406  0.37245239  1
  O  O194  1  0.76036760  0.50768147  0.87766571  1
  O  O195  1  0.23787828  0.50985438  0.10916343  1
  O  O196  1  0.24816246  0.48791351  0.63748690  1
  O  O197  1  0.23881363  0.98944856  0.12984060  1
  O  O198  1  0.25405755  1.00054161  0.63735522  1
  O  O199  1  0.74257227  0.49345426  0.12176995  1
  O  O200  1  0.74122788  0.50458164  0.62613111  1
  O  O201  1  0.74239549  0.99661098  0.13146424  1
  O  O202  1  0.74994548  0.99171579  0.63421872  1
  O  O203  1  0.01161635  0.36195112  0.24314381  1
  O  O204  1  0.00970899  0.38347026  0.74238110  1
  O  O205  1  0.01170032  0.87070369  0.25688402  1
  O  O206  1  0.01435932  0.87951711  0.75530163  1
  O  O207  1  0.50109316  0.37400567  0.26014710  1
  O  O208  1  0.49526498  0.36836813  0.76423087  1
  O  O209  1  0.50707626  0.88319528  0.26048116  1
  O  O210  1  0.49878083  0.86692846  0.75594134  1
  O  O211  1  0.49227073  0.13566957  0.24889692  1
  O  O212  1  0.49514611  0.13122925  0.74542393  1
  O  O213  1  0.49544872  0.62563219  0.24324134  1
  O  O214  1  0.48511330  0.63244810  0.75662637  1
  O  O215  1  0.98930844  0.12641628  0.24744620  1
  O  O216  1  1.00380041  0.11997694  0.73777404  1
  O  O217  1  1.00884194  0.62903215  0.23229648  1
  O  O218  1  1.00565237  0.61968719  0.73579946  1
  O  O219  1  0.37575259  0.25682900  0.00614699  1
  O  O220  1  0.36894623  0.24691901  0.51170649  1
  O  O221  1  0.38245378  0.76393864  0.00481573  1
  O  O222  1  0.36902881  0.75258150  0.50542995  1
  O  O223  1  0.87283666  0.25645966  0.00847310  1
  O  O224  1  0.87193853  0.26253237  0.50441121  1
  O  O225  1  0.87048982  0.75806429  0.00785552  1
  O  O226  1  0.86291201  0.75475803  0.49755226  1
  O  O227  1  0.13304973  0.24293206  0.49515244  1
  O  O228  1  0.12599922  0.24494634  0.98706982  1
  O  O229  1  0.13186659  0.74662083  0.48981909  1
  O  O230  1  0.12632218  0.75812374  0.98531250  1
  O  O231  1  0.61776701  0.23677719  0.50119099  1
  O  O232  1  0.62728673  0.24473814  0.99777925  1
  O  O233  1  0.63370530  0.74492493  0.49409676  1
  O  O234  1  0.63185416  0.74598325  0.99456563  1
  O  O235  1  0.48578303  0.25232758  0.13310473  1
  O  O236  1  0.49185331  0.24815498  0.63020974  1
  O  O237  1  0.50658462  0.74083233  0.12377732  1
  O  O238  1  0.49320574  0.75293291  0.63632356  1
  O  O239  1  0.99077304  0.24704757  0.13071212  1
  O  O240  1  0.99822727  0.23229249  0.61964707  1
  O  O241  1  0.99109797  0.74414116  0.12525084  1
  O  O242  1  0.99709886  0.72849039  0.61369970  1
  O  O243  1  -0.00014120  0.24525110  0.35964266  1
  O  O244  1  0.01088121  0.24731787  0.87386452  1
  O  O245  1  0.00683644  0.75313487  0.37486554  1
  O  O246  1  0.00646376  0.76155033  0.87719508  1
  O  O247  1  0.49322790  0.26083738  0.36405276  1
  O  O248  1  0.50865400  0.25512018  0.86903047  1
  O  O249  1  0.51404010  0.75972936  0.37952203  1
  O  O250  1  0.50363172  0.75364081  0.86414098  1
  O  O251  1  0.23641256  0.13369073  0.50762556  1
  O  O252  1  0.23986539  0.12545085  0.99034767  1
  O  O253  1  0.24014557  0.63580099  0.48969567  1
  O  O254  1  0.24306928  0.61587196  0.99618575  1
  O  O255  1  0.73231029  0.12034595  0.50513427  1
  O  O256  1  0.74158756  0.13261751  1.00041578  1
  O  O257  1  0.74338882  0.63187906  0.49239072  1
  O  O258  1  0.74507117  0.63097881  0.99152539  1
  O  O259  1  0.26266855  0.37365190  -0.00094568  1
  O  O260  1  0.25128096  0.36904424  0.50771621  1
  O  O261  1  0.25954557  0.88270679  0.00707808  1
  O  O262  1  0.25679088  0.86215634  0.49647432  1
  O  O263  1  0.76053111  0.36970603  0.01508837  1
  O  O264  1  0.77059113  0.36733272  0.46797041  1
  O  O265  1  0.76073900  0.86812659  -0.00028240  1
  O  O266  1  0.75258481  0.86857885  0.50646782  1
  O  O267  1  0.12352356  0.48868076  0.24814766  1
  O  O268  1  0.13568992  0.48752256  0.76097381  1
  O  O269  1  0.12635864  0.99298334  0.24672667  1
  O  O270  1  0.13651973  0.98656899  0.75041646  1
  O  O271  1  0.62000434  0.49382154  0.23813151  1
  O  O272  1  0.62518851  0.50723666  0.73334609  1
  O  O273  1  0.63097453  0.99597654  0.24771047  1
  O  O274  1  0.63375752  0.99752514  0.75032121  1
  O  O275  1  0.37520068  0.01025425  0.25687632  1
  O  O276  1  0.36272110  0.00376928  0.75252105  1
  O  O277  1  0.37224922  0.52028384  0.23493725  1
  O  O278  1  0.36537729  0.50773893  0.75332759  1
  O  O279  1  0.87025257  0.00330324  0.25896181  1
  O  O280  1  0.86829086  0.00077874  0.76106549  1
  O  O281  1  0.87842342  0.50005032  0.26881603  1
  O  O282  1  0.87417172  0.50543322  0.76013250  1
  O  O283  1  0.12944836  0.36666144  0.35458185  1
  O  O284  1  0.12674587  0.35876865  0.86626253  1
  O  O285  1  0.12144195  0.86855133  0.37025741  1
  O  O286  1  0.11815981  0.87100890  0.86856367  1
  O  O287  1  0.61295342  0.38493131  0.36516147  1
  O  O288  1  0.61877497  0.36433908  0.88551236  1
  O  O289  1  0.61930647  0.87095422  0.36890699  1
  O  O290  1  0.61721263  0.86652913  0.87442262  1
  O  O291  1  0.37604082  0.13212612  0.13141023  1
  O  O292  1  0.37963875  0.13151031  0.62979209  1
  O  O293  1  0.38899646  0.63445065  0.12950640  1
  O  O294  1  0.38178006  0.62733871  0.62713284  1
  O  O295  1  0.87778335  0.13267635  0.13123588  1
  O  O296  1  0.88643260  0.13024668  0.62614611  1
  O  O297  1  0.88215164  0.63682249  0.12100362  1
  O  O298  1  0.88765026  0.62218310  0.62334591  1
  O  O299  1  0.26278013  0.25151049  0.11954857  1
  O  O300  1  0.25590474  0.25534465  0.62014196  1
  O  O301  1  0.24841693  0.76596007  0.12703380  1
  O  O302  1  0.26170060  0.73954313  0.61516069  1
  O  O303  1  0.76364863  0.25811078  0.12794651  1
  O  O304  1  0.73274187  0.26441363  0.63553005  1
  O  O305  1  0.75644241  0.75336236  0.11703204  1
  O  O306  1  0.75191397  0.75659017  0.61622879  1
  O  O307  1  0.25628989  0.25363247  0.38848823  1
  O  O308  1  0.24352865  0.23620777  0.87383234  1
  O  O309  1  0.24247806  0.74384582  0.38256124  1
  O  O310  1  0.24562702  0.73667349  0.87364817  1
  O  O311  1  0.74555682  0.23257645  0.33395122  1
  O  O312  1  0.74293260  0.25117839  0.88772357  1
  O  O313  1  0.74078330  0.74553580  0.38267472  1
  O  O314  1  0.74465773  0.74387669  0.88158050  1
  O  O315  1  0.01311962  0.12677240  0.00248972  1
  O  O316  1  0.01279695  0.12193014  0.50384859  1
  O  O317  1  0.00135645  0.61668236  0.01162253  1
  O  O318  1  0.01529236  0.62452091  0.49964695  1
  O  O319  1  0.50505234  0.11765763  -0.00037281  1
  O  O320  1  0.50584566  0.11770034  0.50404655  1
  O  O321  1  0.50759430  0.62141416  0.00657557  1
  O  O322  1  0.50409762  0.62676520  0.50097874  1
  O  O323  1  0.49151538  0.37734266  0.48262068  1
  O  O324  1  0.49385671  0.37653376  0.99170608  1
  O  O325  1  0.49493612  0.88042149  0.49118962  1
  O  O326  1  0.49335846  0.88364776  0.99431607  1
  O  O327  1  0.98387290  0.37288887  0.50083999  1
  O  O328  1  0.98787441  0.38189858  1.00881869  1
  O  O329  1  0.99313527  0.87678685  0.49482593  1
  O  O330  1  0.98877916  0.87304938  0.99139882  1
  O  O331  1  0.49722189  0.49448588  0.37232049  1
  O  O332  1  0.50166685  0.49115699  0.88018905  1
  O  O333  1  0.49130879  0.99238727  0.38150047  1
  O  O334  1  0.49730096  0.99608637  0.88434338  1
  O  O335  1  0.99611025  0.50717395  0.37720171  1
  O  O336  1  0.98834845  0.50693442  0.88891808  1
  O  O337  1  0.99008078  0.99230254  0.37799766  1
  O  O338  1  0.99047913  0.98791553  0.87185784  1
  O  O339  1  0.01431729  -0.00078626  0.12925944  1
  O  O340  1  -0.00607642  0.01623325  0.62007436  1
  O  O341  1  -0.00604830  0.50750835  0.11428502  1
  O  O342  1  0.00391837  0.51676743  0.61669251  1
  O  O343  1  0.50567930  0.00180585  0.11279718  1
  O  O344  1  0.49766386  0.00391495  0.61679648  1
  O  O345  1  0.51041217  0.50846554  0.11799554  1
  O  O346  1  0.50129455  0.50265504  0.62740858  1
  O  O347  1  0.23973257  0.37634827  0.24207445  1
  O  O348  1  0.24628682  0.38122280  0.74433723  1
  O  O349  1  0.23801526  0.87678418  0.24578296  1
  O  O350  1  0.24127573  0.88679896  0.75311419  1
  O  O351  1  0.73891143  0.37417411  0.24285020  1
  O  O352  1  0.74235378  0.37959352  0.75527297  1
  O  O353  1  0.74190805  0.88765900  0.24979435  1
  O  O354  1  0.74878994  0.88259858  0.74387170  1
  O  O355  1  0.26216450  0.12587767  0.24797255  1
  O  O356  1  0.24978821  0.11445369  0.75307234  1
  O  O357  1  0.25255574  0.62523465  0.26555289  1
  O  O358  1  0.25619986  0.61828739  0.75453948  1
  O  O359  1  0.76483665  0.10975864  0.24048631  1
  O  O360  1  0.75161292  0.10925640  0.75638508  1
  O  O361  1  0.74713574  0.63293421  0.26691808  1
  O  O362  1  0.74724898  0.62250930  0.76548227  1
  O  O363  1  0.38178268  0.11623209  0.36660560  1
  O  O364  1  0.36558047  0.12466672  0.86724130  1
  O  O365  1  0.36208949  0.62632691  0.37021932  1
  O  O366  1  0.36651979  0.62524431  0.86835466  1
  O  O367  1  0.87518053  0.11780281  0.37083725  1
  O  O368  1  0.87501694  0.11536726  0.87582514  1
  O  O369  1  0.86334012  0.61377694  0.38179768  1
  O  O370  1  0.86807650  0.61795328  0.87957989  1
  O  O371  1  0.13024961  0.36750410  0.13975603  1
  O  O372  1  0.13422574  0.36350539  0.63327661  1
  O  O373  1  0.12784227  0.87910525  0.13157475  1
  O  O374  1  0.12179183  0.86689696  0.63736628  1
  O  O375  1  0.63196174  0.38506624  0.13062007  1
  O  O376  1  0.61999003  0.38259881  0.62602739  1
  O  O377  1  0.62521893  0.88224186  0.13358649  1
  O  O378  1  0.63769201  0.87549938  0.62613212  1
  O  O379  1  0.11021751  0.24084464  0.24957454  1
  O  O380  1  0.12751936  0.25559682  0.76187666  1
  O  O381  1  0.12463935  0.75697832  0.26342188  1
  O  O382  1  0.13493413  0.76615544  0.75984688  1
  O  O383  1  0.60756954  0.26790116  0.23587697  1
  O  O384  1  0.62588011  0.25646875  0.75378164  1
  O  O385  1  0.63085186  0.76571136  0.25800253  1
  O  O386  1  0.61580520  0.74942628  0.75349624  1
  O  O387  1  0.37875670  0.24675498  0.24437340  1
  O  O388  1  0.37726336  0.24371533  0.73936655  1
  O  O389  1  0.37042728  0.73407882  0.24781591  1
  O  O390  1  0.37655297  0.74299818  0.74126822  1
  O  O391  1  0.88931794  0.24160169  0.24309550  1
  O  O392  1  0.86601642  0.24558261  0.74186575  1
  O  O393  1  0.87396656  0.75975917  0.23642457  1
  O  O394  1  0.87075070  0.74138836  0.74813344  1
  O  O395  1  0.38040009  0.51319336  0.51708012  1
  O  O396  1  0.38694139  0.48981817  0.99597531  1
  O  O397  1  0.38349803  0.99748916  0.49399827  1
  O  O398  1  0.38193095  0.99394308  0.99904952  1
  O  O399  1  0.86863769  0.48634446  0.48192012  1
  O  O400  1  0.88075081  0.49351989  0.99700476  1
  O  O401  1  0.87094445  0.99455947  0.48961831  1
  O  O402  1  0.86955462  0.99114115  0.99196071  1
  O  O403  1  0.12845395  0.00790226  0.00756745  1
  O  O404  1  0.12802008  0.01246482  0.49735523  1
  O  O405  1  0.11812112  0.49779907  -0.00437117  1
  O  O406  1  0.13352577  0.51323847  0.49860243  1
  O  O407  1  0.61859625  0.00698177  0.00029244  1
  O  O408  1  0.61100064  -0.00112054  0.50112380  1
  O  O409  1  0.62391249  0.50547102  0.00933437  1
  O  O410  1  0.62292931  0.50839992  0.51130272  1
  O  O411  1  0.37322710  0.37094051  0.11581531  1
  O  O412  1  0.36442838  0.36735329  0.62180307  1
  O  O413  1  0.36679572  0.87550223  0.11934244  1
  O  O414  1  0.37756572  0.86230129  0.61756735  1
  O  O415  1  0.87013670  0.37033343  0.12490932  1
  O  O416  1  0.86935795  0.37920087  0.61125859  1
  O  O417  1  0.87611329  0.87083678  0.11715999  1
  O  O418  1  0.86576662  0.87392869  0.61970177  1
  O  O419  1  0.12366463  0.12770730  0.38928213  1
  O  O420  1  0.12744079  0.13113033  0.87781778  1
  O  O421  1  0.13327095  0.63051836  0.38122009  1
  O  O422  1  0.13218526  0.63554729  0.86948611  1
  O  O423  1  0.62370209  0.11859605  0.39226134  1
  O  O424  1  0.62551670  0.13759136  0.88605312  1
  O  O425  1  0.62926135  0.63329633  0.38410219  1
  O  O426  1  0.63087001  0.62949373  0.88133839  1
