# generated using pymatgen
data_V85Zn86O256
_symmetry_space_group_name_H-M   'P 1'
_cell_length_a   16.94556290
_cell_length_b   16.97057958
_cell_length_c   16.95210193
_cell_angle_alpha   89.96082121
_cell_angle_beta   90.00237678
_cell_angle_gamma   89.96824545
_symmetry_Int_Tables_number   1
_chemical_formula_structural   V85Zn86O256
_chemical_formula_sum   'V85 Zn86 O256'
_cell_volume   4875.01617545
_cell_formula_units_Z   1
loop_
 _symmetry_equiv_pos_site_id
 _symmetry_equiv_pos_as_xyz
  1  'x, y, z'
loop_
 _atom_site_type_symbol
 _atom_site_label
 _atom_site_symmetry_multiplicity
 _atom_site_fract_x
 _atom_site_fract_y
 _atom_site_fract_z
 _atom_site_occupancy
  V  V0  1  0.63908024  -0.01197066  0.62777837  1
  V  V1  1  0.62092261  0.24693873  0.86248239  1
  V  V2  1  0.37120034  0.37510892  0.00028616  1
  V  V3  1  0.25649783  0.87100759  0.12998732  1
  V  V4  1  0.12399850  0.74977029  0.37549350  1
  V  V5  1  0.87294201  0.76046703  0.61693346  1
  V  V6  1  0.12495463  0.74409539  0.88263590  1
  V  V7  1  0.75049461  0.25382103  0.00023413  1
  V  V8  1  0.01438262  0.62961842  0.12216367  1
  V  V9  1  0.50309140  0.87771111  0.87007747  1
  V  V10  1  0.56094312  -0.04701710  0.04529091  1
  V  V11  1  0.37212097  0.87786233  0.00094227  1
  V  V12  1  0.85184878  0.62456172  0.74920800  1
  V  V13  1  0.50215478  0.12617805  0.12281724  1
  V  V14  1  0.50066473  0.75573077  0.74809430  1
  V  V15  1  0.24875663  0.62469620  0.87728498  1
  V  V16  1  -0.00306392  0.25012224  0.75102644  1
  V  V17  1  0.49450843  0.88521562  0.37023958  1
  V  V18  1  0.49649218  0.62470568  0.11838920  1
  V  V19  1  0.25790648  0.74857119  0.50601012  1
  V  V20  1  -0.00043160  0.24938089  0.25011802  1
  V  V21  1  0.25075213  0.37526586  0.62365704  1
  V  V22  1  0.75507895  0.77334290  0.49116617  1
  V  V23  1  0.12339770  0.49890008  0.62437842  1
  V  V24  1  0.25192769  0.25112178  0.50073576  1
  V  V25  1  0.87390995  0.11215594  0.75313504  1
  V  V26  1  0.25041797  0.12168190  0.87738143  1
  V  V27  1  0.01044452  0.50720242  0.00309509  1
  V  V28  1  0.85715654  0.50645572  0.87603831  1
  V  V29  1  -0.00102881  0.87567754  0.88171138  1
  V  V30  1  0.12778062  0.00068158  0.62576752  1
  V  V31  1  -0.00311875  -0.00086607  -0.00390342  1
  V  V32  1  0.62571463  0.37696099  0.74884700  1
  V  V33  1  0.62707408  0.75441775  0.36929647  1
  V  V34  1  0.74487500  0.49627364  0.24663123  1
  V  V35  1  0.37653038  0.63016562  0.74473786  1
  V  V36  1  0.73043777  -0.00345671  0.24409271  1
  V  V37  1  0.12245861  0.25072133  0.87518507  1
  V  V38  1  -0.00925118  -0.00450658  0.50350562  1
  V  V39  1  0.12776066  0.87397307  0.75212379  1
  V  V40  1  0.25037159  0.50206457  0.74884380  1
  V  V41  1  0.00067233  0.74620886  0.75058879  1
  V  V42  1  -0.00386167  0.62404259  0.62811078  1
  V  V43  1  0.25845787  -0.00082059  0.75164778  1
  V  V44  1  0.24198492  0.37863977  0.12668162  1
  V  V45  1  0.37434941  0.62807807  0.24435980  1
  V  V46  1  0.64307224  0.62919889  -0.00587408  1
  V  V47  1  0.51047464  0.37604109  0.36841535  1
  V  V48  1  0.49602458  0.36983291  0.86342572  1
  V  V49  1  0.63765326  0.75154557  0.87304887  1
  V  V50  1  0.86917922  0.25022863  0.62928391  1
  V  V51  1  0.63885300  0.62856631  0.49687264  1
  V  V52  1  0.12237976  0.87678060  0.25242548  1
  V  V53  1  0.37429862  0.49842228  0.37120914  1
  V  V54  1  0.62737673  0.50459182  0.63177844  1
  V  V55  1  0.24839249  0.24882201  0.00281510  1
  V  V56  1  0.12937318  0.24845138  0.37409902  1
  V  V57  1  0.75304371  0.12135237  0.86964289  1
  V  V58  1  -0.00950689  0.87626683  0.37954756  1
  V  V59  1  0.50080200  0.75217379  0.24846866  1
  V  V60  1  -0.01191611  0.49282100  0.50399240  1
  V  V61  1  0.00091682  0.37224223  0.38175989  1
  V  V62  1  0.81773339  -0.05531936  0.93485785  1
  V  V63  1  0.75478049  0.37954442  0.63090974  1
  V  V64  1  0.64251446  0.12904113  0.49719453  1
  V  V65  1  0.12285258  0.37588069  0.74966610  1
  V  V66  1  0.51048455  0.48963676  0.00466053  1
  V  V67  1  0.12303920  0.62454867  0.50114381  1
  V  V68  1  0.25379554  0.74332035  0.00644058  1
  V  V69  1  0.37693469  0.50108818  0.87502953  1
  V  V70  1  0.38458371  0.24916263  0.63081882  1
  V  V71  1  -0.00255212  0.12455925  0.12600616  1
  V  V72  1  0.50876462  0.25343138  0.24919175  1
  V  V73  1  -0.00542621  0.38017063  0.87764986  1
  V  V74  1  0.12457905  0.12427484  0.00094232  1
  V  V75  1  0.12437646  -0.00129396  0.12837692  1
  V  V76  1  0.50140215  0.50258280  0.49768259  1
  V  V77  1  0.62015628  0.12659876  -0.00236810  1
  V  V78  1  0.25811281  0.11765800  0.37473117  1
  V  V79  1  0.86182642  0.75226726  0.11054742  1
  V  V80  1  0.50018622  0.63289034  0.62126347  1
  V  V81  1  0.87128972  0.25625430  0.12377712  1
  V  V82  1  0.81533357  0.31271262  0.45112065  1
  V  V83  1  0.23753413  0.50172309  0.24826949  1
  V  V84  1  0.49431866  0.00757051  0.50324232  1
  Zn  Zn85  1  0.12692452  0.12238425  0.50372320  1
  Zn  Zn86  1  0.86090465  0.12190284  0.25928492  1
  Zn  Zn87  1  0.63564690  0.24780732  0.37634013  1
  Zn  Zn88  1  0.37401549  0.24868367  0.12883673  1
  Zn  Zn89  1  0.37757046  0.37577183  0.49848852  1
  Zn  Zn90  1  0.51130886  0.12718470  0.63568577  1
  Zn  Zn91  1  0.24673824  0.62327217  0.37368911  1
  Zn  Zn92  1  0.38544620  0.00407267  0.88061464  1
  Zn  Zn93  1  0.62815046  0.49033279  0.13403972  1
  Zn  Zn94  1  0.38318151  0.12124166  0.25558147  1
  Zn  Zn95  1  0.00094001  0.12485702  0.62730784  1
  Zn  Zn96  1  0.11978172  0.38088185  0.24694106  1
  Zn  Zn97  1  0.68436092  0.92482414  0.79432519  1
  Zn  Zn98  1  0.87087811  0.38482558  0.00852288  1
  Zn  Zn99  1  0.86507966  0.63040506  0.25022916  1
  Zn  Zn100  1  0.26071943  0.86785276  0.63106300  1
  Zn  Zn101  1  0.86000602  0.00132962  0.37214912  1
  Zn  Zn102  1  0.38192353  0.13200953  0.75558629  1
  Zn  Zn103  1  0.25643163  -0.00371651  0.25606766  1
  Zn  Zn104  1  0.86319374  0.51362584  0.37597479  1
  Zn  Zn105  1  0.37750995  0.87612200  0.50355411  1
  Zn  Zn106  1  -0.00699879  0.75223988  0.24437061  1
  Zn  Zn107  1  0.18647520  0.18858197  0.19032945  1
  Zn  Zn108  1  0.19104423  0.18632036  0.68958021  1
  Zn  Zn109  1  0.18388459  0.68784228  0.18891959  1
  Zn  Zn110  1  0.18586872  0.68638912  0.68839532  1
  Zn  Zn111  1  0.68496402  0.18351948  0.18734107  1
  Zn  Zn112  1  0.68954953  0.18426241  0.68331841  1
  Zn  Zn113  1  0.68901641  0.68291878  0.18448369  1
  Zn  Zn114  1  0.70234086  0.75430170  0.69728865  1
  Zn  Zn115  1  0.31989625  0.31130802  0.30879012  1
  Zn  Zn116  1  0.30831838  0.31241543  0.81181320  1
  Zn  Zn117  1  0.31455591  0.81035801  0.31702739  1
  Zn  Zn118  1  0.31651758  0.81125008  0.81595127  1
  Zn  Zn119  1  0.81188370  0.32085138  0.28759318  1
  Zn  Zn120  1  0.80956739  0.31338246  0.81263687  1
  Zn  Zn121  1  0.80889845  0.81785193  0.29971460  1
  Zn  Zn122  1  0.82048162  0.80579034  0.81330515  1
  Zn  Zn123  1  0.18517923  0.43791696  0.43699609  1
  Zn  Zn124  1  0.18612509  0.43853159  0.93607767  1
  Zn  Zn125  1  0.18603960  0.93374609  0.44073781  1
  Zn  Zn126  1  0.18702021  0.93578442  0.94036035  1
  Zn  Zn127  1  0.68482309  0.44634292  0.43221309  1
  Zn  Zn128  1  0.67612859  0.43078612  0.95455151  1
  Zn  Zn129  1  0.67725293  0.94377908  0.43005705  1
  Zn  Zn130  1  0.75031809  0.87940987  1.11669312  1
  Zn  Zn131  1  0.31488648  0.05791086  0.06936100  1
  Zn  Zn132  1  0.31360415  0.06435472  0.56403324  1
  Zn  Zn133  1  0.31252760  0.55991941  0.06441779  1
  Zn  Zn134  1  0.31440844  0.56514942  0.56042201  1
  Zn  Zn135  1  0.80588005  0.06983477  0.07185942  1
  Zn  Zn136  1  0.81347903  0.06151294  0.56558487  1
  Zn  Zn137  1  0.81693723  0.56395327  0.07151116  1
  Zn  Zn138  1  0.81006803  0.56563047  0.56569722  1
  Zn  Zn139  1  0.43379219  0.43814864  0.18757944  1
  Zn  Zn140  1  0.43715091  0.44019922  0.68396081  1
  Zn  Zn141  1  0.43519771  0.93984319  0.19192074  1
  Zn  Zn142  1  0.43845617  0.93766592  0.68035948  1
  Zn  Zn143  1  0.93481284  0.44358413  0.18940796  1
  Zn  Zn144  1  0.93086137  0.44006964  0.69418564  1
  Zn  Zn145  1  0.92848241  0.93406837  0.18802737  1
  Zn  Zn146  1  0.94081405  0.93495239  0.69004658  1
  Zn  Zn147  1  0.05513646  0.06383886  0.31687803  1
  Zn  Zn148  1  0.06242994  0.06172216  0.81109642  1
  Zn  Zn149  1  0.03372676  0.57510364  0.32507852  1
  Zn  Zn150  1  0.05985653  0.56202536  0.81459700  1
  Zn  Zn151  1  0.56904037  0.06641709  0.31341658  1
  Zn  Zn152  1  0.55977268  0.06229205  0.80939632  1
  Zn  Zn153  1  0.56820945  0.56863744  0.31117846  1
  Zn  Zn154  1  0.56416310  0.56502226  0.81625393  1
  Zn  Zn155  1  0.44127603  0.19004986  0.44042954  1
  Zn  Zn156  1  0.43678193  0.19060892  0.93693482  1
  Zn  Zn157  1  0.43999058  0.68528449  0.42954220  1
  Zn  Zn158  1  0.43570918  0.69004461  0.93636254  1
  Zn  Zn159  1  0.94349083  0.17656293  0.43978181  1
  Zn  Zn160  1  0.93456235  0.18700994  0.93758692  1
  Zn  Zn161  1  0.93590868  0.68947250  0.43724164  1
  Zn  Zn162  1  0.93197964  0.68216642  0.93802041  1
  Zn  Zn163  1  0.05959700  0.31604151  0.06156328  1
  Zn  Zn164  1  0.06184050  0.30963931  0.56373223  1
  Zn  Zn165  1  0.06466203  0.81184129  0.06267334  1
  Zn  Zn166  1  0.06537516  0.81321887  0.56341872  1
  Zn  Zn167  1  0.56008374  0.30927615  0.05639619  1
  Zn  Zn168  1  0.56747258  0.31517390  0.55676050  1
  Zn  Zn169  1  0.55910763  0.79211397  0.06096504  1
  Zn  Zn170  1  0.56208462  0.81562579  0.55702983  1
  O  O171  1  0.11591221  0.12157575  0.12075809  1
  O  O172  1  0.12431341  0.11442706  0.62919264  1
  O  O173  1  0.11398683  0.62916881  0.11733677  1
  O  O174  1  0.11625290  0.61762775  0.62299274  1
  O  O175  1  0.61328042  0.13045041  0.11016391  1
  O  O176  1  0.62757975  0.11832878  0.61361688  1
  O  O177  1  0.61617600  0.62517369  0.10391497  1
  O  O178  1  0.61340785  0.61725645  0.61332950  1
  O  O179  1  0.38320902  0.38653903  0.37538745  1
  O  O180  1  0.37633592  0.37958345  0.87716853  1
  O  O181  1  0.39046564  0.87089057  0.38240514  1
  O  O182  1  0.38355848  0.87688994  0.88394194  1
  O  O183  1  0.87812086  0.36624161  0.38537824  1
  O  O184  1  0.88426452  0.38591939  0.87166260  1
  O  O185  1  0.88902617  0.87784434  0.36963214  1
  O  O186  1  0.88139554  0.87894543  0.87886698  1
  O  O187  1  0.24235671  0.01543031  0.37876879  1
  O  O188  1  0.24669307  0.00746727  0.86880085  1
  O  O189  1  0.25795100  0.50085440  0.36972377  1
  O  O190  1  0.25515952  0.50483623  0.86907959  1
  O  O191  1  0.74575235  -0.00938232  0.35465816  1
  O  O192  1  0.75420556  0.00003800  0.87243017  1
  O  O193  1  0.75140246  0.49862541  0.36074826  1
  O  O194  1  0.76064599  0.49082105  0.88235509  1
  O  O195  1  0.25226054  0.49096746  0.13474952  1
  O  O196  1  0.24567573  0.49573393  0.62899322  1
  O  O197  1  0.23988418  0.98892463  0.12635351  1
  O  O198  1  0.24531014  1.00005837  0.63607633  1
  O  O199  1  0.74575198  0.50180077  0.13365585  1
  O  O200  1  0.73952686  0.49201928  0.61934887  1
  O  O201  1  0.75003213  0.99563435  0.13285868  1
  O  O202  1  0.73838391  0.99789597  0.62246674  1
  O  O203  1  -0.00134047  0.36555287  0.25921934  1
  O  O204  1  0.00374263  0.37201136  0.75823962  1
  O  O205  1  0.00999911  0.87406983  0.25733659  1
  O  O206  1  0.00771039  0.86912285  0.76254349  1
  O  O207  1  0.49635521  0.36867644  0.25674740  1
  O  O208  1  0.50332361  0.37907474  0.75794992  1
  O  O209  1  0.49473811  0.86737385  0.26014008  1
  O  O210  1  0.49249903  0.86506501  0.75621364  1
  O  O211  1  0.50381672  0.13109858  0.23880348  1
  O  O212  1  0.49398464  0.12654301  0.74788177  1
  O  O213  1  0.49264479  0.63062621  0.24290565  1
  O  O214  1  0.49363989  0.63083367  0.74171613  1
  O  O215  1  1.00801951  0.13739159  0.24007634  1
  O  O216  1  0.99312479  0.13323753  0.75158151  1
  O  O217  1  1.00574556  0.62760677  0.22766458  1
  O  O218  1  0.99753435  0.62703744  0.73946056  1
  O  O219  1  0.36409738  0.25876506  -0.00040893  1
  O  O220  1  0.36520271  0.25353822  0.50799621  1
  O  O221  1  0.36374851  0.76226753  -0.00468148  1
  O  O222  1  0.35875434  0.74127842  0.49202723  1
  O  O223  1  0.86822896  0.25129857  0.00658925  1
  O  O224  1  0.87577874  0.24839165  0.50620841  1
  O  O225  1  0.87499664  0.74672496  0.01071166  1
  O  O226  1  0.86348968  0.74912474  0.50104562  1
  O  O227  1  0.13685651  0.24930578  0.49527271  1
  O  O228  1  0.12781590  0.24526742  0.99375837  1
  O  O229  1  0.13185470  0.74372021  0.49481853  1
  O  O230  1  0.13556499  0.75624315  0.98740120  1
  O  O231  1  0.62403234  0.23436116  0.49952144  1
  O  O232  1  0.63241322  0.24309267  0.98763086  1
  O  O233  1  0.63839892  0.74749634  0.49407794  1
  O  O234  1  0.62222166  0.73823584  0.98559353  1
  O  O235  1  0.50083499  0.24511335  0.13001874  1
  O  O236  1  0.48607497  0.25370792  0.61738799  1
  O  O237  1  0.49711069  0.73691487  0.13451096  1
  O  O238  1  0.50799817  0.74169586  0.63151164  1
  O  O239  1  0.99777460  0.24418344  0.13172436  1
  O  O240  1  0.98806769  0.25102841  0.63167873  1
  O  O241  1  0.99999285  0.73890610  0.12017199  1
  O  O242  1  0.99708058  0.74044784  0.62807631  1
  O  O243  1  0.00811690  0.25571480  0.37177754  1
  O  O244  1  0.00265594  0.26013735  0.87271511  1
  O  O245  1  0.01207263  0.76084884  0.37863567  1
  O  O246  1  0.00640690  0.75356509  0.87290767  1
  O  O247  1  0.49841042  0.26047110  0.36800581  1
  O  O248  1  0.50827123  0.25808563  0.87536062  1
  O  O249  1  0.50529934  0.75909711  0.36850309  1
  O  O250  1  0.50064239  0.75981303  0.86741979  1
  O  O251  1  0.24753972  0.13280841  0.49166579  1
  O  O252  1  0.24355423  0.12706953  0.99646767  1
  O  O253  1  0.24171511  0.63161195  0.49794544  1
  O  O254  1  0.25824584  0.63423381  0.99430494  1
  O  O255  1  0.74184658  0.12299942  0.49899870  1
  O  O256  1  0.74307896  0.13178354  0.98884582  1
  O  O257  1  0.74002250  0.62482364  0.49560954  1
  O  O258  1  0.74037237  0.62204998  1.00024292  1
  O  O259  1  0.25484802  0.37265927  0.00417007  1
  O  O260  1  0.25197802  0.36843988  0.50496203  1
  O  O261  1  0.25430617  0.86625920  0.00760204  1
  O  O262  1  0.25112999  0.85846074  0.49958832  1
  O  O263  1  0.75619892  0.35780352  -0.00747747  1
  O  O264  1  0.75345250  0.37556575  0.50429348  1
  O  O265  1  0.76087859  0.89087275  -0.00701266  1
  O  O266  1  0.74928201  0.87072874  0.49394861  1
  O  O267  1  0.13638714  0.49996624  0.26081542  1
  O  O268  1  0.12896310  0.49540066  0.74419568  1
  O  O269  1  0.12713979  0.99191298  0.24661188  1
  O  O270  1  0.13287881  0.99249389  0.74495971  1
  O  O271  1  0.63404819  0.50363484  0.24788318  1
  O  O272  1  0.61760312  0.49822182  0.73711508  1
  O  O273  1  0.62997512  1.00034616  0.24412596  1
  O  O274  1  0.62457619  1.00109173  0.73416594  1
  O  O275  1  0.36817145  0.00978870  0.24440146  1
  O  O276  1  0.36459132  -0.00067664  0.75532625  1
  O  O277  1  0.36604225  0.50615227  0.25624107  1
  O  O278  1  0.37096227  0.51020622  0.75335796  1
  O  O279  1  0.86922119  0.00380405  0.24994577  1
  O  O280  1  0.88219356  0.01287662  0.74747681  1
  O  O281  1  0.86375438  0.50279340  0.25292952  1
  O  O282  1  0.87313626  0.51078059  0.76437153  1
  O  O283  1  0.11771030  0.36345425  0.37524405  1
  O  O284  1  0.11312401  0.37214592  0.87066521  1
  O  O285  1  0.12346150  0.86825632  0.36690871  1
  O  O286  1  0.11996631  0.86813464  0.86780354  1
  O  O287  1  0.61274213  0.36993902  0.38321330  1
  O  O288  1  0.61442118  0.36721857  0.86943255  1
  O  O289  1  0.60884099  0.86247606  0.37824263  1
  O  O290  1  0.61699996  0.86134540  0.87301723  1
  O  O291  1  0.39153722  0.12817832  0.11675127  1
  O  O292  1  0.37376541  0.14190128  0.62605172  1
  O  O293  1  0.38022621  0.62013185  0.13724371  1
  O  O294  1  0.38778787  0.61962433  0.63229184  1
  O  O295  1  0.88919946  0.13565109  0.12328717  1
  O  O296  1  0.87509588  0.13417854  0.63470715  1
  O  O297  1  0.88568630  0.63924305  0.12408156  1
  O  O298  1  0.88085870  0.63013018  0.63138174  1
  O  O299  1  0.25084639  0.25621268  0.11956821  1
  O  O300  1  0.25448946  0.25544568  0.61749775  1
  O  O301  1  0.24334081  0.75722801  0.11587683  1
  O  O302  1  0.24338911  0.74764221  0.61017305  1
  O  O303  1  0.75939684  0.24095107  0.11445746  1
  O  O304  1  0.76201467  0.25973708  0.62727794  1
  O  O305  1  0.75634972  0.75578609  0.12064487  1
  O  O306  1  0.76032569  0.74684610  0.60040036  1
  O  O307  1  0.24613684  0.24765976  0.38176305  1
  O  O308  1  0.24238946  0.24276885  0.88086546  1
  O  O309  1  0.23853210  0.74589565  0.38323198  1
  O  O310  1  0.24371214  0.74423715  0.88197881  1
  O  O311  1  0.75902299  0.26396806  0.38127712  1
  O  O312  1  0.74300152  0.24096833  0.87921049  1
  O  O313  1  0.74317165  0.75877821  0.38196204  1
  O  O314  1  0.73619890  0.74992858  0.87462924  1
  O  O315  1  0.00543796  0.11952276  0.00439722  1
  O  O316  1  0.00980689  0.11176833  0.50869012  1
  O  O317  1  0.00017106  0.61440804  0.00462743  1
  O  O318  1  0.00398220  0.61810035  0.51358093  1
  O  O319  1  0.51159049  0.13162740  0.00172218  1
  O  O320  1  0.50440937  0.11496960  0.50268188  1
  O  O321  1  0.49215512  0.61825198  0.00898784  1
  O  O322  1  0.50319634  0.61936094  0.50467982  1
  O  O323  1  0.49904737  0.38924376  0.49400990  1
  O  O324  1  0.48028302  0.37011195  0.98422049  1
  O  O325  1  0.50027367  0.88805053  0.49002027  1
  O  O326  1  0.49607652  0.87819313  0.99634092  1
  O  O327  1  1.00157632  0.38100718  0.49588083  1
  O  O328  1  0.99538503  0.38629541  0.99350980  1
  O  O329  1  1.00733645  0.88248423  0.49280940  1
  O  O330  1  1.00714679  0.88224762  0.98938600  1
  O  O331  1  0.49588035  0.49642835  0.37862120  1
  O  O332  1  0.49274170  0.48936488  0.87839647  1
  O  O333  1  0.50760017  0.99047859  0.38300129  1
  O  O334  1  0.50304759  0.98392963  0.87406311  1
  O  O335  1  1.00200845  0.48053672  0.38546308  1
  O  O336  1  0.99412624  0.49605079  0.88416257  1
  O  O337  1  1.01411602  0.98783856  0.39090077  1
  O  O338  1  1.00639320  0.99337749  0.88680695  1
  O  O339  1  0.00231906  0.00636810  0.11564526  1
  O  O340  1  0.01028215  -0.00225206  0.62102804  1
  O  O341  1  -0.00576686  0.51037713  0.11091665  1
  O  O342  1  0.00073458  0.50328554  0.62129144  1
  O  O343  1  0.50299865  0.00435215  0.11457508  1
  O  O344  1  0.50885841  0.00328510  0.61284365  1
  O  O345  1  0.50019029  0.51080666  0.12407121  1
  O  O346  1  0.50612267  0.50612112  0.61475678  1
  O  O347  1  0.25021171  0.38223155  0.24232985  1
  O  O348  1  0.24196733  0.38276436  0.74542936  1
  O  O349  1  0.24365021  0.87206931  0.24553419  1
  O  O350  1  0.24399007  0.88079987  0.75403112  1
  O  O351  1  0.74455126  0.39267655  0.24027740  1
  O  O352  1  0.74059385  0.37482680  0.74103528  1
  O  O353  1  0.74657157  0.88777381  0.23550345  1
  O  O354  1  0.74762946  0.85016240  0.74241597  1
  O  O355  1  0.24863564  0.12784601  0.26700495  1
  O  O356  1  0.25385349  0.11726454  0.76093951  1
  O  O357  1  0.25574564  0.61939442  0.25061653  1
  O  O358  1  0.25801986  0.62113873  0.75295655  1
  O  O359  1  0.74744699  0.10838063  0.24226980  1
  O  O360  1  0.75740956  0.12874165  0.76191977  1
  O  O361  1  0.75054694  0.61211539  0.24637603  1
  O  O362  1  0.75572158  0.64186327  0.73791473  1
  O  O363  1  0.36009495  0.13092088  0.37854409  1
  O  O364  1  0.36250943  0.12294714  0.87847519  1
  O  O365  1  0.37511247  0.61248911  0.36397424  1
  O  O366  1  0.37004193  0.61913958  0.86649825  1
  O  O367  1  0.89867312  0.10988093  0.36622335  1
  O  O368  1  0.86550497  0.12924558  0.86646451  1
  O  O369  1  0.91758220  0.61440012  0.35802167  1
  O  O370  1  0.87207650  0.61447764  0.86569084  1
  O  O371  1  0.13704013  0.37189037  0.12627015  1
  O  O372  1  0.13021296  0.37977350  0.63022529  1
  O  O373  1  0.13165083  0.87720402  0.13551895  1
  O  O374  1  0.12946036  0.87865061  0.64026954  1
  O  O375  1  0.60273500  0.41306329  0.05438985  1
  O  O376  1  0.63209642  0.38291250  0.62785193  1
  O  O377  1  0.61782725  0.88671407  0.09625836  1
  O  O378  1  0.62422333  0.88853570  0.61961686  1
  O  O379  1  0.11787642  0.25542649  0.25851090  1
  O  O380  1  0.11935979  0.25570899  0.75592878  1
  O  O381  1  0.12156061  0.75765612  0.25947235  1
  O  O382  1  0.12145053  0.75683614  0.75838755  1
  O  O383  1  0.61437428  0.24692669  0.25552112  1
  O  O384  1  0.63031709  0.25519840  0.75809224  1
  O  O385  1  0.61142926  0.74231726  0.25552237  1
  O  O386  1  0.60938561  0.74413870  0.76220044  1
  O  O387  1  0.38903625  0.24236496  0.24694464  1
  O  O388  1  0.36727075  0.25252234  0.73416794  1
  O  O389  1  0.38539485  0.73851489  0.25883191  1
  O  O390  1  0.38268900  0.73698668  0.75420163  1
  O  O391  1  0.88250545  0.24339082  0.24206290  1
  O  O392  1  0.87944843  0.24561359  0.74464703  1
  O  O393  1  0.87645782  0.74795083  0.23762325  1
  O  O394  1  0.88554836  0.73848295  0.74270090  1
  O  O395  1  0.38341843  0.50172060  0.49023678  1
  O  O396  1  0.38148584  0.49031673  0.99545286  1
  O  O397  1  0.39071933  1.00386528  0.50229081  1
  O  O398  1  0.36597296  0.98356558  0.99701576  1
  O  O399  1  0.88571909  0.50649028  0.49743123  1
  O  O400  1  0.88157384  0.50222086  0.98820835  1
  O  O401  1  0.88820841  1.00063110  0.50148720  1
  O  O402  1  0.87826995  1.00576410  0.99604517  1
  O  O403  1  0.11718629  0.00472732  0.00727720  1
  O  O404  1  0.12625738  -0.00344454  0.51747229  1
  O  O405  1  0.10923263  0.49831910  -0.00489074  1
  O  O406  1  0.11518601  0.50466670  0.50616560  1
  O  O407  1  0.62206203  0.01152395  -0.00910897  1
  O  O408  1  0.61834073  0.01042471  0.50674289  1
  O  O409  1  0.61570622  0.52895571  -0.03198833  1
  O  O410  1  0.61754397  0.50944266  0.50437039  1
  O  O411  1  0.36490639  0.37315372  0.11473566  1
  O  O412  1  0.36860452  0.36727859  0.62265493  1
  O  O413  1  0.36243912  0.87607695  0.12003310  1
  O  O414  1  0.37227511  0.87410347  0.61721952  1
  O  O415  1  0.88414834  0.36026959  0.12481205  1
  O  O416  1  0.86359083  0.37075737  0.63073603  1
  O  O417  1  0.87983065  0.85600683  0.12039067  1
  O  O418  1  0.88514335  0.85831176  0.62813425  1
  O  O419  1  0.13144907  0.13783361  0.37763748  1
  O  O420  1  0.13374438  0.12933945  0.87910138  1
  O  O421  1  0.11970457  0.63324116  0.38266297  1
  O  O422  1  0.13319470  0.63477107  0.86731075  1
  O  O423  1  0.62363256  0.12896867  0.39175649  1
  O  O424  1  0.63145463  0.13068370  0.87751041  1
  O  O425  1  0.61414727  0.64290684  0.38705481  1
  O  O426  1  0.61764093  0.64387057  0.88017370  1
