# generated using pymatgen
data_V85Zn86O256
_symmetry_space_group_name_H-M   'P 1'
_cell_length_a   16.94919753
_cell_length_b   16.95807266
_cell_length_c   16.96679476
_cell_angle_alpha   89.99629503
_cell_angle_beta   89.98896172
_cell_angle_gamma   89.95696300
_symmetry_Int_Tables_number   1
_chemical_formula_structural   V85Zn86O256
_chemical_formula_sum   'V85 Zn86 O256'
_cell_volume   4876.69177809
_cell_formula_units_Z   1
loop_
 _symmetry_equiv_pos_site_id
 _symmetry_equiv_pos_as_xyz
  1  'x, y, z'
loop_
 _atom_site_type_symbol
 _atom_site_label
 _atom_site_symmetry_multiplicity
 _atom_site_fract_x
 _atom_site_fract_y
 _atom_site_fract_z
 _atom_site_occupancy
  V  V0  1  0.87798970  0.87648522  0.50055563  1
  V  V1  1  0.37663026  0.86901531  -0.00603178  1
  V  V2  1  0.87511171  0.74843421  0.62336015  1
  V  V3  1  0.12722509  -0.00077406  0.12414247  1
  V  V4  1  0.87522644  0.87405346  0.00177266  1
  V  V5  1  0.50942858  0.86705655  0.37645989  1
  V  V6  1  0.36443057  0.62780119  0.25892070  1
  V  V7  1  0.37656242  0.12214014  0.74960714  1
  V  V8  1  0.73258998  0.38090870  0.62496709  1
  V  V9  1  0.13813113  0.62568174  -0.00190391  1
  V  V10  1  0.00245951  0.00942706  0.49798750  1
  V  V11  1  0.86135645  0.00307960  0.37327491  1
  V  V12  1  0.51379008  0.74439072  0.25637588  1
  V  V13  1  0.49853710  0.61925961  0.13056499  1
  V  V14  1  0.86844270  0.37212081  0.01347992  1
  V  V15  1  0.00190890  0.00075159  -0.00091898  1
  V  V16  1  0.87317251  0.50147125  0.37764996  1
  V  V17  1  0.50350524  0.36995371  0.88166347  1
  V  V18  1  0.12680245  0.87322994  0.24934997  1
  V  V19  1  0.37641112  0.37167793  0.49945221  1
  V  V20  1  0.13378721  0.25524660  0.87153626  1
  V  V21  1  0.12078207  0.24459701  0.38104256  1
  V  V22  1  0.12455743  0.00809592  0.62132995  1
  V  V23  1  0.36268434  0.25062545  0.12551145  1
  V  V24  1  0.86922447  0.12517947  0.25406055  1
  V  V25  1  -0.00240491  0.49682483  -0.00804117  1
  V  V26  1  0.87171793  0.75084778  0.12364847  1
  V  V27  1  0.87399232  0.62511048  0.24859042  1
  V  V28  1  0.19103504  0.57468642  0.43371770  1
  V  V29  1  0.12366168  0.48549385  0.12480020  1
  V  V30  1  0.87466830  0.12998687  0.75647518  1
  V  V31  1  0.50693670  0.75460896  0.75527981  1
  V  V32  1  0.63173766  0.24774714  0.37382800  1
  V  V33  1  0.87182042  0.61939736  0.74931258  1
  V  V34  1  0.37554267  0.87150221  0.49986340  1
  V  V35  1  0.50588661  0.25791515  0.75006808  1
  V  V36  1  0.74252304  0.74992915  -0.00501065  1
  V  V37  1  0.24272472  0.74948181  0.49555019  1
  V  V38  1  0.75350203  0.24610166  0.49879886  1
  V  V39  1  0.51332891  0.62458441  0.62037908  1
  V  V40  1  0.74782366  0.49906105  0.24481342  1
  V  V41  1  -0.00093848  0.75121626  0.24962330  1
  V  V42  1  0.37953515  -0.00721467  0.87242405  1
  V  V43  1  0.75156969  0.00686091  0.75872625  1
  V  V44  1  0.24876851  0.87406798  0.62456212  1
  V  V45  1  0.45078031  0.53819861  -0.04814990  1
  V  V46  1  0.36922371  0.37278186  0.00064557  1
  V  V47  1  0.00028456  0.62434607  0.12005888  1
  V  V48  1  0.25363863  -0.00193697  0.25056132  1
  V  V49  1  -0.00211540  0.74946727  0.75177162  1
  V  V50  1  -0.00273242  0.12914038  0.12716647  1
  V  V51  1  0.25026867  -0.00314104  0.75068946  1
  V  V52  1  0.00444251  0.25485743  0.75562574  1
  V  V53  1  0.24640495  0.48882303  0.24400784  1
  V  V54  1  0.12565617  0.39221901  0.75243122  1
  V  V55  1  0.49670942  0.25293280  0.24489099  1
  V  V56  1  0.24457773  0.12360557  0.38236739  1
  V  V57  1  0.00077364  0.87700440  0.37459712  1
  V  V58  1  0.01336044  0.61966383  0.62068478  1
  V  V59  1  0.00346157  0.25392010  0.24702564  1
  V  V60  1  0.25676978  0.86658074  0.12095851  1
  V  V61  1  0.62970255  0.00065583  0.62759943  1
  V  V62  1  0.12696448  0.12682189  -0.00207623  1
  V  V63  1  0.37199578  0.24854492  0.62982147  1
  V  V64  1  0.50178034  0.00090949  0.50215980  1
  V  V65  1  0.13298191  0.74860306  0.88215236  1
  V  V66  1  0.37747066  0.00208585  0.37539982  1
  V  V67  1  0.74075508  0.88865117  0.12751273  1
  V  V68  1  0.74395092  0.75012958  0.49244300  1
  V  V69  1  0.62544641  0.62244433  -0.00725365  1
  V  V70  1  0.50174706  0.00299142  0.00140870  1
  V  V71  1  0.50507662  0.37499590  0.37180395  1
  V  V72  1  0.62452526  0.49832958  0.12489272  1
  V  V73  1  0.72207036  0.49945833  0.74723603  1
  V  V74  1  0.87771428  0.25663890  0.62677189  1
  V  V75  1  0.87186179  0.48874059  0.86920404  1
  V  V76  1  0.50275211  0.12476543  0.62504554  1
  V  V77  1  0.00345160  0.37686640  0.37398243  1
  V  V78  1  0.68273476  0.32087575  0.19025422  1
  V  V79  1  0.37595752  0.74067692  0.62838754  1
  V  V80  1  0.12280934  0.87625454  0.75088133  1
  V  V81  1  0.62813960  0.87457188  0.76308979  1
  V  V82  1  0.63595324  0.24201094  0.87590494  1
  V  V83  1  -0.00341862  0.87576857  0.87587031  1
  V  V84  1  0.24631005  0.38800796  0.62989206  1
  Zn  Zn85  1  0.49878272  0.12460096  0.12366824  1
  Zn  Zn86  1  0.87217881  0.01021571  0.87996066  1
  Zn  Zn87  1  0.37590796  0.74955478  0.12649974  1
  Zn  Zn88  1  0.63375493  0.12038865  0.49216448  1
  Zn  Zn89  1  0.01079091  0.50492251  0.49964171  1
  Zn  Zn90  1  0.75344283  0.87623603  0.62769642  1
  Zn  Zn91  1  0.64191613  0.11394510  -0.00296001  1
  Zn  Zn92  1  0.31269277  0.58563576  0.81283583  1
  Zn  Zn93  1  0.00507666  0.13181706  0.62250871  1
  Zn  Zn94  1  0.87806242  0.37989688  0.50353416  1
  Zn  Zn95  1  0.24183933  0.24311691  0.50807559  1
  Zn  Zn96  1  0.63430490  0.88694652  0.25481194  1
  Zn  Zn97  1  0.74232707  0.63161654  0.36795108  1
  Zn  Zn98  1  0.37438888  0.12591326  0.24962747  1
  Zn  Zn99  1  0.37626321  0.49862483  0.37689550  1
  Zn  Zn100  1  0.25079979  0.12257867  0.87694227  1
  Zn  Zn101  1  0.24232325  0.25868721  0.00643379  1
  Zn  Zn102  1  0.75557809  0.24841971  0.00665357  1
  Zn  Zn103  1  0.62566843  0.61664013  0.48815154  1
  Zn  Zn104  1  0.12691402  0.74760373  0.37642713  1
  Zn  Zn105  1  0.74346068  0.62685682  0.87038620  1
  Zn  Zn106  1  0.51123351  0.49164311  0.50774759  1
  Zn  Zn107  1  0.18497201  0.18594047  0.19359198  1
  Zn  Zn108  1  0.19070091  0.18780377  0.69135083  1
  Zn  Zn109  1  0.18576262  0.68431373  0.18532610  1
  Zn  Zn110  1  0.19088075  0.68763033  0.69396979  1
  Zn  Zn111  1  0.69166405  0.14251511  0.17268627  1
  Zn  Zn112  1  0.68900080  0.18897399  0.68842249  1
  Zn  Zn113  1  0.68719150  0.68757710  0.18331060  1
  Zn  Zn114  1  0.68876176  0.68902494  0.68531590  1
  Zn  Zn115  1  0.31220572  0.30853916  0.31519238  1
  Zn  Zn116  1  0.32072808  0.42430744  0.81260184  1
  Zn  Zn117  1  0.31495399  0.81104037  0.31434009  1
  Zn  Zn118  1  0.30628716  0.78548004  0.80386299  1
  Zn  Zn119  1  0.82171088  0.30888122  0.31620073  1
  Zn  Zn120  1  0.80837341  0.31890506  0.80543610  1
  Zn  Zn121  1  0.81375807  0.81791856  0.31026760  1
  Zn  Zn122  1  0.81105551  0.81373454  0.81304543  1
  Zn  Zn123  1  0.18908403  0.41244665  0.43503687  1
  Zn  Zn124  1  0.19091370  0.44678419  0.93281247  1
  Zn  Zn125  1  0.18640882  0.93663282  0.43772993  1
  Zn  Zn126  1  0.19089931  0.93399963  0.93649072  1
  Zn  Zn127  1  0.68779510  0.43516865  0.43567934  1
  Zn  Zn128  1  0.68490132  0.43434634  0.93533835  1
  Zn  Zn129  1  0.68852543  0.93368030  0.44296099  1
  Zn  Zn130  1  0.68904997  0.93613127  0.93846706  1
  Zn  Zn131  1  0.31544546  0.06052798  0.06334500  1
  Zn  Zn132  1  0.31240469  0.06140699  0.56211946  1
  Zn  Zn133  1  0.30898480  0.56309199  0.07266735  1
  Zn  Zn134  1  0.32506473  0.55834357  0.56640571  1
  Zn  Zn135  1  0.81782637  0.06547656  0.06114558  1
  Zn  Zn136  1  0.81699871  0.06637382  0.56880417  1
  Zn  Zn137  1  0.81008252  0.56026953  0.06115446  1
  Zn  Zn138  1  0.80807183  0.56318775  0.56351608  1
  Zn  Zn139  1  0.43351669  0.43517297  0.18610028  1
  Zn  Zn140  1  0.43738368  0.43617418  0.68290943  1
  Zn  Zn141  1  0.47204793  0.95075381  0.20326582  1
  Zn  Zn142  1  0.44015202  0.93119395  0.68776798  1
  Zn  Zn143  1  0.93854543  0.43773553  0.18801049  1
  Zn  Zn144  1  0.94069444  0.43918913  0.68678708  1
  Zn  Zn145  1  0.93517512  0.94102280  0.18650118  1
  Zn  Zn146  1  0.93689479  0.94103923  0.68725323  1
  Zn  Zn147  1  0.06172789  0.06204400  0.31233060  1
  Zn  Zn148  1  0.05992739  0.06555627  0.81120955  1
  Zn  Zn149  1  0.05788417  0.55782105  0.30391413  1
  Zn  Zn150  1  0.06022504  0.56730048  0.81592772  1
  Zn  Zn151  1  0.56466445  0.06577068  0.31146961  1
  Zn  Zn152  1  0.56061689  0.06284138  0.81570609  1
  Zn  Zn153  1  0.56701050  0.55895240  0.31559665  1
  Zn  Zn154  1  0.50874967  0.54307986  0.78366530  1
  Zn  Zn155  1  0.43993504  0.18819808  0.43768474  1
  Zn  Zn156  1  0.43174526  0.18787931  0.93399773  1
  Zn  Zn157  1  0.43649322  0.68604368  0.43869462  1
  Zn  Zn158  1  0.44678225  0.70512112  0.93944158  1
  Zn  Zn159  1  0.93473559  0.18818621  0.43710742  1
  Zn  Zn160  1  0.94145923  0.19496063  0.93624276  1
  Zn  Zn161  1  0.93790813  0.68630899  0.43734557  1
  Zn  Zn162  1  0.93513855  0.68475540  0.93515132  1
  Zn  Zn163  1  0.05313654  0.31255029  0.05671633  1
  Zn  Zn164  1  0.06209215  0.31853329  0.56336497  1
  Zn  Zn165  1  0.06368566  0.81136586  0.06356637  1
  Zn  Zn166  1  0.06112480  0.81453553  0.56390891  1
  Zn  Zn167  1  0.55589457  0.30276037  0.05483760  1
  Zn  Zn168  1  0.56270756  0.30679184  0.55686245  1
  Zn  Zn169  1  0.55888628  0.81106237  0.06355172  1
  Zn  Zn170  1  0.56486993  0.81613971  0.56828736  1
  O  O171  1  0.11737194  0.11905708  0.12038825  1
  O  O172  1  0.12667421  0.11186227  0.62857803  1
  O  O173  1  0.11736817  0.61876186  0.11620762  1
  O  O174  1  0.11155748  0.63236528  0.63396363  1
  O  O175  1  0.61038506  0.12646360  0.10659725  1
  O  O176  1  0.62108886  0.11427238  0.62599985  1
  O  O177  1  0.61697297  0.61569416  0.12113840  1
  O  O178  1  0.61499089  0.63251353  0.61529165  1
  O  O179  1  0.38028237  0.37185956  0.38551685  1
  O  O180  1  0.39141168  0.37066585  0.88504166  1
  O  O181  1  0.37935658  0.88079699  0.38650144  1
  O  O182  1  0.36652305  0.87643349  0.88861648  1
  O  O183  1  0.88655737  0.38306291  0.37777035  1
  O  O184  1  0.87285775  0.38678789  0.87430448  1
  O  O185  1  0.88279512  0.88412641  0.37873132  1
  O  O186  1  0.88524953  0.87605628  0.88062170  1
  O  O187  1  0.25705553  0.00356083  0.37192050  1
  O  O188  1  0.25893140  -0.00076573  0.86724574  1
  O  O189  1  0.24483709  0.50583324  0.37373392  1
  O  O190  1  0.25394749  0.50230784  0.86123783  1
  O  O191  1  0.76186862  -0.00453537  0.37957132  1
  O  O192  1  0.75430958  -0.00266780  0.86334733  1
  O  O193  1  0.75806600  0.49559755  0.36002395  1
  O  O194  1  0.75281035  0.50069074  0.86200817  1
  O  O195  1  0.24081435  0.49593626  0.13658703  1
  O  O196  1  0.25652840  0.48675013  0.62479993  1
  O  O197  1  0.24616996  0.99261454  0.13329370  1
  O  O198  1  0.24319662  0.99298633  0.62802779  1
  O  O199  1  0.74522270  0.50043139  0.13690463  1
  O  O200  1  0.75033418  0.48827321  0.63108799  1
  O  O201  1  0.75330491  0.98734900  0.12171075  1
  O  O202  1  0.74531964  1.00068225  0.63533918  1
  O  O203  1  -0.00728290  0.36422602  0.25764046  1
  O  O204  1  0.01784057  0.36969419  0.74119501  1
  O  O205  1  0.00764438  0.87151962  0.25208727  1
  O  O206  1  0.00168617  0.87160820  0.75797265  1
  O  O207  1  0.49270817  0.36280265  0.25757951  1
  O  O208  1  0.49683398  0.36184551  0.75581914  1
  O  O209  1  0.48651669  0.85488983  0.26474938  1
  O  O210  1  0.51742315  0.86700111  0.74123026  1
  O  O211  1  0.49535448  0.14285727  0.25230996  1
  O  O212  1  0.49421200  0.12888133  0.74308032  1
  O  O213  1  0.49071435  0.62845103  0.24748066  1
  O  O214  1  0.50618057  0.64500036  0.73285781  1
  O  O215  1  0.99697468  0.13027382  0.24308091  1
  O  O216  1  0.99560304  0.13663023  0.74441263  1
  O  O217  1  0.99402027  0.63122095  0.24059106  1
  O  O218  1  0.99126685  0.63027632  0.74153863  1
  O  O219  1  0.36879066  0.25461669  0.00737822  1
  O  O220  1  0.37709825  0.25673483  0.51255277  1
  O  O221  1  0.37751975  0.76417193  0.00560301  1
  O  O222  1  0.36725894  0.75578922  0.50662064  1
  O  O223  1  0.87980142  0.26826517  -0.00216311  1
  O  O224  1  0.87157273  0.25396123  0.50908139  1
  O  O225  1  0.86980806  0.75523251  0.00554626  1
  O  O226  1  0.87253589  0.75579949  0.50736981  1
  O  O227  1  0.12370541  0.25471246  0.48705067  1
  O  O228  1  0.12216913  0.24515072  0.99166356  1
  O  O229  1  0.13773837  0.75504302  0.50099656  1
  O  O230  1  0.11369373  0.73641893  0.99390836  1
  O  O231  1  0.63508373  0.24558524  0.49083891  1
  O  O232  1  0.62953356  0.24940700  0.98413549  1
  O  O233  1  0.64372310  0.75693578  0.50568570  1
  O  O234  1  0.63187956  0.73858661  1.00823220  1
  O  O235  1  0.48751678  0.24966157  0.13150103  1
  O  O236  1  0.49714090  0.24471111  0.63145290  1
  O  O237  1  0.49873623  0.73643373  0.13512380  1
  O  O238  1  0.49457133  0.74381185  0.62398262  1
  O  O239  1  1.00547639  0.24038350  0.13360900  1
  O  O240  1  0.99514778  0.25222037  0.63286172  1
  O  O241  1  0.99175341  0.74571826  0.13002376  1
  O  O242  1  0.99088707  0.74303590  0.62957559  1
  O  O243  1  0.00334986  0.25637096  0.37165139  1
  O  O244  1  0.01192162  0.25060646  0.86145690  1
  O  O245  1  0.00221501  0.75712547  0.36800539  1
  O  O246  1  0.00182497  0.75801545  0.87024651  1
  O  O247  1  0.50612934  0.25769441  0.36818322  1
  O  O248  1  0.50562329  0.25246464  0.86758056  1
  O  O249  1  0.49609927  0.75653438  0.37060743  1
  O  O250  1  0.50316194  0.75196130  0.85412266  1
  O  O251  1  0.25311464  0.12526997  0.48752373  1
  O  O252  1  0.23501175  0.12452441  1.00216772  1
  O  O253  1  0.25268357  0.62781338  0.49892521  1
  O  O254  1  0.23750409  0.62185203  1.00591475  1
  O  O255  1  0.75254023  0.14151552  0.50894781  1
  O  O256  1  0.75495560  0.13493817  1.00462712  1
  O  O257  1  0.75249944  0.64117468  0.49834081  1
  O  O258  1  0.74244167  0.63257747  0.99963615  1
  O  O259  1  0.26406220  0.37583472  -0.00781991  1
  O  O260  1  0.25780393  0.36716437  0.51269807  1
  O  O261  1  0.26294810  0.88378775  0.01102821  1
  O  O262  1  0.25696978  0.86871915  0.50417972  1
  O  O263  1  0.76448810  0.37107256  -0.00414029  1
  O  O264  1  0.75470910  0.36728349  0.51246446  1
  O  O265  1  0.75461483  0.86939456  0.00841523  1
  O  O266  1  0.76027994  0.86599124  0.50488097  1
  O  O267  1  0.13677095  0.50551335  0.23954643  1
  O  O268  1  0.11843789  0.49053182  0.75182843  1
  O  O269  1  0.12956277  0.98852088  0.24573352  1
  O  O270  1  0.12846718  0.99457341  0.74415368  1
  O  O271  1  0.63467405  0.49842987  0.23778999  1
  O  O272  1  0.62422772  0.50888580  0.75195875  1
  O  O273  1  0.57964201  0.98451388  0.23971591  1
  O  O274  1  0.63256994  0.99659156  0.74693027  1
  O  O275  1  0.37619037  -0.00124186  0.26444781  1
  O  O276  1  0.37151585  -0.00157625  0.75424021  1
  O  O277  1  0.36136134  0.50657394  0.25204397  1
  O  O278  1  0.39441334  0.50378979  0.76275075  1
  O  O279  1  0.88380103  0.01237558  0.26162096  1
  O  O280  1  0.86935830  0.01198580  0.74999986  1
  O  O281  1  0.87013393  0.50482148  0.25694800  1
  O  O282  1  0.87192530  0.50578323  0.75414846  1
  O  O283  1  0.11094607  0.36503889  0.37067506  1
  O  O284  1  0.13030124  0.37076536  0.85902872  1
  O  O285  1  0.11956348  0.87404291  0.36493572  1
  O  O286  1  0.11126642  0.87304039  0.87316327  1
  O  O287  1  0.61665195  0.36056113  0.37659214  1
  O  O288  1  0.61297478  0.36086344  0.87886729  1
  O  O289  1  0.61287997  0.87833254  0.37516007  1
  O  O290  1  0.63037302  0.87421922  0.86216105  1
  O  O291  1  0.37658598  0.13430941  0.12771994  1
  O  O292  1  0.38092334  0.12985463  0.62789089  1
  O  O293  1  0.38193064  0.62528716  0.13783469  1
  O  O294  1  0.38373439  0.63791394  0.62322276  1
  O  O295  1  0.89012550  0.11629660  0.13901870  1
  O  O296  1  0.87845256  0.14095980  0.63608168  1
  O  O297  1  0.88002109  0.63006382  0.12854939  1
  O  O298  1  0.87964927  0.63016520  0.63429168  1
  O  O299  1  0.25767246  0.24701751  0.12767496  1
  O  O300  1  0.25896113  0.25488710  0.62580250  1
  O  O301  1  0.25073080  0.76336798  0.13031915  1
  O  O302  1  0.25837427  0.75663664  0.61618796  1
  O  O303  1  0.73601998  0.25644590  0.13510769  1
  O  O304  1  0.75672468  0.26246202  0.62335993  1
  O  O305  1  0.75709247  0.75470254  0.11477501  1
  O  O306  1  0.76375270  0.75093963  0.61752964  1
  O  O307  1  0.23985438  0.24096116  0.37659268  1
  O  O308  1  0.23568833  0.24278262  0.87854153  1
  O  O309  1  0.24814870  0.75192198  0.38715066  1
  O  O310  1  0.22964780  0.77095786  0.88858369  1
  O  O311  1  0.74499399  0.25784223  0.38582751  1
  O  O312  1  0.73659340  0.25438534  0.86774289  1
  O  O313  1  0.75928733  0.75348179  0.38928682  1
  O  O314  1  0.75517441  0.74852490  0.89055184  1
  O  O315  1  0.00808200  0.12380368  0.00740272  1
  O  O316  1  -0.00452903  0.11314728  0.50293127  1
  O  O317  1  -0.00153393  0.61354250  0.00522618  1
  O  O318  1  -0.00076001  0.62524289  0.51552001  1
  O  O319  1  0.49223162  0.10752191  -0.00810928  1
  O  O320  1  0.50343020  0.11837781  0.50753395  1
  O  O321  1  0.50380619  0.62022740  0.00973545  1
  O  O322  1  0.49955255  0.62485847  0.51135979  1
  O  O323  1  0.49285856  0.37150304  0.49246015  1
  O  O324  1  0.48888755  0.37224667  0.99194265  1
  O  O325  1  0.49366581  0.87808918  0.49563001  1
  O  O326  1  0.48476634  0.88248651  1.00312277  1
  O  O327  1  0.99957361  0.38583359  0.49264968  1
  O  O328  1  0.98696878  0.38930208  1.00004771  1
  O  O329  1  0.99474264  0.88332143  0.49508584  1
  O  O330  1  0.99622954  0.87897348  0.99394534  1
  O  O331  1  0.49786164  0.48265889  0.36971106  1
  O  O332  1  0.51548777  0.48770652  0.88504008  1
  O  O333  1  0.49181027  0.99351537  0.38547341  1
  O  O334  1  0.48531088  0.99663564  0.87812877  1
  O  O335  1  0.99301522  0.49435169  0.37440823  1
  O  O336  1  0.98677743  0.50668271  0.88239789  1
  O  O337  1  0.99694412  0.99463874  0.38329696  1
  O  O338  1  0.99831521  0.99276786  0.88078709  1
  O  O339  1  0.00845188  0.00559411  0.11848343  1
  O  O340  1  0.00780160  0.00250007  0.61728427  1
  O  O341  1  0.00547103  0.50594569  0.11897787  1
  O  O342  1  -0.00077993  0.51562016  0.62177685  1
  O  O343  1  0.48449633  0.00352314  0.10294623  1
  O  O344  1  0.50787596  0.00388220  0.62074038  1
  O  O345  1  0.50804269  0.51014038  0.13477308  1
  O  O346  1  0.49655197  0.51986407  0.62654428  1
  O  O347  1  0.25111885  0.39130671  0.26157473  1
  O  O348  1  0.24081894  0.37490257  0.73772647  1
  O  O349  1  0.24478248  0.87902434  0.24559181  1
  O  O350  1  0.24330980  0.87701551  0.74293669  1
  O  O351  1  0.75037800  0.37565841  0.24683479  1
  O  O352  1  0.74615250  0.38560537  0.73480505  1
  O  O353  1  0.74887270  0.87272035  0.23366192  1
  O  O354  1  0.74579546  0.88316865  0.74707453  1
  O  O355  1  0.25179960  0.11539534  0.26233664  1
  O  O356  1  0.25876690  0.11371832  0.74934059  1
  O  O357  1  0.26074363  0.61745311  0.24581412  1
  O  O358  1  0.27622043  0.67693941  0.76219314  1
  O  O359  1  0.76903794  0.12696110  0.24849461  1
  O  O360  1  0.76117480  0.11878102  0.74622465  1
  O  O361  1  0.75717917  0.61720538  0.24756903  1
  O  O362  1  0.75388603  0.61610868  0.74763329  1
  O  O363  1  0.36906784  0.11641816  0.37605897  1
  O  O364  1  0.37138513  0.11393943  0.86568996  1
  O  O365  1  0.37872269  0.61830644  0.36215579  1
  O  O366  1  0.39956065  0.61120861  0.89308183  1
  O  O367  1  0.88089060  0.11680183  0.36355406  1
  O  O368  1  0.88469261  0.12814591  0.86125292  1
  O  O369  1  0.87268246  0.61812838  0.36599899  1
  O  O370  1  0.87038697  0.61879597  0.86072665  1
  O  O371  1  0.11768389  0.38656119  0.11783685  1
  O  O372  1  0.13904713  0.37332150  0.63395453  1
  O  O373  1  0.13201626  0.87986880  0.13016069  1
  O  O374  1  0.12785527  0.88353890  0.63226513  1
  O  O375  1  0.62299038  0.37594921  0.12526973  1
  O  O376  1  0.63466538  0.37013581  0.62193425  1
  O  O377  1  0.63918290  0.87297727  0.12172154  1
  O  O378  1  0.63020839  0.89019491  0.63029887  1
  O  O379  1  0.11118295  0.24374151  0.26276821  1
  O  O380  1  0.12098952  0.25521268  0.75504739  1
  O  O381  1  0.12047724  0.76009577  0.24897902  1
  O  O382  1  0.11542048  0.75811864  0.76023589  1
  O  O383  1  0.62246739  0.25732458  0.25045384  1
  O  O384  1  0.61550233  0.24268135  0.76045876  1
  O  O385  1  0.61498626  0.75574054  0.24593585  1
  O  O386  1  0.61827772  0.76208589  0.73964096  1
  O  O387  1  0.37898990  0.24963562  0.24265989  1
  O  O388  1  0.38628263  0.24133598  0.73661092  1
  O  O389  1  0.37709695  0.73584395  0.25027408  1
  O  O390  1  0.39797689  0.77503341  0.73394286  1
  O  O391  1  0.88892895  0.23468948  0.25712612  1
  O  O392  1  0.88356266  0.25008300  0.74612006  1
  O  O393  1  0.87916373  0.74564566  0.24359608  1
  O  O394  1  0.87723894  0.74306342  0.74307008  1
  O  O395  1  0.38203132  0.48457058  0.49813620  1
  O  O396  1  0.37902340  0.49174017  1.01295254  1
  O  O397  1  0.37821378  0.99183665  0.49268171  1
  O  O398  1  0.37802429  0.99136719  0.98921233  1
  O  O399  1  0.87143952  0.50274256  0.48561111  1
  O  O400  1  0.87701101  0.49331726  0.99071075  1
  O  O401  1  0.88144730  0.99655104  0.49562698  1
  O  O402  1  0.88442405  0.99205175  0.99856411  1
  O  O403  1  0.12082825  0.00705833  0.00274288  1
  O  O404  1  0.11553045  -0.00697593  0.50964789  1
  O  O405  1  0.11547959  0.50565066  0.00308326  1
  O  O406  1  0.13530497  0.50864899  0.48737636  1
  O  O407  1  0.60544403  -0.00349910  -0.01228833  1
  O  O408  1  0.62264690  0.00212946  0.50928620  1
  O  O409  1  0.63589659  0.50496743  0.01642816  1
  O  O410  1  0.62319189  0.50148309  0.49608165  1
  O  O411  1  0.37750371  0.36378039  0.11471990  1
  O  O412  1  0.36673669  0.36718344  0.62161966  1
  O  O413  1  0.36721704  0.87421269  0.11613691  1
  O  O414  1  0.37106834  0.87236540  0.61150025  1
  O  O415  1  0.87321574  0.38103274  0.11198543  1
  O  O416  1  0.87252712  0.36633038  0.62602110  1
  O  O417  1  0.86845071  0.87008111  0.11987487  1
  O  O418  1  0.87771710  0.86611725  0.61986696  1
  O  O419  1  0.13232964  0.12994764  0.37393014  1
  O  O420  1  0.12412174  0.13134175  0.88332640  1
  O  O421  1  0.12560451  0.62663363  0.37415810  1
  O  O422  1  0.12049932  0.63632495  0.88458416  1
  O  O423  1  0.62230029  0.14074891  0.37397359  1
  O  O424  1  0.62197941  0.13755122  0.87829647  1
  O  O425  1  0.62885732  0.62921176  0.37409285  1
  O  O426  1  0.62340906  0.61968749  0.89325737  1
