# generated using pymatgen
data_V85Zn86O256
_symmetry_space_group_name_H-M   'P 1'
_cell_length_a   16.96900629
_cell_length_b   16.97703084
_cell_length_c   16.97298067
_cell_angle_alpha   89.98419741
_cell_angle_beta   90.05061019
_cell_angle_gamma   89.95083472
_symmetry_Int_Tables_number   1
_chemical_formula_structural   V85Zn86O256
_chemical_formula_sum   'V85 Zn86 O256'
_cell_volume   4889.62912017
_cell_formula_units_Z   1
loop_
 _symmetry_equiv_pos_site_id
 _symmetry_equiv_pos_as_xyz
  1  'x, y, z'
loop_
 _atom_site_type_symbol
 _atom_site_label
 _atom_site_symmetry_multiplicity
 _atom_site_fract_x
 _atom_site_fract_y
 _atom_site_fract_z
 _atom_site_occupancy
  V  V0  1  0.75072611  0.12465668  0.87730062  1
  V  V1  1  0.00677963  0.10732785  0.12137348  1
  V  V2  1  0.75185618  0.37928067  0.62007656  1
  V  V3  1  0.37138710  0.87589220  0.49462554  1
  V  V4  1  0.87541351  0.25628060  0.62195564  1
  V  V5  1  0.88611609  0.25136846  0.13150809  1
  V  V6  1  0.74618581  0.62680171  0.38000615  1
  V  V7  1  -0.00670340  0.36340272  0.36529875  1
  V  V8  1  0.87790008  0.12803292  0.75312103  1
  V  V9  1  0.74941607  0.50142585  0.75082435  1
  V  V10  1  0.62207880  0.35960948  0.25598623  1
  V  V11  1  0.74995109  0.00395342  0.25280787  1
  V  V12  1  0.37436187  0.24934604  0.62630069  1
  V  V13  1  0.74909150  0.37465142  0.12612182  1
  V  V14  1  0.00141559  0.75537703  0.25183832  1
  V  V15  1  0.12467643  0.75023094  0.37407905  1
  V  V16  1  0.44336277  0.06937729  0.68326769  1
  V  V17  1  0.37914951  0.12492672  0.23628871  1
  V  V18  1  0.37259212  0.61776840  0.25228075  1
  V  V19  1  0.49867301  0.62686126  0.12431301  1
  V  V20  1  0.12232653  0.24513114  0.35716943  1
  V  V21  1  0.88183727  0.00296837  0.88621653  1
  V  V22  1  0.49811717  0.51482551  0.49284961  1
  V  V23  1  0.61783406  0.00897408  0.12473207  1
  V  V24  1  0.49936823  0.75052563  0.24930622  1
  V  V25  1  0.63000914  0.87560024  0.75425469  1
  V  V26  1  0.74987283  0.25211979  -0.00163514  1
  V  V27  1  0.74535383  0.24942949  0.49726359  1
  V  V28  1  0.24365952  0.89119860  0.62753426  1
  V  V29  1  0.38303099  0.62582137  0.74296403  1
  V  V30  1  0.75195665  0.74770422  0.00269632  1
  V  V31  1  0.39277970  0.25125545  0.12181951  1
  V  V32  1  0.25080421  0.75646688  0.00927714  1
  V  V33  1  0.12869133  0.37203835  0.75628848  1
  V  V34  1  0.24371994  0.24484831  0.49393639  1
  V  V35  1  0.12464291  0.49908683  0.62477101  1
  V  V36  1  0.87050973  0.49479297  0.38426027  1
  V  V37  1  0.00144395  0.74952496  0.75368525  1
  V  V38  1  0.13885418  0.88077447  0.24732248  1
  V  V39  1  0.62330054  0.74883312  0.38085928  1
  V  V40  1  0.87841033  0.87584859  0.00255069  1
  V  V41  1  0.37612629  0.87585199  0.00244542  1
  V  V42  1  0.63223315  0.00807384  0.62726294  1
  V  V43  1  0.12922805  0.74682650  0.87669971  1
  V  V44  1  0.25647213  0.62451275  0.86934625  1
  V  V45  1  0.74822721  0.75032528  0.50370892  1
  V  V46  1  0.24172872  0.23429633  0.00140742  1
  V  V47  1  0.24773240  0.74904174  0.50301946  1
  V  V48  1  0.48969796  0.37801577  0.87192255  1
  V  V49  1  0.87500927  0.87844746  0.50706563  1
  V  V50  1  0.01745127  0.48032760  0.03085932  1
  V  V51  1  0.49720335  0.87791725  0.37349518  1
  V  V52  1  0.49900152  0.00844279  0.49455615  1
  V  V53  1  0.00406794  0.25060893  0.75664818  1
  V  V54  1  0.62358180  0.37670543  0.74840184  1
  V  V55  1  0.88391817  0.50086775  0.87769435  1
  V  V56  1  0.00606113  0.12414306  0.62117900  1
  V  V57  1  0.87268705  0.37463117  -0.00062276  1
  V  V58  1  0.87159076  0.62671621  0.25474725  1
  V  V59  1  -0.00375974  0.48600958  0.50416256  1
  V  V60  1  0.35866728  0.00942645  0.36606117  1
  V  V61  1  -0.00193687  0.62669502  0.62472710  1
  V  V62  1  0.87415249  0.75145528  0.12733401  1
  V  V63  1  0.36626996  0.37411255  0.00075616  1
  V  V64  1  0.25265330  0.61105964  0.37583563  1
  V  V65  1  0.14580224  0.60560241  0.02151249  1
  V  V66  1  0.49613076  0.00981005  -0.00215582  1
  V  V67  1  0.62207555  0.87750479  0.24850559  1
  V  V68  1  0.50365064  0.35791716  0.37985358  1
  V  V69  1  -0.00329109  0.88243532  0.37441669  1
  V  V70  1  0.12267914  0.62323220  0.50098452  1
  V  V71  1  0.00579175  0.87765975  0.88508520  1
  V  V72  1  0.49736986  0.24859809  0.74350685  1
  V  V73  1  0.25775638  0.49744130  0.75202726  1
  V  V74  1  0.24973500  0.37421325  0.61612844  1
  V  V75  1  0.75253418  0.62517728  0.87904869  1
  V  V76  1  0.14254778  -0.00461993  0.11599605  1
  V  V77  1  0.74818186  0.87655987  0.12531973  1
  V  V78  1  0.49617922  0.50044516  -0.00539249  1
  V  V79  1  0.00306980  0.62587060  0.12871017  1
  V  V80  1  0.61833178  0.51437363  0.62045192  1
  V  V81  1  0.62459757  0.62454205  0.00154570  1
  V  V82  1  0.62335144  0.25120764  0.87286088  1
  V  V83  1  0.24498104  0.12032581  0.85854936  1
  V  V84  1  0.74678361  0.50005040  0.25360183  1
  Zn  Zn85  1  0.00296521  -0.00094513  0.50345064  1
  Zn  Zn86  1  0.62514485  0.49987748  0.12810887  1
  Zn  Zn87  1  0.74456377  0.13411148  0.37087103  1
  Zn  Zn88  1  0.13961240  0.88543614  0.75521579  1
  Zn  Zn89  1  0.87642796  0.62538911  0.75314126  1
  Zn  Zn90  1  0.62347148  0.75143194  0.87591538  1
  Zn  Zn91  1  0.87478192  0.75311624  0.62979855  1
  Zn  Zn92  1  0.36963020  0.00078434  0.86210561  1
  Zn  Zn93  1  0.37914696  0.74301544  0.61847505  1
  Zn  Zn94  1  0.00565190  0.37369802  0.87356903  1
  Zn  Zn95  1  0.61837752  0.13248570  0.49817755  1
  Zn  Zn96  1  0.49961754  0.87235783  0.87636505  1
  Zn  Zn97  1  0.33600323  0.45015016  0.32469886  1
  Zn  Zn98  1  0.61794376  0.13221417  0.00342565  1
  Zn  Zn99  1  0.37875020  0.37665836  0.49764260  1
  Zn  Zn100  1  0.87201164  0.00677369  0.37610987  1
  Zn  Zn101  1  0.75901937  -0.00249846  0.75049922  1
  Zn  Zn102  1  0.75211764  0.87733496  0.62697926  1
  Zn  Zn103  1  0.36931143  0.75501422  0.13053920  1
  Zn  Zn104  1  0.87884877  0.12993900  0.25344721  1
  Zn  Zn105  1  0.12663317  0.12003046  0.49159241  1
  Zn  Zn106  1  0.50753584  0.74454493  0.74802829  1
  Zn  Zn107  1  0.19528319  0.17981012  0.17927423  1
  Zn  Zn108  1  0.18569432  0.18806508  0.68640232  1
  Zn  Zn109  1  0.18867361  0.56124325  0.19114506  1
  Zn  Zn110  1  0.18713953  0.69053665  0.68805885  1
  Zn  Zn111  1  0.69054347  0.18663216  0.18433630  1
  Zn  Zn112  1  0.68891533  0.18709058  0.68687660  1
  Zn  Zn113  1  0.68438265  0.68818802  0.18943491  1
  Zn  Zn114  1  0.69162756  0.69003162  0.69032646  1
  Zn  Zn115  1  0.29183761  0.28002535  0.28544459  1
  Zn  Zn116  1  0.30984444  0.30325498  0.81328211  1
  Zn  Zn117  1  0.31228757  0.80443139  0.31554305  1
  Zn  Zn118  1  0.31680879  0.81353807  0.81222287  1
  Zn  Zn119  1  0.81392063  0.31753711  0.31465121  1
  Zn  Zn120  1  0.81312860  0.31419799  0.80995296  1
  Zn  Zn121  1  0.81106271  0.81811097  0.31516814  1
  Zn  Zn122  1  0.81631492  0.81303216  0.81376381  1
  Zn  Zn123  1  0.17726851  0.42669736  0.32367136  1
  Zn  Zn124  1  0.19232721  0.43799008  0.93549745  1
  Zn  Zn125  1  0.18095208  0.93961646  0.43853792  1
  Zn  Zn126  1  0.19252376  0.94169579  0.93512306  1
  Zn  Zn127  1  0.68071423  0.43596618  0.44158191  1
  Zn  Zn128  1  0.68346358  0.43984501  0.93577037  1
  Zn  Zn129  1  0.68437352  0.93909408  0.43861636  1
  Zn  Zn130  1  0.68896732  0.94023456  0.93994493  1
  Zn  Zn131  1  0.31480972  0.06500609  0.05960471  1
  Zn  Zn132  1  0.30714571  0.06069412  0.55385425  1
  Zn  Zn133  1  0.32101829  0.56767725  0.05595984  1
  Zn  Zn134  1  0.31506287  0.55946292  0.56123670  1
  Zn  Zn135  1  0.81166830  0.06620993  0.06537475  1
  Zn  Zn136  1  0.81844469  0.06531434  0.56350705  1
  Zn  Zn137  1  0.81931209  0.55899534  0.06628075  1
  Zn  Zn138  1  0.81111152  0.56706249  0.56354431  1
  Zn  Zn139  1  0.44515603  0.43237971  0.18293596  1
  Zn  Zn140  1  0.43709592  0.43841956  0.68231002  1
  Zn  Zn141  1  0.43238100  0.94063129  0.18370142  1
  Zn  Zn142  1  0.45127572  0.89605978  0.67198843  1
  Zn  Zn143  1  1.04203841  0.43907396  0.19670893  1
  Zn  Zn144  1  0.93655638  0.43803397  0.69184439  1
  Zn  Zn145  1  0.93650858  0.94063919  0.18866878  1
  Zn  Zn146  1  0.97546478  0.95877371  0.71537392  1
  Zn  Zn147  1  0.06062133  0.06411660  0.30306016  1
  Zn  Zn148  1  0.07391224  0.06164481  0.82055184  1
  Zn  Zn149  1  0.05194419  0.56850435  0.32468117  1
  Zn  Zn150  1  0.06960995  0.56265916  0.81392308  1
  Zn  Zn151  1  0.56153632  0.07199697  0.31594257  1
  Zn  Zn152  1  0.56929898  0.05663697  0.81938751  1
  Zn  Zn153  1  0.56208709  0.56360494  0.31430631  1
  Zn  Zn154  1  0.56441099  0.56212254  0.81418869  1
  Zn  Zn155  1  0.43163674  0.18691253  0.43766476  1
  Zn  Zn156  1  0.42741126  0.18611464  0.92853779  1
  Zn  Zn157  1  0.43456668  0.68776318  0.43461029  1
  Zn  Zn158  1  0.43592750  0.69051515  0.93128602  1
  Zn  Zn159  1  0.92760589  0.18888361  0.43902885  1
  Zn  Zn160  1  0.94341816  0.18760120  0.94266286  1
  Zn  Zn161  1  0.93417623  0.69032511  0.44017116  1
  Zn  Zn162  1  0.94607312  0.68118550  0.94608699  1
  Zn  Zn163  1  0.06423452  0.30945294  0.05942518  1
  Zn  Zn164  1  0.06560145  0.30851966  0.56371947  1
  Zn  Zn165  1  0.06998169  0.81033180  0.06572541  1
  Zn  Zn166  1  0.06254721  0.81466229  0.56322070  1
  Zn  Zn167  1  0.56480709  0.31813516  0.06034752  1
  Zn  Zn168  1  0.56453212  0.31775186  0.56501541  1
  Zn  Zn169  1  0.56119326  0.81488040  0.06007466  1
  Zn  Zn170  1  0.56499167  0.81791470  0.56415799  1
  O  O171  1  0.11779938  0.10521532  0.13318022  1
  O  O172  1  0.10795214  0.13167420  0.62288857  1
  O  O173  1  0.10967285  0.63212865  0.12925094  1
  O  O174  1  0.11457966  0.62096985  0.62301353  1
  O  O175  1  0.62809500  0.11279262  0.12143526  1
  O  O176  1  0.62747390  0.11248326  0.62283800  1
  O  O177  1  0.61717812  0.62363688  0.11926592  1
  O  O178  1  0.62798470  0.61225585  0.63157817  1
  O  O179  1  0.39772176  0.37178711  0.37932386  1
  O  O180  1  0.38581853  0.36893505  0.87960827  1
  O  O181  1  0.37604571  0.88135233  0.38002967  1
  O  O182  1  0.37490676  0.88229965  0.88421491  1
  O  O183  1  0.88193838  0.38224223  0.38221594  1
  O  O184  1  0.87024908  0.38448766  0.88482702  1
  O  O185  1  0.88317503  0.87523289  0.38493433  1
  O  O186  1  0.88163651  0.88240182  0.88478282  1
  O  O187  1  0.26184569  -0.00554375  0.37414843  1
  O  O188  1  0.25028301  0.01143931  0.86861038  1
  O  O189  1  0.24945690  0.50889064  0.38524087  1
  O  O190  1  0.24884389  0.51031134  0.86276306  1
  O  O191  1  0.74865885  -0.00825233  0.35931929  1
  O  O192  1  0.75870976  0.01121831  0.87626943  1
  O  O193  1  0.75142656  0.50481368  0.37713370  1
  O  O194  1  0.75872931  0.50950668  0.87518228  1
  O  O195  1  0.21504366  0.53858578  0.08329489  1
  O  O196  1  0.24557845  0.49131885  0.62885758  1
  O  O197  1  0.24145658  1.00199578  0.12459572  1
  O  O198  1  0.24671607  0.98967019  0.62020691  1
  O  O199  1  0.75237478  0.49313144  0.13689245  1
  O  O200  1  0.74200973  0.49681937  0.62737112  1
  O  O201  1  0.74212095  0.99557459  0.13212530  1
  O  O202  1  0.74593484  0.99960838  0.62771245  1
  O  O203  1  -0.01479180  0.37242019  0.26698485  1
  O  O204  1  0.01010971  0.36913913  0.74968825  1
  O  O205  1  -0.00096765  0.86951836  0.25734311  1
  O  O206  1  -0.00874178  0.85629962  0.77080579  1
  O  O207  1  0.51520568  0.37960047  0.26262790  1
  O  O208  1  0.50223760  0.36936009  0.75468855  1
  O  O209  1  0.50097803  0.87017799  0.25337721  1
  O  O210  1  0.52079808  0.88193809  0.76006746  1
  O  O211  1  0.47786674  0.12671974  0.26151140  1
  O  O212  1  0.50168215  0.12718742  0.74739243  1
  O  O213  1  0.49774283  0.63174192  0.24246588  1
  O  O214  1  0.48578551  0.62134612  0.75341398  1
  O  O215  1  0.99353479  0.12271594  0.22859084  1
  O  O216  1  0.99552987  0.13526875  0.74160626  1
  O  O217  1  0.99063670  0.63591880  0.24986519  1
  O  O218  1  1.00301457  0.63391103  0.74523042  1
  O  O219  1  0.37291237  0.25674752  0.00526275  1
  O  O220  1  0.36881636  0.25196755  0.51077051  1
  O  O221  1  0.36473433  0.75656050  -0.00185708  1
  O  O222  1  0.36624510  0.75871660  0.49653605  1
  O  O223  1  0.86908603  0.25809435  0.00391696  1
  O  O224  1  0.86368447  0.25352721  0.51611061  1
  O  O225  1  0.87164529  0.75116279  0.00909791  1
  O  O226  1  0.86596436  0.75889537  0.50228773  1
  O  O227  1  0.13118009  0.24610811  0.49419006  1
  O  O228  1  0.14419794  0.25626745  1.00362229  1
  O  O229  1  0.12959288  0.74371459  0.49500979  1
  O  O230  1  0.13711511  0.73786195  0.99765009  1
  O  O231  1  0.64125751  0.24943861  0.51349292  1
  O  O232  1  0.63149305  0.25191912  0.99139555  1
  O  O233  1  0.63279572  0.75990935  0.49153202  1
  O  O234  1  0.63474714  0.74282396  1.00019114  1
  O  O235  1  0.49151505  0.24625168  0.11117547  1
  O  O236  1  0.49413176  0.25521664  0.63510554  1
  O  O237  1  0.50005756  0.73906135  0.12764230  1
  O  O238  1  0.48730812  0.78091501  0.63726688  1
  O  O239  1  0.98654408  0.25697376  0.12678766  1
  O  O240  1  0.99149576  0.24743636  0.63309122  1
  O  O241  1  0.99405024  0.74534881  0.13339121  1
  O  O242  1  1.00132779  0.74386614  0.63584909  1
  O  O243  1  0.00007192  0.25904336  0.37905446  1
  O  O244  1  -0.00726842  0.25264973  0.86051631  1
  O  O245  1  0.00311835  0.75827102  0.36938380  1
  O  O246  1  0.01343529  0.74749951  0.87471228  1
  O  O247  1  0.50584755  0.25933234  0.38523889  1
  O  O248  1  0.50159313  0.25480733  0.86212528  1
  O  O249  1  0.50573997  0.75703294  0.37162967  1
  O  O250  1  0.50515947  0.75277982  0.86811756  1
  O  O251  1  0.24795427  0.14072021  0.50125286  1
  O  O252  1  0.24751157  0.13153545  0.99575634  1
  O  O253  1  0.24554346  0.62930543  0.49530191  1
  O  O254  1  0.25456589  0.63990480  0.98482248  1
  O  O255  1  0.75210073  0.14295105  0.50497616  1
  O  O256  1  0.74880505  0.13325079  0.99029802  1
  O  O257  1  0.75355067  0.64127631  0.49483285  1
  O  O258  1  0.74764676  0.62554087  0.99741256  1
  O  O259  1  0.26418226  0.37151839  -0.00682491  1
  O  O260  1  0.25219449  0.36498893  0.51280742  1
  O  O261  1  0.25587985  0.86170982  -0.00590860  1
  O  O262  1  0.25244359  0.86736220  0.50261120  1
  O  O263  1  0.75371904  0.37346050  0.00313125  1
  O  O264  1  0.74438897  0.36908807  0.51394077  1
  O  O265  1  0.75728961  0.86837520  0.00687460  1
  O  O266  1  0.75735552  0.86704270  0.49942280  1
  O  O267  1  0.11671461  0.50192265  0.25788198  1
  O  O268  1  0.13642818  0.49453215  0.74305991  1
  O  O269  1  0.12373828  0.98479883  0.24371458  1
  O  O270  1  0.08488787  0.98233455  0.74603182  1
  O  O271  1  0.63723253  0.49983099  0.25141979  1
  O  O272  1  0.62959847  0.49701770  0.74138207  1
  O  O273  1  0.62644797  0.99587342  0.24147515  1
  O  O274  1  0.63374042  0.99645933  0.74444971  1
  O  O275  1  0.37356404  0.00985948  0.25666766  1
  O  O276  1  0.39453033  0.00133436  0.73733386  1
  O  O277  1  0.39161836  0.51382269  0.24729706  1
  O  O278  1  0.36496369  0.50850496  0.74281005  1
  O  O279  1  0.86208138  0.00074023  0.25038279  1
  O  O280  1  0.87967142  0.00883011  0.76786001  1
  O  O281  1  0.85796914  0.50630080  0.26958302  1
  O  O282  1  0.86697067  0.50304108  0.76036235  1
  O  O283  1  0.10223010  0.36099188  0.37733859  1
  O  O284  1  0.12668668  0.37860147  0.86011009  1
  O  O285  1  0.11701674  0.86971873  0.36442951  1
  O  O286  1  0.12030284  0.86568761  0.87719094  1
  O  O287  1  0.61883119  0.37590289  0.36410394  1
  O  O288  1  0.61546168  0.37007103  0.86782336  1
  O  O289  1  0.61756360  0.86792734  0.36830882  1
  O  O290  1  0.63111341  0.87324277  0.86823516  1
  O  O291  1  0.38030917  0.13085446  0.12963443  1
  O  O292  1  0.37747917  0.12557122  0.62592524  1
  O  O293  1  0.38319801  0.62975600  0.13178468  1
  O  O294  1  0.37203815  0.62549222  0.63811983  1
  O  O295  1  0.88138773  0.13884765  0.12316416  1
  O  O296  1  0.87922172  0.13816069  0.63454945  1
  O  O297  1  0.87872315  0.63533219  0.13385961  1
  O  O298  1  0.88824634  0.62666051  0.62839102  1
  O  O299  1  0.26502631  0.24301403  0.10809338  1
  O  O300  1  0.25636154  0.25553456  0.62019274  1
  O  O301  1  0.25021177  0.74536301  0.10672733  1
  O  O302  1  0.25181923  0.74847858  0.61028419  1
  O  O303  1  0.75394436  0.25581039  0.11393044  1
  O  O304  1  0.75658894  0.26059994  0.62386238  1
  O  O305  1  0.75504106  0.75506820  0.12278712  1
  O  O306  1  0.75331643  0.75378651  0.61718491  1
  O  O307  1  0.22920718  0.25794976  0.38166949  1
  O  O308  1  0.25971412  0.23689938  0.88977034  1
  O  O309  1  0.24293375  0.74134779  0.38604962  1
  O  O310  1  0.24130264  0.74600149  0.87539661  1
  O  O311  1  0.75429886  0.25839870  0.39512839  1
  O  O312  1  0.74645376  0.24601269  0.87982445  1
  O  O313  1  0.74134536  0.74885359  0.38113799  1
  O  O314  1  0.75563896  0.73614612  0.88304080  1
  O  O315  1  0.00382878  0.13829516  0.02428540  1
  O  O316  1  -0.00540570  0.13302288  0.51545941  1
  O  O317  1  0.01342939  0.61292674  0.01578125  1
  O  O318  1  0.00281692  0.62207863  0.50851405  1
  O  O319  1  0.49909522  0.11280054  -0.00703202  1
  O  O320  1  0.49733614  0.11199296  0.49891754  1
  O  O321  1  0.50069565  0.61952534  0.00404106  1
  O  O322  1  0.49773499  0.61456126  0.49666170  1
  O  O323  1  0.50731071  0.38151021  0.48812509  1
  O  O324  1  0.49554187  0.38279883  0.99018801  1
  O  O325  1  0.48823413  0.88575268  0.49490786  1
  O  O326  1  0.49249526  0.88239877  0.99634822  1
  O  O327  1  0.99997710  0.38439535  0.50066742  1
  O  O328  1  0.98868652  0.37601648  0.98990657  1
  O  O329  1  0.99314692  0.87392637  0.49160786  1
  O  O330  1  0.99548895  0.86055575  0.99088341  1
  O  O331  1  0.50870231  0.49691013  0.39057045  1
  O  O332  1  0.50410292  0.49016925  0.88226271  1
  O  O333  1  0.49159259  0.99326787  0.38037937  1
  O  O334  1  0.49925738  0.99687756  0.88864000  1
  O  O335  1  0.98909985  0.49052609  0.38563425  1
  O  O336  1  0.98811334  0.49812546  0.86709888  1
  O  O337  1  0.99630391  0.98877605  0.36927514  1
  O  O338  1  0.99391928  0.98916509  0.88431631  1
  O  O339  1  0.00152719  0.00460885  0.11874951  1
  O  O340  1  -0.01575730  0.02264861  0.62032191  1
  O  O341  1  -0.02031511  0.51673279  0.13044397  1
  O  O342  1  0.00142414  0.50683808  0.62179932  1
  O  O343  1  0.50725254  -0.00435874  0.11144787  1
  O  O344  1  0.50148326  0.00340623  0.62168640  1
  O  O345  1  0.50341484  0.51205411  0.11704143  1
  O  O346  1  0.51322492  0.49616788  0.61597050  1
  O  O347  1  0.26310704  0.38680010  0.26428936  1
  O  O348  1  0.24748151  0.37943942  0.74385950  1
  O  O349  1  0.23603478  0.86562976  0.25360086  1
  O  O350  1  0.25462790  0.87200874  0.73177355  1
  O  O351  1  0.73964115  0.38224120  0.24977516  1
  O  O352  1  0.74359526  0.38308124  0.74368123  1
  O  O353  1  0.74224371  0.88023404  0.24229981  1
  O  O354  1  0.74543086  0.87725113  0.74970664  1
  O  O355  1  0.27664594  0.14854651  0.25587494  1
  O  O356  1  0.25051708  0.13183344  0.75871649  1
  O  O357  1  0.26043126  0.61899667  0.26023703  1
  O  O358  1  0.25598999  0.61703439  0.75148876  1
  O  O359  1  0.75256683  0.11612375  0.24905498  1
  O  O360  1  0.75930262  0.12833165  0.76365303  1
  O  O361  1  0.75291657  0.62052587  0.25786989  1
  O  O362  1  0.75305672  0.61951496  0.76213152  1
  O  O363  1  0.37177616  0.11093620  0.37488710  1
  O  O364  1  0.35873287  0.11555061  0.87574295  1
  O  O365  1  0.36409745  0.62760073  0.36622453  1
  O  O366  1  0.36365893  0.62799057  0.86126026  1
  O  O367  1  0.86425974  0.12493657  0.37068886  1
  O  O368  1  0.87249406  0.12038065  0.87639714  1
  O  O369  1  0.86780895  0.62033371  0.37182398  1
  O  O370  1  0.87154003  0.61563860  0.88163215  1
  O  O371  1  0.08420783  0.41614569  0.09501657  1
  O  O372  1  0.13269146  0.38026394  0.63268645  1
  O  O373  1  0.12200943  0.88278680  0.13850333  1
  O  O374  1  0.14212729  0.86824151  0.62460745  1
  O  O375  1  0.62928684  0.37850693  0.13814385  1
  O  O376  1  0.63278834  0.38606933  0.63292633  1
  O  O377  1  0.62918826  0.88390188  0.12905155  1
  O  O378  1  0.62873835  0.88922005  0.63506897  1
  O  O379  1  0.13099938  0.24876670  0.25787910  1
  O  O380  1  0.11536504  0.26096454  0.74240350  1
  O  O381  1  0.10891252  0.76291857  0.25401833  1
  O  O382  1  0.11949375  0.75399815  0.76028671  1
  O  O383  1  0.63035330  0.26177732  0.24812515  1
  O  O384  1  0.61724228  0.25546122  0.75223686  1
  O  O385  1  0.61826116  0.75834850  0.25655039  1
  O  O386  1  0.62768521  0.76023242  0.75253052  1
  O  O387  1  0.38603272  0.24594577  0.22821357  1
  O  O388  1  0.38133626  0.25171799  0.73571642  1
  O  O389  1  0.38170981  0.73922565  0.24934585  1
  O  O390  1  0.37359025  0.73465237  0.74652813  1
  O  O391  1  0.86296468  0.25250775  0.23250736  1
  O  O392  1  0.88140928  0.24813573  0.74277244  1
  O  O393  1  0.88188520  0.74963192  0.24728383  1
  O  O394  1  0.88488634  0.74364020  0.75088510  1
  O  O395  1  0.39405826  0.49500384  0.50781914  1
  O  O396  1  0.38819365  0.49085993  1.00389039  1
  O  O397  1  0.37801690  0.99464467  0.48779326  1
  O  O398  1  0.38563075  0.99383675  1.00201177  1
  O  O399  1  0.88094421  0.50838920  0.49162089  1
  O  O400  1  0.88936850  0.49149990  0.99813544  1
  O  O401  1  0.87802070  0.99244045  0.49495868  1
  O  O402  1  0.86924114  0.99486776  0.99292999  1
  O  O403  1  0.12755311  -0.01372595  0.01789873  1
  O  O404  1  0.11539069  0.00773826  0.49378836  1
  O  O405  1  0.10994003  0.50979930  -0.02466594  1
  O  O406  1  0.10946735  0.50919711  0.51009809  1
  O  O407  1  0.61405932  0.00193789  0.00680082  1
  O  O408  1  0.61340995  -0.00447405  0.51083435  1
  O  O409  1  0.61390675  0.50557114  0.00302501  1
  O  O410  1  0.61634919  0.50195108  0.51296258  1
  O  O411  1  0.38464690  0.36257341  0.11410385  1
  O  O412  1  0.36720991  0.36598359  0.62318985  1
  O  O413  1  0.37748668  0.87094964  0.11007756  1
  O  O414  1  0.35848184  0.87619672  0.60599188  1
  O  O415  1  0.86635939  0.36467264  0.11060306  1
  O  O416  1  0.86331172  0.37052628  0.63372570  1
  O  O417  1  0.87063531  0.86842489  0.12109285  1
  O  O418  1  0.87729869  0.87422364  0.61154393  1
  O  O419  1  0.10973743  0.14216817  0.37266030  1
  O  O420  1  0.14239089  0.12793548  0.87510877  1
  O  O421  1  0.13075175  0.63180785  0.38169821  1
  O  O422  1  0.13848709  0.63154733  0.87873042  1
  O  O423  1  0.63380847  0.11613162  0.38642381  1
  O  O424  1  0.63520912  0.13283979  0.87721965  1
  O  O425  1  0.62966781  0.64191598  0.37014142  1
  O  O426  1  0.63607562  0.62465345  0.88317210  1
