# generated using pymatgen
data_V85Zn86O256
_symmetry_space_group_name_H-M   'P 1'
_cell_length_a   16.94186496
_cell_length_b   16.94704683
_cell_length_c   16.94212839
_cell_angle_alpha   90.01318322
_cell_angle_beta   89.94531489
_cell_angle_gamma   90.03199954
_symmetry_Int_Tables_number   1
_chemical_formula_structural   V85Zn86O256
_chemical_formula_sum   'V85 Zn86 O256'
_cell_volume   4864.32895322
_cell_formula_units_Z   1
loop_
 _symmetry_equiv_pos_site_id
 _symmetry_equiv_pos_as_xyz
  1  'x, y, z'
loop_
 _atom_site_type_symbol
 _atom_site_label
 _atom_site_symmetry_multiplicity
 _atom_site_fract_x
 _atom_site_fract_y
 _atom_site_fract_z
 _atom_site_occupancy
  V  V0  1  0.62075899  0.87282363  0.74615643  1
  V  V1  1  0.50093448  0.62476536  0.12573024  1
  V  V2  1  0.75280645  0.87604267  0.61673618  1
  V  V3  1  0.62485983  0.00327123  0.62110378  1
  V  V4  1  0.36731020  0.74908935  0.12192804  1
  V  V5  1  0.88096360  0.76088512  0.13741443  1
  V  V6  1  0.75107970  0.75294584  0.00236235  1
  V  V7  1  0.49864228  0.49736779  -0.00390456  1
  V  V8  1  0.13337850  0.87769494  0.73034457  1
  V  V9  1  0.87333099  0.12634673  0.74633769  1
  V  V10  1  0.12711588  0.25153964  0.37637539  1
  V  V11  1  0.35992120  0.24783270  0.12626130  1
  V  V12  1  0.87823570  0.87672966  0.49767315  1
  V  V13  1  0.24556743  0.49635340  0.23820331  1
  V  V14  1  0.50131087  0.63080605  0.62776997  1
  V  V15  1  0.37973517  0.62447297  0.75634790  1
  V  V16  1  0.37983172  0.00419714  0.36411531  1
  V  V17  1  0.25211371  0.75210289  0.50546315  1
  V  V18  1  0.25726749  0.49717104  0.75138478  1
  V  V19  1  0.62346303  0.37401025  0.24982393  1
  V  V20  1  0.00862417  0.12043417  0.62654924  1
  V  V21  1  0.00334806  0.87206961  0.87009455  1
  V  V22  1  0.37664104  0.75244961  0.63171844  1
  V  V23  1  0.49601388  0.37402531  0.87684291  1
  V  V24  1  0.49719705  0.87457133  0.87246096  1
  V  V25  1  0.62649798  0.88034140  0.24696558  1
  V  V26  1  0.13221507  0.37407791  0.74799359  1
  V  V27  1  0.12562765  0.37766906  0.23794385  1
  V  V28  1  0.62622767  0.62649364  0.00128926  1
  V  V29  1  0.62893215  0.12097437  0.49892820  1
  V  V30  1  0.49755643  0.23962626  0.74212247  1
  V  V31  1  -0.00110963  0.00444626  -0.00427047  1
  V  V32  1  0.25464031  0.12544837  0.37103453  1
  V  V33  1  0.00819254  -0.00399314  0.50135896  1
  V  V34  1  0.00081540  0.25004251  0.75528451  1
  V  V35  1  0.74468768  0.88504745  0.12034442  1
  V  V36  1  0.75813702  0.25599478  0.50195767  1
  V  V37  1  0.74765507  0.00010343  0.74783079  1
  V  V38  1  0.14294027  0.24617389  0.87934497  1
  V  V39  1  0.36042594  0.37591929  0.00447009  1
  V  V40  1  0.36372097  0.87180667  -0.00140821  1
  V  V41  1  0.87371830  0.62240772  0.25221646  1
  V  V42  1  0.88088355  0.63108750  0.75351838  1
  V  V43  1  -0.00519811  0.24607412  0.25129704  1
  V  V44  1  0.12493420  0.76666340  0.37118997  1
  V  V45  1  0.37851333  0.87500219  0.50456494  1
  V  V46  1  0.50234284  0.87850355  0.37928375  1
  V  V47  1  0.74928815  0.24882200  -0.00268239  1
  V  V48  1  0.50234335  0.50440799  0.49779370  1
  V  V49  1  0.45164669  0.05480263  0.55323516  1
  V  V50  1  -0.00117492  0.37580730  0.38517013  1
  V  V51  1  0.62625656  0.50034109  0.12576630  1
  V  V52  1  0.75075471  0.50139446  0.75651576  1
  V  V53  1  0.88080408  0.49937348  0.88005260  1
  V  V54  1  0.49934493  -0.00444021  0.00444521  1
  V  V55  1  0.74867734  0.50219756  0.25509171  1
  V  V56  1  0.50168687  0.75007733  0.25235936  1
  V  V57  1  0.75171429  0.00750937  0.24931677  1
  V  V58  1  0.12326384  -0.00896446  0.13096315  1
  V  V59  1  0.25284454  0.00927788  0.74438879  1
  V  V60  1  0.24542213  0.62335098  0.37664650  1
  V  V61  1  0.87419170  0.49812390  0.38101943  1
  V  V62  1  0.13358434  0.62469088  0.00666730  1
  V  V63  1  0.49536965  0.24643423  0.24701468  1
  V  V64  1  0.87324448  0.87539900  -0.00651057  1
  V  V65  1  0.87298390  0.24022501  0.12960422  1
  V  V66  1  0.37318845  0.49869737  0.37387286  1
  V  V67  1  0.00065977  0.61829486  0.12378771  1
  V  V68  1  0.14309841  0.12465384  -0.00233571  1
  V  V69  1  0.75216080  0.37418157  0.12382503  1
  V  V70  1  0.88352645  0.00532643  0.36933839  1
  V  V71  1  0.37560274  0.62383994  0.25059328  1
  V  V72  1  0.62424975  0.50257396  0.62541506  1
  V  V73  1  0.62389049  0.11984816  0.00435208  1
  V  V74  1  0.62339927  0.37593199  0.75094824  1
  V  V75  1  0.64587243  0.74925704  0.37894630  1
  V  V76  1  0.11794970  0.62408972  0.50479698  1
  V  V77  1  0.81929186  0.69912159  0.56707560  1
  V  V78  1  0.12397966  0.50201840  0.62889048  1
  V  V79  1  0.49705535  0.12037582  0.12814277  1
  V  V80  1  0.25192977  0.63164457  0.87527199  1
  V  V81  1  0.00079474  0.74768474  0.73605422  1
  V  V82  1  0.62267452  0.75106689  0.87202676  1
  V  V83  1  0.36743190  0.37794436  0.51057939  1
  V  V84  1  0.62423436  0.24966380  0.37562314  1
  Zn  Zn85  1  0.75363787  0.37318920  0.62686256  1
  Zn  Zn86  1  0.12660236  0.74987390  0.87529722  1
  Zn  Zn87  1  0.01432530  0.75467371  0.24799642  1
  Zn  Zn88  1  0.64055767  0.62908909  0.49674187  1
  Zn  Zn89  1  0.88368983  0.26451299  0.62108925  1
  Zn  Zn90  1  0.12234535  0.12535848  0.49796757  1
  Zn  Zn91  1  0.24639835  -0.00611126  0.25295058  1
  Zn  Zn92  1  -0.00153719  0.49739650  0.50938119  1
  Zn  Zn93  1  0.87363982  0.00065548  0.87039613  1
  Zn  Zn94  1  0.49730635  0.37524425  0.37484015  1
  Zn  Zn95  1  0.75624841  0.12890148  0.37015744  1
  Zn  Zn96  1  -0.00142686  0.12319055  0.12658558  1
  Zn  Zn97  1  0.87965509  0.37232597  -0.00058030  1
  Zn  Zn98  1  0.62425777  0.24817191  0.87466983  1
  Zn  Zn99  1  0.00464038  0.37402480  0.87920350  1
  Zn  Zn100  1  0.00966418  0.49401915  0.00568375  1
  Zn  Zn101  1  0.37566440  0.24664390  0.62878652  1
  Zn  Zn102  1  0.34710963  0.03036705  0.88245173  1
  Zn  Zn103  1  0.24165614  0.86628328  0.13094483  1
  Zn  Zn104  1  0.75250022  0.62796165  0.87862655  1
  Zn  Zn105  1  0.74467057  0.12326381  0.87226234  1
  Zn  Zn106  1  0.24686219  0.25369446  0.50469633  1
  Zn  Zn107  1  0.18112266  0.18029140  0.19180134  1
  Zn  Zn108  1  0.18708394  0.19002978  0.69305000  1
  Zn  Zn109  1  0.18740833  0.68387051  0.18940956  1
  Zn  Zn110  1  0.18853433  0.68848308  0.68845022  1
  Zn  Zn111  1  0.68320414  0.18609482  0.18450711  1
  Zn  Zn112  1  0.68318888  0.18756032  0.68493794  1
  Zn  Zn113  1  0.69236974  0.69286191  0.19001591  1
  Zn  Zn114  1  0.68428097  0.68394446  0.69374168  1
  Zn  Zn115  1  0.31071820  0.31452686  0.31077656  1
  Zn  Zn116  1  0.31811692  0.31242698  0.81367878  1
  Zn  Zn117  1  0.31114532  0.81476650  0.31221926  1
  Zn  Zn118  1  0.31095726  0.81549173  0.81132052  1
  Zn  Zn119  1  0.81286589  0.31524231  0.31379952  1
  Zn  Zn120  1  0.81319253  0.31236741  0.81400446  1
  Zn  Zn121  1  0.83147202  0.82411870  0.30307141  1
  Zn  Zn122  1  0.81056550  0.81250341  0.80929865  1
  Zn  Zn123  1  0.18552394  0.43770145  0.43578573  1
  Zn  Zn124  1  0.18666678  0.44490939  0.92976742  1
  Zn  Zn125  1  0.19728098  0.94084724  0.44456501  1
  Zn  Zn126  1  0.18397703  0.93684327  0.93688735  1
  Zn  Zn127  1  0.68603522  0.43676551  0.43643170  1
  Zn  Zn128  1  0.68683441  0.43558619  0.93743283  1
  Zn  Zn129  1  0.69284343  0.93790086  0.43360262  1
  Zn  Zn130  1  0.68126295  0.94187778  0.93434633  1
  Zn  Zn131  1  0.31476674  0.05811092  0.07004432  1
  Zn  Zn132  1  0.27670628  0.09688162  0.58777867  1
  Zn  Zn133  1  0.31447926  0.56186489  0.05875908  1
  Zn  Zn134  1  0.30936361  0.56300647  0.56742704  1
  Zn  Zn135  1  0.81299841  0.06191447  0.05999030  1
  Zn  Zn136  1  0.81690931  0.06624784  0.56059268  1
  Zn  Zn137  1  0.81487799  0.56502273  0.06492756  1
  Zn  Zn138  1  0.82266039  0.53482386  0.57361705  1
  Zn  Zn139  1  0.43553592  0.43391928  0.18421297  1
  Zn  Zn140  1  0.43946344  0.44067161  0.68778922  1
  Zn  Zn141  1  0.43502235  0.93292184  0.18732355  1
  Zn  Zn142  1  0.43047776  0.93572774  0.69633996  1
  Zn  Zn143  1  0.93750134  0.43199674  0.18907241  1
  Zn  Zn144  1  0.94063645  0.43536716  0.69224299  1
  Zn  Zn145  1  0.93660296  0.93708663  0.18419007  1
  Zn  Zn146  1  0.93772889  0.93537423  0.68355683  1
  Zn  Zn147  1  0.06149423  0.06514368  0.31329458  1
  Zn  Zn148  1  0.06961236  0.05930277  0.81315111  1
  Zn  Zn149  1  0.06050572  0.56154650  0.31130187  1
  Zn  Zn150  1  0.06447665  0.56417221  0.81488200  1
  Zn  Zn151  1  0.56368325  0.06279212  0.31272658  1
  Zn  Zn152  1  0.51924402  0.08528938  0.83889992  1
  Zn  Zn153  1  0.56647717  0.56736184  0.31631901  1
  Zn  Zn154  1  0.56085907  0.56398175  0.81521453  1
  Zn  Zn155  1  0.43388276  0.19378627  0.43317734  1
  Zn  Zn156  1  0.43127365  0.19561582  0.94389048  1
  Zn  Zn157  1  0.43986320  0.68952801  0.43747805  1
  Zn  Zn158  1  0.43898981  0.68974887  0.93803468  1
  Zn  Zn159  1  0.93989827  0.18487503  0.43745548  1
  Zn  Zn160  1  0.93559996  0.18531272  0.93357366  1
  Zn  Zn161  1  0.94500911  0.68464613  0.42740772  1
  Zn  Zn162  1  0.94252204  0.68833413  0.93928306  1
  Zn  Zn163  1  0.06200518  0.30722532  0.05982718  1
  Zn  Zn164  1  0.06595876  0.31296394  0.56818437  1
  Zn  Zn165  1  0.06078795  0.80743900  0.05601878  1
  Zn  Zn166  1  0.05957442  0.80950217  0.55745904  1
  Zn  Zn167  1  0.56211310  0.30975442  0.06416734  1
  Zn  Zn168  1  0.56287799  0.31608848  0.56171687  1
  Zn  Zn169  1  0.55986569  0.81206114  0.06373821  1
  Zn  Zn170  1  0.56441381  0.81091170  0.55878949  1
  O  O171  1  0.12034064  0.11666273  0.11196233  1
  O  O172  1  0.11173848  0.12864611  0.62344826  1
  O  O173  1  0.11995803  0.62666884  0.11516329  1
  O  O174  1  0.13117828  0.61752095  0.61632548  1
  O  O175  1  0.61293824  0.12878027  0.11369913  1
  O  O176  1  0.62815079  0.11166799  0.61514988  1
  O  O177  1  0.62043916  0.62182207  0.12186484  1
  O  O178  1  0.61835612  0.62209700  0.62123335  1
  O  O179  1  0.37596069  0.38739953  0.38094820  1
  O  O180  1  0.38736884  0.36971031  0.89062169  1
  O  O181  1  0.38427488  0.88285558  0.38264625  1
  O  O182  1  0.38480234  0.86400298  0.88469744  1
  O  O183  1  0.88724735  0.38451946  0.36764128  1
  O  O184  1  0.87781145  0.38507146  0.87601426  1
  O  O185  1  0.86887694  0.88981769  0.38915789  1
  O  O186  1  0.88317034  0.87604026  0.87669746  1
  O  O187  1  0.26355526  0.00538718  0.37545195  1
  O  O188  1  0.24606098  -0.01122621  0.85993994  1
  O  O189  1  0.25605524  0.50684346  0.36899815  1
  O  O190  1  0.24937008  0.51444868  0.85978691  1
  O  O191  1  0.76104434  0.00356670  0.36618470  1
  O  O192  1  0.74936682  0.00127832  0.86154895  1
  O  O193  1  0.75928476  0.49227558  0.36707423  1
  O  O194  1  0.75534286  0.50172963  0.86744130  1
  O  O195  1  0.25587008  0.50536485  0.13974871  1
  O  O196  1  0.24031925  0.50552116  0.64056403  1
  O  O197  1  0.23296659  0.99987294  0.12737961  1
  O  O198  1  0.24906011  1.00109481  0.64117058  1
  O  O199  1  0.74538909  0.49237777  0.12997010  1
  O  O200  1  0.74176924  0.49745552  0.64137689  1
  O  O201  1  0.75320236  0.99188298  0.13082290  1
  O  O202  1  0.74466772  0.99407452  0.62574669  1
  O  O203  1  0.01000478  0.36752089  0.25696214  1
  O  O204  1  0.01126524  0.36522796  0.75511889  1
  O  O205  1  -0.06623726  0.83431555  0.23146679  1
  O  O206  1  0.00612953  0.86934041  0.75283091  1
  O  O207  1  0.50626197  0.36482186  0.24875045  1
  O  O208  1  0.50887931  0.37906564  0.75879580  1
  O  O209  1  0.50956488  0.87055455  0.25492277  1
  O  O210  1  0.50720158  0.87817692  0.76084704  1
  O  O211  1  0.50680079  0.13720100  0.24325294  1
  O  O212  1  0.51533457  0.14220070  0.73905751  1
  O  O213  1  0.49479412  0.62838991  0.24630046  1
  O  O214  1  0.49337232  0.62038981  0.74050479  1
  O  O215  1  1.00522020  0.14201149  0.24756903  1
  O  O216  1  0.99483647  0.12767860  0.74526474  1
  O  O217  1  0.99120671  0.62993323  0.24419100  1
  O  O218  1  0.99317567  0.63368494  0.75363451  1
  O  O219  1  0.37534388  0.26343890  0.01392992  1
  O  O220  1  0.37946120  0.27006134  0.50041022  1
  O  O221  1  0.38234020  0.75778787  0.01141264  1
  O  O222  1  0.37044018  0.75532260  0.50666531  1
  O  O223  1  0.86302462  0.24724011  0.00522002  1
  O  O224  1  0.86129638  0.24629820  0.49947774  1
  O  O225  1  0.87103076  0.75834835  0.00674574  1
  O  O226  1  0.87875131  0.75249015  0.49929524  1
  O  O227  1  0.12643575  0.25317608  0.48824419  1
  O  O228  1  0.12356179  0.23317677  0.99496659  1
  O  O229  1  0.13350968  0.74418505  0.49236028  1
  O  O230  1  0.12138400  0.73125858  0.99455827  1
  O  O231  1  0.62773560  0.24151165  0.49391077  1
  O  O232  1  0.63628355  0.24332076  1.00196796  1
  O  O233  1  0.62717381  0.74875657  0.48399808  1
  O  O234  1  0.63074669  0.74580447  0.99610106  1
  O  O235  1  0.49349350  0.24142080  0.13081594  1
  O  O236  1  0.49783304  0.26016192  0.63826691  1
  O  O237  1  0.49425558  0.74338227  0.13347428  1
  O  O238  1  0.49407363  0.73749447  0.61802327  1
  O  O239  1  0.98956810  0.24917348  0.13266046  1
  O  O240  1  1.00111716  0.24374973  0.63782781  1
  O  O241  1  0.99773237  0.73725362  0.12521558  1
  O  O242  1  0.99855325  0.75169290  0.63622960  1
  O  O243  1  0.00449621  0.25650452  0.37016209  1
  O  O244  1  0.00663562  0.24730750  0.86431944  1
  O  O245  1  0.02050764  0.75198818  0.37274704  1
  O  O246  1  -0.00018500  0.75817354  0.86511617  1
  O  O247  1  0.50620791  0.25265884  0.36529827  1
  O  O248  1  0.50441073  0.26013798  0.86332981  1
  O  O249  1  0.50252181  0.76112167  0.36857273  1
  O  O250  1  0.51455171  0.75977288  0.88323590  1
  O  O251  1  0.24009227  0.12450107  0.48226663  1
  O  O252  1  0.24159458  0.11692612  0.99874325  1
  O  O253  1  0.24602810  0.63109832  0.49278400  1
  O  O254  1  0.24295266  0.62123062  0.99241589  1
  O  O255  1  0.74335054  0.13606355  0.49645457  1
  O  O256  1  0.74090850  0.12867918  0.99839195  1
  O  O257  1  0.76262408  0.63230712  0.51576439  1
  O  O258  1  0.74377150  0.63334367  1.00126160  1
  O  O259  1  0.26286042  0.38439311  -0.00539183  1
  O  O260  1  0.26401329  0.37619443  0.49732848  1
  O  O261  1  0.26106766  0.87795882  0.00482686  1
  O  O262  1  0.26767640  0.86606275  0.49698065  1
  O  O263  1  0.75058772  0.36532258  0.00563482  1
  O  O264  1  0.74083941  0.35905527  0.50196262  1
  O  O265  1  0.75092476  0.87522253  0.00317250  1
  O  O266  1  0.75600863  0.87753983  0.50986207  1
  O  O267  1  0.13028737  0.48726914  0.25284346  1
  O  O268  1  0.13200750  0.49292139  0.74789604  1
  O  O269  1  0.11476380  1.00052963  0.23311160  1
  O  O270  1  0.12931368  0.98265352  0.75100568  1
  O  O271  1  0.62977318  0.49414073  0.24807431  1
  O  O272  1  0.63245431  0.49666062  0.74950201  1
  O  O273  1  0.63433134  0.98736206  0.25805202  1
  O  O274  1  0.63743217  0.99272564  0.73677446  1
  O  O275  1  0.37939473  0.00082229  0.26193354  1
  O  O276  1  0.35748932  -0.00547592  0.75774444  1
  O  O277  1  0.37061070  0.50264118  0.25712012  1
  O  O278  1  0.36929360  0.51106736  0.74506515  1
  O  O279  1  0.87036543  -0.00352256  0.26210921  1
  O  O280  1  0.86298257  0.00547189  0.74494065  1
  O  O281  1  0.86744300  0.50469982  0.25527686  1
  O  O282  1  0.86983824  0.51011995  0.75875229  1
  O  O283  1  0.11817901  0.36923806  0.36773043  1
  O  O284  1  0.12651730  0.36568220  0.86745565  1
  O  O285  1  0.13430074  0.86407546  0.38031111  1
  O  O286  1  0.11184967  0.86985506  0.87332098  1
  O  O287  1  0.62077243  0.36377457  0.37097264  1
  O  O288  1  0.61426630  0.37429260  0.86950008  1
  O  O289  1  0.62053786  0.86780986  0.37040775  1
  O  O290  1  0.61910511  0.86821838  0.86888062  1
  O  O291  1  0.38185948  0.13900725  0.12020991  1
  O  O292  1  0.39310987  0.11475661  0.60813807  1
  O  O293  1  0.38262474  0.63012570  0.12848828  1
  O  O294  1  0.38266198  0.63126686  0.63231610  1
  O  O295  1  0.87557130  0.13624277  0.12329599  1
  O  O296  1  0.88304766  0.13034962  0.63466390  1
  O  O297  1  0.88257151  0.63260961  0.13175747  1
  O  O298  1  0.86979294  0.63207089  0.62874031  1
  O  O299  1  0.26173996  0.24247986  0.13394628  1
  O  O300  1  0.26453240  0.21622680  0.61464245  1
  O  O301  1  0.26354093  0.74582481  0.12829381  1
  O  O302  1  0.26037898  0.74318080  0.61213942  1
  O  O303  1  0.75478370  0.25373828  0.11998614  1
  O  O304  1  0.74883003  0.25046015  0.61129998  1
  O  O305  1  0.75510120  0.76515080  0.11991374  1
  O  O306  1  0.75252721  0.75496147  0.62453010  1
  O  O307  1  0.24400889  0.24504386  0.37522311  1
  O  O308  1  0.24230428  0.24780894  0.87156404  1
  O  O309  1  0.24550361  0.74242199  0.38482970  1
  O  O310  1  0.24921684  0.73626108  0.86907931  1
  O  O311  1  0.74330283  0.24968413  0.38313442  1
  O  O312  1  0.74595043  0.24572515  0.88342030  1
  O  O313  1  0.74254538  0.76182076  0.37057542  1
  O  O314  1  0.74003067  0.75255721  0.88314300  1
  O  O315  1  -0.00238523  0.11122533  -0.00025694  1
  O  O316  1  0.00064808  0.11728656  0.50855187  1
  O  O317  1  0.00897528  0.61997204  0.00776969  1
  O  O318  1  0.01508573  0.62171840  0.49586173  1
  O  O319  1  0.50452227  0.11784848  0.01066400  1
  O  O320  1  0.50734469  0.12142535  0.49544226  1
  O  O321  1  0.50474407  0.61619760  0.00485103  1
  O  O322  1  0.49798417  0.61500433  0.50594994  1
  O  O323  1  0.49312319  0.39012462  0.49837141  1
  O  O324  1  0.49968744  0.38017919  0.99443923  1
  O  O325  1  0.49095404  0.86927564  0.49089713  1
  O  O326  1  0.49360863  0.88164600  0.99871219  1
  O  O327  1  1.00680892  0.37580392  0.48880055  1
  O  O328  1  0.99810283  0.37773253  0.99799586  1
  O  O329  1  0.99044288  0.88267303  0.50399956  1
  O  O330  1  0.99336915  0.88275055  0.99066996  1
  O  O331  1  0.49225402  0.50228516  0.38102068  1
  O  O332  1  0.50418221  0.49391250  0.88944727  1
  O  O333  1  0.49756037  0.98726107  0.37138549  1
  O  O334  1  0.50540354  0.98189705  0.88805960  1
  O  O335  1  0.99384466  0.49101971  0.37550954  1
  O  O336  1  0.99173481  0.49787068  0.87611099  1
  O  O337  1  0.98932209  1.00177639  0.37935435  1
  O  O338  1  0.99834335  0.99153851  0.87946984  1
  O  O339  1  0.00588912  -0.00042761  0.11624339  1
  O  O340  1  -0.00620057  0.00847878  0.61430346  1
  O  O341  1  -0.00890682  0.51328831  0.12629016  1
  O  O342  1  0.01739708  0.49640312  0.62771376  1
  O  O343  1  0.49066214  0.01198489  0.12149703  1
  O  O344  1  0.50546018  -0.00303129  0.62149409  1
  O  O345  1  0.50721861  0.50322120  0.11776685  1
  O  O346  1  0.50547839  0.51026218  0.61747289  1
  O  O347  1  0.23503017  0.38232102  0.25462687  1
  O  O348  1  0.24667888  0.38436446  0.75725005  1
  O  O349  1  0.25717232  0.88121800  0.24319297  1
  O  O350  1  0.23545090  0.87247316  0.74652628  1
  O  O351  1  0.74359562  0.38238516  0.24409850  1
  O  O352  1  0.73729797  0.38148316  0.75494275  1
  O  O353  1  0.74605022  0.88561756  0.24000340  1
  O  O354  1  0.74663864  0.88077774  0.73617070  1
  O  O355  1  0.24183285  0.11542449  0.26520563  1
  O  O356  1  0.24023458  0.10893054  0.75454334  1
  O  O357  1  0.25554714  0.61805891  0.25965917  1
  O  O358  1  0.26003291  0.62120697  0.75511100  1
  O  O359  1  0.74313878  0.11152453  0.24825023  1
  O  O360  1  0.75474557  0.11822396  0.74701977  1
  O  O361  1  0.75033364  0.60546867  0.24154393  1
  O  O362  1  0.75827039  0.61732816  0.75475400  1
  O  O363  1  0.36963823  0.11595045  0.38032243  1
  O  O364  1  0.41248532  0.11758634  0.87079983  1
  O  O365  1  0.36700016  0.61619299  0.37342530  1
  O  O366  1  0.37374604  0.63148945  0.86302669  1
  O  O367  1  0.87372960  0.11002642  0.37806409  1
  O  O368  1  0.87172296  0.12182868  0.85842021  1
  O  O369  1  0.88097626  0.61257038  0.36491318  1
  O  O370  1  0.87417686  0.61907602  0.86927877  1
  O  O371  1  0.12098947  0.36940708  0.13945798  1
  O  O372  1  0.12876818  0.37915654  0.64050188  1
  O  O373  1  0.12246343  0.88698407  0.11469162  1
  O  O374  1  0.12387031  0.87201719  0.63203775  1
  O  O375  1  0.63157016  0.37958923  0.12990594  1
  O  O376  1  0.62582382  0.38485888  0.63425744  1
  O  O377  1  0.63205705  0.87055484  0.13515411  1
  O  O378  1  0.63037768  0.88331865  0.62302676  1
  O  O379  1  0.11987866  0.25976286  0.25804197  1
  O  O380  1  0.12094853  0.25561414  0.75887138  1
  O  O381  1  0.13082284  0.74945633  0.26571346  1
  O  O382  1  0.11815671  0.75991768  0.74967570  1
  O  O383  1  0.61985460  0.25435693  0.25684264  1
  O  O384  1  0.61786123  0.26107491  0.74951427  1
  O  O385  1  0.62387127  0.75988862  0.25990960  1
  O  O386  1  0.63019980  0.75775542  0.76103259  1
  O  O387  1  0.38311716  0.25877487  0.23727961  1
  O  O388  1  0.39220682  0.25445995  0.74719991  1
  O  O389  1  0.38199203  0.74167801  0.24598472  1
  O  O390  1  0.37154630  0.74396032  0.73703551  1
  O  O391  1  0.88200727  0.25534687  0.24263680  1
  O  O392  1  0.88314267  0.24337922  0.74928257  1
  O  O393  1  0.84242872  0.72244867  0.24710240  1
  O  O394  1  0.87949787  0.73781909  0.75339701  1
  O  O395  1  0.37895582  0.49469272  0.49487767  1
  O  O396  1  0.38603431  0.48568003  1.00891763  1
  O  O397  1  0.38736177  0.99454507  0.49648383  1
  O  O398  1  0.38261268  0.99167758  0.99843670  1
  O  O399  1  0.88134471  0.50049115  0.48678009  1
  O  O400  1  0.87217418  0.50089725  0.98745143  1
  O  O401  1  0.88232983  0.99507799  0.49092377  1
  O  O402  1  0.88101056  0.99403117  0.99360009  1
  O  O403  1  0.11744552  0.00858654  0.00518184  1
  O  O404  1  0.11135328  -0.00040178  0.49209883  1
  O  O405  1  0.12478212  0.51746286  -0.00525984  1
  O  O406  1  0.12844110  0.50704893  0.51010313  1
  O  O407  1  0.61063575  0.00501221  0.00290244  1
  O  O408  1  0.63065226  0.01241668  0.50093496  1
  O  O409  1  0.62011704  0.50567101  0.00627249  1
  O  O410  1  0.61924973  0.50734184  0.50207597  1
  O  O411  1  0.37553121  0.36374155  0.11403229  1
  O  O412  1  0.37534471  0.37972813  0.61230781  1
  O  O413  1  0.37656563  0.86448687  0.11599948  1
  O  O414  1  0.38560405  0.86391196  0.61722050  1
  O  O415  1  0.86669582  0.36484001  0.12286136  1
  O  O416  1  0.86854310  0.37850979  0.62913285  1
  O  O417  1  0.86255661  0.87846322  0.10728213  1
  O  O418  1  0.86596554  0.87728202  0.61141883  1
  O  O419  1  0.12781913  0.13706974  0.37453087  1
  O  O420  1  0.12152406  0.12972000  0.89054066  1
  O  O421  1  0.13505475  0.62579421  0.38111272  1
  O  O422  1  0.13504406  0.62809984  0.88203491  1
  O  O423  1  0.62773828  0.13575787  0.38003350  1
  O  O424  1  0.61892337  0.12710451  0.89144867  1
  O  O425  1  0.62949291  0.64286503  0.37544298  1
  O  O426  1  0.62638693  0.63404011  0.88179535  1
