# generated using pymatgen
data_V85Zn86O256
_symmetry_space_group_name_H-M   'P 1'
_cell_length_a   16.91708555
_cell_length_b   16.91305104
_cell_length_c   16.91958550
_cell_angle_alpha   89.97297182
_cell_angle_beta   89.98277223
_cell_angle_gamma   89.97010040
_symmetry_Int_Tables_number   1
_chemical_formula_structural   V85Zn86O256
_chemical_formula_sum   'V85 Zn86 O256'
_cell_volume   4841.02245792
_cell_formula_units_Z   1
loop_
 _symmetry_equiv_pos_site_id
 _symmetry_equiv_pos_as_xyz
  1  'x, y, z'
loop_
 _atom_site_type_symbol
 _atom_site_label
 _atom_site_symmetry_multiplicity
 _atom_site_fract_x
 _atom_site_fract_y
 _atom_site_fract_z
 _atom_site_occupancy
  V  V0  1  0.24485236  0.37163512  0.12877012  1
  V  V1  1  0.11926937  0.74999419  0.87049404  1
  V  V2  1  0.52101746  0.50539459  0.50583363  1
  V  V3  1  0.74346296  0.49835561  0.23388382  1
  V  V4  1  0.62830080  0.37668044  0.73712992  1
  V  V5  1  0.87671375  0.12714541  0.23903879  1
  V  V6  1  0.87424677  0.12905326  0.74311973  1
  V  V7  1  0.24667935  0.49723507  0.25311329  1
  V  V8  1  0.00075121  0.00381357  0.50159062  1
  V  V9  1  0.00749535  0.75346017  0.24850523  1
  V  V10  1  0.00831647  0.87868895  0.36957551  1
  V  V11  1  0.87064256  0.62509132  0.25633290  1
  V  V12  1  0.24773971  0.24612439  0.50207975  1
  V  V13  1  0.50525834  0.37169755  0.37235566  1
  V  V14  1  0.38116362  0.12019198  0.75367268  1
  V  V15  1  0.62558101  0.37100326  0.23533483  1
  V  V16  1  0.87797404  0.49479478  0.87186527  1
  V  V17  1  0.75423956  0.86926208  0.62492061  1
  V  V18  1  0.37460921  0.74781157  0.11997533  1
  V  V19  1  0.50280953  0.86947331  0.37957668  1
  V  V20  1  0.00073493  0.64097835  0.62721016  1
  V  V21  1  0.75279564  0.25447364  0.51147612  1
  V  V22  1  0.37767254  0.49996811  0.87213861  1
  V  V23  1  0.86595332  0.49939442  0.37435884  1
  V  V24  1  0.74817099  -0.00039004  0.24930872  1
  V  V25  1  0.12495260  0.49687157  0.13024705  1
  V  V26  1  -0.00100554  0.50031762  0.49894693  1
  V  V27  1  0.87111908  0.37193144  0.51035283  1
  V  V28  1  0.62225646  0.00305622  0.62719076  1
  V  V29  1  0.87627079  0.00121008  0.37395272  1
  V  V30  1  0.25234875  0.49904546  0.74984957  1
  V  V31  1  0.37698501  0.89523503  0.00223464  1
  V  V32  1  0.00050648  0.62380782  0.12473779  1
  V  V33  1  0.87981791  0.63664057  0.74677047  1
  V  V34  1  0.62594890  0.87004412  0.25333997  1
  V  V35  1  0.87772560  0.86848662  0.50251483  1
  V  V36  1  0.62573309  0.25126934  0.87383683  1
  V  V37  1  0.37557237  0.50095286  0.37855462  1
  V  V38  1  0.62252141  0.12614109  0.50174405  1
  V  V39  1  0.00186774  0.49248573  -0.00511979  1
  V  V40  1  0.11692502  -0.00496348  0.12797491  1
  V  V41  1  0.87405118  0.87777491  -0.00235166  1
  V  V42  1  0.50204055  0.74554420  0.25160594  1
  V  V43  1  0.74873175  0.49585035  0.73569982  1
  V  V44  1  0.74820982  0.74758984  -0.00134213  1
  V  V45  1  0.86980509  0.37524604  0.00457026  1
  V  V46  1  0.37648799  0.00722950  0.36871208  1
  V  V47  1  0.62559278  0.61853356  0.00306269  1
  V  V48  1  0.50183732  0.37425427  0.87085948  1
  V  V49  1  0.24935027  -0.00074043  0.76199596  1
  V  V50  1  0.12575258  0.00296778  0.62872330  1
  V  V51  1  0.75006574  0.12939060  0.37449056  1
  V  V52  1  0.00291320  0.25038229  0.24122132  1
  V  V53  1  0.38336165  0.24334000  0.62605901  1
  V  V54  1  0.74683544  0.87396199  0.12481146  1
  V  V55  1  0.37857657  0.64040297  0.74215646  1
  V  V56  1  0.12516691  0.25259757  0.36998323  1
  V  V57  1  -0.00726654  0.25724049  0.75417677  1
  V  V58  1  0.61345932  0.11797798  -0.00201352  1
  V  V59  1  0.25692171  0.87186530  0.62589578  1
  V  V60  1  0.25280500  0.62735262  0.87626353  1
  V  V61  1  0.74831192  0.62264628  0.87133655  1
  V  V62  1  0.13471888  0.75225543  0.37347642  1
  V  V63  1  0.12232266  0.36929932  0.76605910  1
  V  V64  1  0.24552331  0.13565484  0.87672849  1
  V  V65  1  0.74646926  0.74137036  0.49326557  1
  V  V66  1  0.12570805  0.62506676  -0.00021627  1
  V  V67  1  0.87451307  0.75015503  0.12608073  1
  V  V68  1  0.50302027  0.61768996  0.12609375  1
  V  V69  1  0.11342661  0.13150919  0.00291798  1
  V  V70  1  0.12149782  0.49868513  0.62536211  1
  V  V71  1  0.49695167  0.12101476  0.14129220  1
  V  V72  1  0.61860354  0.86560396  0.75078032  1
  V  V73  1  0.49230092  0.87919186  0.87573330  1
  V  V74  1  0.74600064  0.25246954  0.00875570  1
  V  V75  1  0.75038115  0.00056247  0.75183185  1
  V  V76  1  -0.00294172  0.87439615  0.86666758  1
  V  V77  1  0.37615738  0.36892701  0.00001889  1
  V  V78  1  0.51100634  0.63459748  0.62535260  1
  V  V79  1  0.50336144  0.49820018  0.00073332  1
  V  V80  1  0.37673297  0.37644212  0.50261727  1
  V  V81  1  0.00038806  0.37572812  0.36912748  1
  V  V82  1  0.24884231  0.37309107  0.62660992  1
  V  V83  1  0.49788231  0.00129133  0.50616590  1
  V  V84  1  0.37842847  0.24667674  0.14301439  1
  Zn  Zn85  1  0.75030658  0.12551941  0.87670287  1
  Zn  Zn86  1  0.50458252  0.24489680  0.74496271  1
  Zn  Zn87  1  0.62318181  0.25139378  0.37147045  1
  Zn  Zn88  1  0.37438950  0.62378908  0.25070428  1
  Zn  Zn89  1  0.37857725  0.86914403  0.50403993  1
  Zn  Zn90  1  0.61578821  0.74521857  0.87053209  1
  Zn  Zn91  1  0.25680228  0.13076651  0.36650080  1
  Zn  Zn92  1  -0.00307766  0.13471147  0.62273563  1
  Zn  Zn93  1  0.61533555  -0.00723914  0.11993431  1
  Zn  Zn94  1  0.25815120  0.74158527  0.51101893  1
  Zn  Zn95  1  0.12598329  0.62675998  0.49918070  1
  Zn  Zn96  1  0.24986993  0.75447740  0.00107473  1
  Zn  Zn97  1  0.87421327  0.25178206  0.12343626  1
  Zn  Zn98  1  -0.00559570  0.00734046  -0.00010835  1
  Zn  Zn99  1  0.63120059  0.70886473  0.37933056  1
  Zn  Zn100  1  0.87663886  0.00475250  0.87445150  1
  Zn  Zn101  1  0.24784097  0.00277579  0.24629754  1
  Zn  Zn102  1  0.24650261  0.25143616  -0.00030918  1
  Zn  Zn103  1  0.24451069  0.87433068  0.13070617  1
  Zn  Zn104  1  0.25029651  0.62398455  0.37822974  1
  Zn  Zn105  1  0.12507476  0.12635889  0.49946488  1
  Zn  Zn106  1  0.12061506  0.87154425  0.74884501  1
  Zn  Zn107  1  0.18769335  0.18076249  0.18798583  1
  Zn  Zn108  1  0.18536613  0.18748079  0.68926440  1
  Zn  Zn109  1  0.19083657  0.68536543  0.18851559  1
  Zn  Zn110  1  0.18687016  0.68639914  0.69073208  1
  Zn  Zn111  1  0.68288845  0.18738569  0.18608092  1
  Zn  Zn112  1  0.68714426  0.18698686  0.68710217  1
  Zn  Zn113  1  0.68688111  0.68469283  0.18810108  1
  Zn  Zn114  1  0.69259122  0.68693420  0.68257990  1
  Zn  Zn115  1  0.31054946  0.31747722  0.31544149  1
  Zn  Zn116  1  0.31381747  0.31023166  0.81025433  1
  Zn  Zn117  1  0.31797431  0.82061629  0.30692783  1
  Zn  Zn118  1  0.31019987  0.81582014  0.81722725  1
  Zn  Zn119  1  0.81026811  0.31453707  0.31218371  1
  Zn  Zn120  1  0.81146136  0.31425468  0.81478022  1
  Zn  Zn121  1  0.81520073  0.81153900  0.31713619  1
  Zn  Zn122  1  0.80887607  0.81238220  0.81329579  1
  Zn  Zn123  1  0.18601742  0.43428609  0.43920010  1
  Zn  Zn124  1  0.19188829  0.43975212  0.94087113  1
  Zn  Zn125  1  0.18985070  0.93862267  0.43911445  1
  Zn  Zn126  1  0.18506548  0.93983039  0.94432035  1
  Zn  Zn127  1  0.68753939  0.44571895  0.43253090  1
  Zn  Zn128  1  0.68908757  0.43713287  0.93401792  1
  Zn  Zn129  1  0.68818035  0.93655834  0.43847921  1
  Zn  Zn130  1  0.68341144  0.93641748  0.93416563  1
  Zn  Zn131  1  0.30569026  0.06803020  0.06861712  1
  Zn  Zn132  1  0.31317811  0.06066204  0.56492480  1
  Zn  Zn133  1  0.31474889  0.56030000  0.06248166  1
  Zn  Zn134  1  0.31331258  0.56469313  0.56344074  1
  Zn  Zn135  1  0.80373168  0.06222002  0.06081318  1
  Zn  Zn136  1  0.81121602  0.06108730  0.56305773  1
  Zn  Zn137  1  0.81562967  0.56292879  0.06157605  1
  Zn  Zn138  1  0.81978343  0.56406314  0.56396882  1
  Zn  Zn139  1  0.43717174  0.43547961  0.18944648  1
  Zn  Zn140  1  0.44038122  0.43821005  0.68460467  1
  Zn  Zn141  1  0.43650740  0.93495060  0.18844450  1
  Zn  Zn142  1  0.43667012  0.93866613  0.69256341  1
  Zn  Zn143  1  0.93657978  0.43651756  0.18682551  1
  Zn  Zn144  1  0.93928789  0.43993364  0.68901032  1
  Zn  Zn145  1  0.93938527  0.94003099  0.18465216  1
  Zn  Zn146  1  0.93656410  0.93942304  0.68661514  1
  Zn  Zn147  1  0.06474065  0.07022926  0.31103571  1
  Zn  Zn148  1  0.06048593  0.06563286  0.81555998  1
  Zn  Zn149  1  0.06219734  0.56485779  0.31263422  1
  Zn  Zn150  1  0.06227851  0.56308001  0.81061511  1
  Zn  Zn151  1  0.56394652  0.05735893  0.31538808  1
  Zn  Zn152  1  0.56102659  0.05784901  0.81586436  1
  Zn  Zn153  1  0.56454541  0.55623998  0.31106958  1
  Zn  Zn154  1  0.56336808  0.56194371  0.80644217  1
  Zn  Zn155  1  0.44023577  0.18823536  0.44004565  1
  Zn  Zn156  1  0.43558748  0.18475736  0.93491051  1
  Zn  Zn157  1  0.43905915  0.68639192  0.44260708  1
  Zn  Zn158  1  0.43993256  0.69084224  0.93407193  1
  Zn  Zn159  1  0.93542670  0.18978663  0.43414289  1
  Zn  Zn160  1  0.93531041  0.19403855  0.92684703  1
  Zn  Zn161  1  0.94189992  0.68833289  0.43708346  1
  Zn  Zn162  1  0.93691923  0.68579399  0.93562982  1
  Zn  Zn163  1  0.06168737  0.31231355  0.05838542  1
  Zn  Zn164  1  0.05882474  0.31355340  0.56437030  1
  Zn  Zn165  1  0.05991824  0.81375574  0.05679972  1
  Zn  Zn166  1  0.07182044  0.81824370  0.55745616  1
  Zn  Zn167  1  0.55731421  0.30573816  0.06208179  1
  Zn  Zn168  1  0.56316823  0.31247474  0.55711871  1
  Zn  Zn169  1  0.55827502  0.80789623  0.05808895  1
  Zn  Zn170  1  0.56680152  0.81106145  0.56301566  1
  O  O171  1  0.12549915  0.11853148  0.10831882  1
  O  O172  1  0.12461518  0.11413972  0.62215606  1
  O  O173  1  0.12012358  0.61881852  0.11904421  1
  O  O174  1  0.11966411  0.61287602  0.62906485  1
  O  O175  1  0.61053303  0.12664445  0.11664653  1
  O  O176  1  0.62973435  0.11143051  0.61827470  1
  O  O177  1  0.61636950  0.62648388  0.11537355  1
  O  O178  1  0.61002018  0.62277373  0.63592074  1
  O  O179  1  0.38215231  0.38297858  0.38100010  1
  O  O180  1  0.38008894  0.37784429  0.88101182  1
  O  O181  1  0.39197147  0.88492852  0.37590762  1
  O  O182  1  0.38212903  0.87457173  0.88754266  1
  O  O183  1  0.88159916  0.38306636  0.37905789  1
  O  O184  1  0.87162061  0.38857124  0.88325715  1
  O  O185  1  0.88634518  0.88231087  0.38088515  1
  O  O186  1  0.87829354  0.87546761  0.88142061  1
  O  O187  1  0.26878673  -0.00043966  0.38136070  1
  O  O188  1  0.24372220  0.00627280  0.86539116  1
  O  O189  1  0.25571317  0.49578917  0.36870399  1
  O  O190  1  0.25685250  0.50731738  0.86995512  1
  O  O191  1  0.75436702  0.00878311  0.37013917  1
  O  O192  1  0.74843891  -0.00030128  0.86073095  1
  O  O193  1  0.76304458  0.49822465  0.36269602  1
  O  O194  1  0.75767804  0.50999572  0.86919430  1
  O  O195  1  0.24696510  0.49157827  0.13159280  1
  O  O196  1  0.24282295  0.49400245  0.63131912  1
  O  O197  1  0.23267086  0.99919168  0.12182405  1
  O  O198  1  0.24284911  0.99385702  0.63474414  1
  O  O199  1  0.75511715  0.49905026  0.13548202  1
  O  O200  1  0.75423733  0.50322493  0.63744845  1
  O  O201  1  0.74398938  0.99101324  0.13265811  1
  O  O202  1  0.74317331  0.99067907  0.63253820  1
  O  O203  1  -0.00668073  0.36814716  0.26171364  1
  O  O204  1  0.01094118  0.37005787  0.74880160  1
  O  O205  1  -0.00817166  0.86570960  0.25853496  1
  O  O206  1  -0.00168431  0.87674577  0.76219356  1
  O  O207  1  0.51562467  0.38583036  0.25828837  1
  O  O208  1  0.50865489  0.37430705  0.75550501  1
  O  O209  1  0.50888737  0.86709559  0.25562247  1
  O  O210  1  0.50588903  0.87728506  0.76045054  1
  O  O211  1  0.50920739  0.12759870  0.23965888  1
  O  O212  1  0.48605817  0.12419298  0.75751453  1
  O  O213  1  0.50027445  0.62516920  0.24109581  1
  O  O214  1  0.48783524  0.61876031  0.73889542  1
  O  O215  1  0.98714413  0.13753963  0.25627130  1
  O  O216  1  0.99233523  0.13599388  0.74887211  1
  O  O217  1  0.99189076  0.63200359  0.24328442  1
  O  O218  1  0.99156963  0.62127829  0.74074298  1
  O  O219  1  0.37394262  0.26102202  0.00234597  1
  O  O220  1  0.36888119  0.25471921  0.50738622  1
  O  O221  1  0.37495399  0.74855759  0.01229992  1
  O  O222  1  0.36800611  0.75743936  0.49009796  1
  O  O223  1  0.86609226  0.25765748  -0.00264928  1
  O  O224  1  0.86661693  0.25923220  0.49513602  1
  O  O225  1  0.86735200  0.75431022  0.00506017  1
  O  O226  1  0.87041181  0.76413806  0.49117865  1
  O  O227  1  0.13222995  0.25070298  0.49533981  1
  O  O228  1  0.12800813  0.23713041  1.00338908  1
  O  O229  1  0.13355335  0.75039820  0.48740388  1
  O  O230  1  0.12605087  0.74093324  0.99269228  1
  O  O231  1  0.63174561  0.24150700  0.49595538  1
  O  O232  1  0.62869709  0.24406073  0.99330862  1
  O  O233  1  0.64262844  0.75497921  0.49627576  1
  O  O234  1  0.63136383  0.73665568  0.99773843  1
  O  O235  1  0.48528028  0.24128552  0.12511332  1
  O  O236  1  0.48724755  0.25104133  0.62315050  1
  O  O237  1  0.49554950  0.73738681  0.12958194  1
  O  O238  1  0.50219741  0.73458374  0.61888302  1
  O  O239  1  0.99680941  0.25764999  0.13751979  1
  O  O240  1  1.00750966  0.24907342  0.64279064  1
  O  O241  1  0.99466056  0.74715592  0.13128565  1
  O  O242  1  1.01219827  0.73994620  0.61893806  1
  O  O243  1  0.00532029  0.25770916  0.36760378  1
  O  O244  1  0.00477391  0.25190998  0.85504875  1
  O  O245  1  0.00960216  0.75868060  0.36797524  1
  O  O246  1  0.00715529  0.75861767  0.88169137  1
  O  O247  1  0.50127315  0.26697880  0.38269616  1
  O  O248  1  0.51063186  0.25560489  0.87320376  1
  O  O249  1  0.50599043  0.75484176  0.37016685  1
  O  O250  1  0.50259463  0.76705395  0.87881982  1
  O  O251  1  0.25123478  0.13771745  0.49760736  1
  O  O252  1  0.24439508  0.12799650  0.98872733  1
  O  O253  1  0.24469245  0.62549354  0.49690256  1
  O  O254  1  0.24386477  0.62253771  0.99294525  1
  O  O255  1  0.74292770  0.12847163  0.49327548  1
  O  O256  1  0.73702887  0.13410142  0.99764927  1
  O  O257  1  0.76206681  0.64389311  0.50676727  1
  O  O258  1  0.74451999  0.62531184  0.99241712  1
  O  O259  1  0.25931965  0.37404545  0.00853196  1
  O  O260  1  0.25568500  0.36457688  0.50599881  1
  O  O261  1  0.26597904  0.87468556  0.00142519  1
  O  O262  1  0.25038098  0.87866228  0.51878589  1
  O  O263  1  0.75678308  0.36688423  -0.00551587  1
  O  O264  1  0.75844992  0.36604971  0.49032945  1
  O  O265  1  0.75625738  0.86917740  0.00164965  1
  O  O266  1  0.75921068  0.87177171  0.50570110  1
  O  O267  1  0.13181667  0.50264232  0.24197154  1
  O  O268  1  0.12970807  0.49056896  0.74511329  1
  O  O269  1  0.11662182  1.00665742  0.23149001  1
  O  O270  1  0.13030565  0.99998271  0.74438950  1
  O  O271  1  0.63762070  0.49206384  0.24476932  1
  O  O272  1  0.64067033  0.49238060  0.75392066  1
  O  O273  1  0.62938526  0.98593883  0.24750263  1
  O  O274  1  0.63017107  0.99361045  0.74310822  1
  O  O275  1  0.38543273  0.00167604  0.26756814  1
  O  O276  1  0.36291080  0.00988759  0.74655112  1
  O  O277  1  0.36776884  0.49777992  0.26048746  1
  O  O278  1  0.36868572  0.49995462  0.75607724  1
  O  O279  1  0.86977424  0.00711857  0.25428344  1
  O  O280  1  0.86593397  0.00728785  0.75054834  1
  O  O281  1  0.86732596  0.50533333  0.25318393  1
  O  O282  1  0.86640847  0.50394440  0.75592821  1
  O  O283  1  0.11469475  0.36372630  0.37919414  1
  O  O284  1  0.12828852  0.38107935  0.86420473  1
  O  O285  1  0.11489605  0.87159996  0.37814227  1
  O  O286  1  0.11502597  0.86741754  0.87859218  1
  O  O287  1  0.61858164  0.37741371  0.36672604  1
  O  O288  1  0.62075297  0.36788729  0.86741246  1
  O  O289  1  0.61398345  0.88099920  0.36798269  1
  O  O290  1  0.61773247  0.87004462  0.86699010  1
  O  O291  1  0.38418928  0.13717765  0.12301933  1
  O  O292  1  0.36618532  0.13377376  0.63762266  1
  O  O293  1  0.38294663  0.63049867  0.12611025  1
  O  O294  1  0.38017227  0.62266248  0.63866618  1
  O  O295  1  0.86853718  0.12586105  0.13591691  1
  O  O296  1  0.87522313  0.12052195  0.63792974  1
  O  O297  1  0.88075283  0.63049733  0.13339334  1
  O  O298  1  0.88852227  0.62306941  0.63475304  1
  O  O299  1  0.26175282  0.25557347  0.12469544  1
  O  O300  1  0.25437128  0.25457922  0.61944351  1
  O  O301  1  0.25946636  0.75142315  0.12343953  1
  O  O302  1  0.24036571  0.76805137  0.62952667  1
  O  O303  1  0.75032410  0.24792032  0.11235284  1
  O  O304  1  0.74809648  0.24652609  0.61080717  1
  O  O305  1  0.75520511  0.75397786  0.12014974  1
  O  O306  1  0.74853395  0.76331406  0.61529035  1
  O  O307  1  0.24286225  0.25334198  0.38292901  1
  O  O308  1  0.24800983  0.23912421  0.87504034  1
  O  O309  1  0.23889952  0.75214885  0.36250190  1
  O  O310  1  0.24270694  0.74349609  0.87966493  1
  O  O311  1  0.74985168  0.23769837  0.37978700  1
  O  O312  1  0.73742446  0.24977504  0.88160892  1
  O  O313  1  0.74708749  0.75185413  0.38745652  1
  O  O314  1  0.74849955  0.73592276  0.87972966  1
  O  O315  1  0.01007436  0.12930765  -0.00931651  1
  O  O316  1  -0.00308639  0.11466488  0.50076899  1
  O  O317  1  0.00338502  0.61471884  0.00580289  1
  O  O318  1  0.00140333  0.61813962  0.50818727  1
  O  O319  1  0.51054783  0.13117480  0.00569622  1
  O  O320  1  0.51448773  0.11781547  0.49765643  1
  O  O321  1  0.50747569  0.61962230  0.00456988  1
  O  O322  1  0.49664780  0.61316684  0.51370599  1
  O  O323  1  0.49627183  0.38624011  0.49594825  1
  O  O324  1  0.49509556  0.37859135  0.99355821  1
  O  O325  1  0.50393360  0.88239184  0.49461604  1
  O  O326  1  0.48627819  0.87421096  0.99382743  1
  O  O327  1  0.99233310  0.37943573  0.48946426  1
  O  O328  1  0.99420120  0.38668399  0.99984033  1
  O  O329  1  0.99529203  0.88533272  0.49370979  1
  O  O330  1  0.98316824  0.87399606  0.99216929  1
  O  O331  1  0.49192277  0.49038633  0.38886989  1
  O  O332  1  0.49627349  0.49445213  0.87954423  1
  O  O333  1  0.49506610  0.99519119  0.38712727  1
  O  O334  1  0.50657654  0.98008579  0.87869660  1
  O  O335  1  0.99308486  0.49292636  0.37682203  1
  O  O336  1  0.99108130  0.50662694  0.88326202  1
  O  O337  1  0.99898125  0.99564388  0.37994522  1
  O  O338  1  0.99678710  0.99025264  0.87940542  1
  O  O339  1  0.00948399  -0.00118010  0.11681161  1
  O  O340  1  0.00733397  0.00207974  0.61730767  1
  O  O341  1  0.00573274  0.50318195  0.11882389  1
  O  O342  1  0.00794679  0.50453261  0.61967364  1
  O  O343  1  0.49783499  0.01574866  0.12921399  1
  O  O344  1  0.50757939  -0.00586771  0.61553010  1
  O  O345  1  0.49241159  0.51027383  0.11740765  1
  O  O346  1  0.49543248  0.50540140  0.60947962  1
  O  O347  1  0.25267935  0.38598213  0.24128101  1
  O  O348  1  0.23945836  0.37759333  0.74718729  1
  O  O349  1  0.25875487  0.88950319  0.24276384  1
  O  O350  1  0.24689508  0.88331611  0.74510838  1
  O  O351  1  0.73931871  0.38671495  0.25097040  1
  O  O352  1  0.74546039  0.38820474  0.75307556  1
  O  O353  1  0.74388052  0.87673336  0.24768903  1
  O  O354  1  0.74472995  0.88103964  0.74291616  1
  O  O355  1  0.24967469  0.11667681  0.25454754  1
  O  O356  1  0.25140297  0.12069503  0.76149228  1
  O  O357  1  0.25342456  0.61025992  0.25285003  1
  O  O358  1  0.26164744  0.61997824  0.75441561  1
  O  O359  1  0.75257047  0.12086447  0.25644956  1
  O  O360  1  0.75410002  0.11744078  0.75070866  1
  O  O361  1  0.75772194  0.61227267  0.24583150  1
  O  O362  1  0.75581257  0.61576738  0.75399440  1
  O  O363  1  0.37893684  0.11125596  0.38199562  1
  O  O364  1  0.35983301  0.12813578  0.86784812  1
  O  O365  1  0.37640497  0.61042194  0.37351916  1
  O  O366  1  0.37439827  0.61988729  0.86495840  1
  O  O367  1  0.86674582  0.11945679  0.36745396  1
  O  O368  1  0.86933400  0.12430173  0.86141528  1
  O  O369  1  0.88374616  0.61709933  0.36290393  1
  O  O370  1  0.86855536  0.61577377  0.86892484  1
  O  O371  1  0.13854260  0.37892689  0.11816020  1
  O  O372  1  0.12927377  0.38566753  0.63086863  1
  O  O373  1  0.12441098  0.88970780  0.11316946  1
  O  O374  1  0.13143870  0.88791087  0.62905031  1
  O  O375  1  0.61743817  0.37135837  0.13624442  1
  O  O376  1  0.62188358  0.36754411  0.63825895  1
  O  O377  1  0.62799004  0.87080061  0.13234102  1
  O  O378  1  0.63129454  0.88429013  0.63096295  1
  O  O379  1  0.11576010  0.24674734  0.25681918  1
  O  O380  1  0.12104049  0.26533725  0.74909478  1
  O  O381  1  0.11242846  0.74549840  0.25241313  1
  O  O382  1  0.12708918  0.75061088  0.76604613  1
  O  O383  1  0.63221916  0.26635958  0.25323934  1
  O  O384  1  0.62484084  0.25510572  0.75695131  1
  O  O385  1  0.62359096  0.75548085  0.25815160  1
  O  O386  1  0.63256483  0.76296065  0.74853971  1
  O  O387  1  0.37546667  0.25542411  0.24119127  1
  O  O388  1  0.37761680  0.24220803  0.74212474  1
  O  O389  1  0.38491496  0.74765608  0.23894643  1
  O  O390  1  0.37171968  0.73828013  0.75321481  1
  O  O391  1  0.87867280  0.24390833  0.24789526  1
  O  O392  1  0.88364826  0.24815892  0.75200852  1
  O  O393  1  0.88128350  0.74188244  0.24796665  1
  O  O394  1  0.86918745  0.73568897  0.75355620  1
  O  O395  1  0.37299994  0.49155652  0.49351166  1
  O  O396  1  0.38071974  0.48794435  0.99400090  1
  O  O397  1  0.38514196  0.99570296  0.49713299  1
  O  O398  1  0.37399091  0.99310987  1.00699264  1
  O  O399  1  0.87850024  0.49530445  0.49008344  1
  O  O400  1  0.88160627  0.49591163  0.99251763  1
  O  O401  1  0.88122342  0.99304424  0.49404884  1
  O  O402  1  0.87124405  0.99209020  0.99705902  1
  O  O403  1  0.11987971  0.01317802  0.00598139  1
  O  O404  1  0.11681909  0.00242118  0.50668868  1
  O  O405  1  0.11851688  0.50462800  0.00610466  1
  O  O406  1  0.11771640  0.49914584  0.50871820  1
  O  O407  1  0.63049805  0.01406091  0.00222914  1
  O  O408  1  0.62133065  0.00575153  0.50755171  1
  O  O409  1  0.62120137  0.51044510  -0.00545193  1
  O  O410  1  0.61806466  0.48991567  0.51240848  1
  O  O411  1  0.37075678  0.36466213  0.11988514  1
  O  O412  1  0.36790394  0.36636722  0.62277014  1
  O  O413  1  0.38019315  0.86772252  0.11281731  1
  O  O414  1  0.36013076  0.87942626  0.62831460  1
  O  O415  1  0.87691531  0.37541030  0.10906936  1
  O  O416  1  0.87965655  0.38281229  0.60939629  1
  O  O417  1  0.86817005  0.86968724  0.11776022  1
  O  O418  1  0.86709750  0.88102026  0.61497750  1
  O  O419  1  0.12586805  0.14001666  0.38055770  1
  O  O420  1  0.13637115  0.12135595  0.88641769  1
  O  O421  1  0.12510679  0.63722718  0.37603450  1
  O  O422  1  0.12988754  0.62964618  0.87998356  1
  O  O423  1  0.63303495  0.12485663  0.38233781  1
  O  O424  1  0.62338981  0.13154231  0.88325491  1
  O  O425  1  0.61483188  0.60102715  0.39623368  1
  O  O426  1  0.63206300  0.62524369  0.87827560  1
