# generated using pymatgen
data_V85Zn86O256
_symmetry_space_group_name_H-M   'P 1'
_cell_length_a   16.91151099
_cell_length_b   16.91327793
_cell_length_c   16.91832699
_cell_angle_alpha   90.08699613
_cell_angle_beta   90.01194838
_cell_angle_gamma   89.98860921
_symmetry_Int_Tables_number   1
_chemical_formula_structural   V85Zn86O256
_chemical_formula_sum   'V85 Zn86 O256'
_cell_volume   4839.12781953
_cell_formula_units_Z   1
loop_
 _symmetry_equiv_pos_site_id
 _symmetry_equiv_pos_as_xyz
  1  'x, y, z'
loop_
 _atom_site_type_symbol
 _atom_site_label
 _atom_site_symmetry_multiplicity
 _atom_site_fract_x
 _atom_site_fract_y
 _atom_site_fract_z
 _atom_site_occupancy
  V  V0  1  0.37034648  0.74854437  0.11531371  1
  V  V1  1  0.24564774  0.00331643  0.73727421  1
  V  V2  1  0.24649562  0.37157393  0.62170394  1
  V  V3  1  0.26204057  0.00144090  0.25511960  1
  V  V4  1  0.87357797  0.37426042  0.01265480  1
  V  V5  1  0.12545980  0.12665112  0.00035281  1
  V  V6  1  0.75653066  0.12899687  0.87300630  1
  V  V7  1  0.62853975  0.50031510  0.62783177  1
  V  V8  1  0.00197857  0.25728472  0.74921583  1
  V  V9  1  0.86232527  0.50716495  0.37789395  1
  V  V10  1  0.49664432  0.24801928  0.75378069  1
  V  V11  1  0.12911352  0.87365281  0.73972803  1
  V  V12  1  0.62588029  0.88192627  0.24967837  1
  V  V13  1  0.13004996  0.62643975  0.00425575  1
  V  V14  1  0.75418454  0.25575175  0.01003066  1
  V  V15  1  0.62210070  0.36964583  0.24466829  1
  V  V16  1  -0.00062193  0.50427392  0.50129736  1
  V  V17  1  0.49943474  0.74866822  0.25081106  1
  V  V18  1  -0.00184329  0.37588614  0.37493038  1
  V  V19  1  0.49861944  0.74844150  0.75710406  1
  V  V20  1  0.12723316  0.87907438  0.24820666  1
  V  V21  1  0.50272493  0.62197287  0.12218295  1
  V  V22  1  0.00263307  0.87068793  0.87014678  1
  V  V23  1  0.61421803  0.87556701  0.75758572  1
  V  V24  1  0.63317881  0.12264685  0.49467079  1
  V  V25  1  0.25833936  0.12430358  0.87197951  1
  V  V26  1  0.37946032  0.49223977  0.87208761  1
  V  V27  1  0.49876802  0.12568866  0.12921901  1
  V  V28  1  -0.00137403  0.87998584  0.37489967  1
  V  V29  1  0.50306058  0.49232702  -0.00561313  1
  V  V30  1  0.37680991  0.24929514  0.13451838  1
  V  V31  1  0.00401956  0.00188085  0.50228299  1
  V  V32  1  0.62018716  0.00049019  0.62480343  1
  V  V33  1  0.49831985  -0.00767004  -0.00593849  1
  V  V34  1  -0.00544469  0.12997704  0.12492510  1
  V  V35  1  0.37328930  0.75275112  0.62583389  1
  V  V36  1  0.25063722  0.87487055  0.11552662  1
  V  V37  1  0.25081431  0.75779050  0.50494376  1
  V  V38  1  0.12301802  0.13301173  0.50100223  1
  V  V39  1  0.25201364  0.24961253  0.00147334  1
  V  V40  1  0.49855763  0.12535946  0.62170141  1
  V  V41  1  -0.00246479  0.75168066  0.24905051  1
  V  V42  1  0.37386243  0.36822590  0.49862043  1
  V  V43  1  0.74938314  0.87117528  0.62835676  1
  V  V44  1  0.74987344  0.74704346  0.49780946  1
  V  V45  1  0.87267034  0.24352541  0.63227704  1
  V  V46  1  0.74826785  0.88112162  0.12202642  1
  V  V47  1  0.12582315  0.74962768  0.87547769  1
  V  V48  1  0.00116836  0.00044614  -0.00029933  1
  V  V49  1  0.87139281  0.37424940  0.50176144  1
  V  V50  1  0.24537680  0.49498067  0.75113231  1
  V  V51  1  0.62190009  0.37833287  0.75292809  1
  V  V52  1  0.87165139  0.86922430  -0.00254466  1
  V  V53  1  0.75287896  0.63528133  0.87475375  1
  V  V54  1  0.00193865  0.62347892  0.12718245  1
  V  V55  1  0.86814598  0.49628677  0.87166230  1
  V  V56  1  0.12246112  0.49642541  0.63016793  1
  V  V57  1  0.25024583  0.62309786  0.37685518  1
  V  V58  1  0.50019816  0.49626568  0.49582692  1
  V  V59  1  0.75456026  0.00311788  0.75094074  1
  V  V60  1  0.87784610  0.62416787  0.75076242  1
  V  V61  1  0.37457876  0.62184117  0.24978688  1
  V  V62  1  0.86459576  0.12031303  0.25381187  1
  V  V63  1  0.12619655  0.74924948  0.37530679  1
  V  V64  1  0.12331830  0.38071823  0.24522214  1
  V  V65  1  0.00101078  0.11907992  0.63445797  1
  V  V66  1  0.12733853  0.25680576  0.86950267  1
  V  V67  1  0.62816822  0.62243886  0.49830052  1
  V  V68  1  0.00468595  0.49963067  0.00027164  1
  V  V69  1  0.25195842  0.62847532  0.87549133  1
  V  V70  1  0.74879901  0.37404111  0.62918414  1
  V  V71  1  0.25602874  0.12950256  0.37914998  1
  V  V72  1  0.87697603  0.00231645  0.87299738  1
  V  V73  1  -0.00886612  0.25220771  0.24546086  1
  V  V74  1  0.24850024  0.38167304  0.12347622  1
  V  V75  1  0.88235831  0.74912741  0.62897136  1
  V  V76  1  0.63209917  0.63077571  -0.00033433  1
  V  V77  1  0.86748600  0.74966538  0.12545033  1
  V  V78  1  0.37131568  0.24663176  0.62845102  1
  V  V79  1  0.62439967  0.12404055  -0.00172719  1
  V  V80  1  0.62192662  0.25634022  0.87704649  1
  V  V81  1  0.74981913  0.50158989  0.23959630  1
  V  V82  1  0.37658772  -0.00860746  0.86587254  1
  V  V83  1  0.49387585  0.88371412  0.38313795  1
  V  V84  1  0.62461256  0.74484139  0.37368959  1
  Zn  Zn85  1  0.85509751  0.01445722  0.38261279  1
  Zn  Zn86  1  0.75425971  0.24288281  0.49193399  1
  Zn  Zn87  1  0.62676930  0.24544294  0.36842846  1
  Zn  Zn88  1  0.49674207  0.35869153  0.36665255  1
  Zn  Zn89  1  0.38628216  0.12591713  0.26258513  1
  Zn  Zn90  1  0.62632274  0.00144710  0.12514165  1
  Zn  Zn91  1  0.36896805  0.88751005  0.49659585  1
  Zn  Zn92  1  0.12664409  0.25298035  0.37628464  1
  Zn  Zn93  1  0.00409438  0.62842106  0.63254334  1
  Zn  Zn94  1  0.86594248  0.63387955  0.25884819  1
  Zn  Zn95  1  0.38155577  0.37001446  -0.00256493  1
  Zn  Zn96  1  0.37619656  0.86854299  -0.00838365  1
  Zn  Zn97  1  0.37688299  0.62119683  0.74720408  1
  Zn  Zn98  1  0.62537128  0.75620547  0.88124732  1
  Zn  Zn99  1  0.12729518  0.62457636  0.50375305  1
  Zn  Zn100  1  0.87479298  0.87816517  0.50145553  1
  Zn  Zn101  1  0.63192726  0.49667029  0.11933232  1
  Zn  Zn102  1  0.37444723  0.49575916  0.37353907  1
  Zn  Zn103  1  0.24303983  0.50309734  0.24612172  1
  Zn  Zn104  1  0.00164890  0.37721695  0.87261381  1
  Zn  Zn105  1  0.49963688  0.62489893  0.62599958  1
  Zn  Zn106  1  0.12724422  0.00375775  0.12575200  1
  Zn  Zn107  1  0.18461928  0.19099632  0.19185584  1
  Zn  Zn108  1  0.18462855  0.18579123  0.68595816  1
  Zn  Zn109  1  0.18813969  0.69055573  0.18742659  1
  Zn  Zn110  1  0.18772351  0.68525843  0.68949756  1
  Zn  Zn111  1  0.68804972  0.18789705  0.18438440  1
  Zn  Zn112  1  0.68684798  0.18796841  0.68843337  1
  Zn  Zn113  1  0.69024734  0.68692767  0.18901439  1
  Zn  Zn114  1  0.69045123  0.68525115  0.69115219  1
  Zn  Zn115  1  0.31038944  0.31154173  0.31236635  1
  Zn  Zn116  1  0.31105469  0.31434365  0.80937082  1
  Zn  Zn117  1  0.31395580  0.81026127  0.31041128  1
  Zn  Zn118  1  0.31009308  0.81279074  0.80668580  1
  Zn  Zn119  1  0.80621351  0.31309027  0.31112318  1
  Zn  Zn120  1  0.81137336  0.31432086  0.81264272  1
  Zn  Zn121  1  0.79447601  0.84922179  0.32838526  1
  Zn  Zn122  1  0.81265363  0.81170486  0.81012398  1
  Zn  Zn123  1  0.18658826  0.43808104  0.43872778  1
  Zn  Zn124  1  0.18868434  0.43833146  0.93941623  1
  Zn  Zn125  1  0.18498844  0.94352041  0.43713102  1
  Zn  Zn126  1  0.18863911  0.94036718  0.93423296  1
  Zn  Zn127  1  0.68676998  0.42862279  0.43463670  1
  Zn  Zn128  1  0.69097018  0.44030160  0.93730576  1
  Zn  Zn129  1  0.68055080  0.93702636  0.44223238  1
  Zn  Zn130  1  0.69022505  0.93825143  0.93853758  1
  Zn  Zn131  1  0.31522132  0.05985316  0.06184880  1
  Zn  Zn132  1  0.30975842  0.06700918  0.55647356  1
  Zn  Zn133  1  0.31506360  0.55996389  0.05862108  1
  Zn  Zn134  1  0.31411621  0.56344160  0.56290795  1
  Zn  Zn135  1  0.81439396  0.06334411  0.06256778  1
  Zn  Zn136  1  0.81606181  0.05966504  0.56644637  1
  Zn  Zn137  1  0.81683089  0.56458531  0.05959142  1
  Zn  Zn138  1  0.80956964  0.56289712  0.56571280  1
  Zn  Zn139  1  0.43803957  0.43774879  0.18458218  1
  Zn  Zn140  1  0.43987628  0.43507331  0.68587874  1
  Zn  Zn141  1  0.44022434  0.93668732  0.18482709  1
  Zn  Zn142  1  0.41093959  0.96089996  0.65225485  1
  Zn  Zn143  1  0.93592241  0.44376483  0.18917758  1
  Zn  Zn144  1  0.93530601  0.43758909  0.68995676  1
  Zn  Zn145  1  0.93678751  0.94179065  0.18621325  1
  Zn  Zn146  1  0.93957461  0.93579663  0.68825098  1
  Zn  Zn147  1  0.06294909  0.06391671  0.31413320  1
  Zn  Zn148  1  0.06707792  0.06448204  0.81243278  1
  Zn  Zn149  1  0.06005038  0.56238979  0.31359038  1
  Zn  Zn150  1  0.06014049  0.56198270  0.81326762  1
  Zn  Zn151  1  0.56237768  0.05991704  0.31385764  1
  Zn  Zn152  1  0.56199802  0.06502852  0.81048106  1
  Zn  Zn153  1  0.56534514  0.55850964  0.31285700  1
  Zn  Zn154  1  0.56510165  0.56448182  0.81323337  1
  Zn  Zn155  1  0.44345677  0.18730285  0.44082279  1
  Zn  Zn156  1  0.43791194  0.18485904  0.93962616  1
  Zn  Zn157  1  0.43808280  0.68829148  0.43974197  1
  Zn  Zn158  1  0.43999782  0.68182706  0.93482752  1
  Zn  Zn159  1  0.93609929  0.18935456  0.43803447  1
  Zn  Zn160  1  0.93768523  0.19136884  0.93694343  1
  Zn  Zn161  1  0.93736539  0.68995319  0.43925328  1
  Zn  Zn162  1  0.94119127  0.68841636  0.93619491  1
  Zn  Zn163  1  0.06275895  0.31300827  0.06226597  1
  Zn  Zn164  1  0.06018108  0.31311980  0.56369991  1
  Zn  Zn165  1  0.06260290  0.81014568  0.05983038  1
  Zn  Zn166  1  0.06385037  0.81198320  0.55947271  1
  Zn  Zn167  1  0.56498687  0.31172531  0.06823612  1
  Zn  Zn168  1  0.56152450  0.30882352  0.55953762  1
  Zn  Zn169  1  0.56012262  0.81102271  0.06292419  1
  Zn  Zn170  1  0.55950717  0.81127219  0.56658606  1
  O  O171  1  0.11602146  0.12618932  0.11887416  1
  O  O172  1  0.11322074  0.12943871  0.61505820  1
  O  O173  1  0.11770549  0.63368973  0.11496010  1
  O  O174  1  0.12260911  0.61214481  0.62529996  1
  O  O175  1  0.61957541  0.12442620  0.11323540  1
  O  O176  1  0.62092075  0.11717457  0.62176289  1
  O  O177  1  0.61854691  0.62323987  0.11812143  1
  O  O178  1  0.62581238  0.61608079  0.61935138  1
  O  O179  1  0.37563516  0.37534794  0.38268778  1
  O  O180  1  0.36922747  0.38768813  0.87772340  1
  O  O181  1  0.38888140  0.86808461  0.37619623  1
  O  O182  1  0.36869108  0.88655241  0.87455922  1
  O  O183  1  0.88097419  0.38448977  0.38060201  1
  O  O184  1  0.87728268  0.38368867  0.87938361  1
  O  O185  1  0.89553672  0.86241208  0.38090565  1
  O  O186  1  0.88269968  0.87734982  0.87945694  1
  O  O187  1  0.24566168  0.01291538  0.36646317  1
  O  O188  1  0.25754831  0.00776522  0.86903978  1
  O  O189  1  0.25159279  0.51206068  0.37366713  1
  O  O190  1  0.25399752  0.50562416  0.86828327  1
  O  O191  1  0.76182109  -0.04567877  0.36985838  1
  O  O192  1  0.75623544  0.00796048  0.87008828  1
  O  O193  1  0.75921223  0.49688781  0.37132548  1
  O  O194  1  0.76391576  0.51129622  0.88006466  1
  O  O195  1  0.25484418  0.48602775  0.12467639  1
  O  O196  1  0.24291585  0.49500711  0.63149219  1
  O  O197  1  0.24848337  0.99285942  0.13342747  1
  O  O198  1  0.24222516  1.01062358  0.63906204  1
  O  O199  1  0.75437723  0.50243550  0.13594571  1
  O  O200  1  0.73683376  0.49093320  0.62195317  1
  O  O201  1  0.74771213  0.98616298  0.11875163  1
  O  O202  1  0.74355598  0.99238448  0.63379393  1
  O  O203  1  0.00146670  0.37257084  0.25550998  1
  O  O204  1  -0.00124230  0.36203198  0.75135573  1
  O  O205  1  0.00771279  0.87351565  0.25424616  1
  O  O206  1  0.01278510  0.88254973  0.76232974  1
  O  O207  1  0.51573028  0.38590180  0.25020303  1
  O  O208  1  0.51311665  0.36359355  0.74478359  1
  O  O209  1  0.50593960  0.86699462  0.25427464  1
  O  O210  1  0.51418125  0.87072762  0.74773390  1
  O  O211  1  0.50200570  0.11744457  0.23502346  1
  O  O212  1  0.50881005  0.14050737  0.73993957  1
  O  O213  1  0.49426746  0.62616459  0.24197096  1
  O  O214  1  0.50044321  0.63364681  0.74698897  1
  O  O215  1  0.99765998  0.13432410  0.24295329  1
  O  O216  1  1.00539193  0.13230434  0.74004277  1
  O  O217  1  1.00007202  0.63206802  0.24161529  1
  O  O218  1  0.98533741  0.62359073  0.75042685  1
  O  O219  1  0.36671535  0.25043678  0.00540666  1
  O  O220  1  0.37929665  0.26156555  0.51071569  1
  O  O221  1  0.38198226  0.74901911  0.01084303  1
  O  O222  1  0.36726539  0.75124350  0.50703463  1
  O  O223  1  0.86767618  0.26364017  -0.00751089  1
  O  O224  1  0.87594544  0.25688720  0.51307502  1
  O  O225  1  0.88556750  0.76302794  0.00759903  1
  O  O226  1  0.86468426  0.75039682  0.50788063  1
  O  O227  1  0.11638753  0.23857986  0.49633319  1
  O  O228  1  0.13217463  0.24371507  0.99394385  1
  O  O229  1  0.13251740  0.74584172  0.49430667  1
  O  O230  1  0.12326122  0.74078986  0.98681878  1
  O  O231  1  0.62916139  0.23082770  0.50745765  1
  O  O232  1  0.63050865  0.24586119  0.99319964  1
  O  O233  1  0.62881459  0.74200537  0.49662384  1
  O  O234  1  0.61711113  0.73577238  0.99779060  1
  O  O235  1  0.48918949  0.23883803  0.11556628  1
  O  O236  1  0.49334386  0.24489088  0.63291775  1
  O  O237  1  0.49366978  0.73863423  0.13011092  1
  O  O238  1  0.49379698  0.74786364  0.63685774  1
  O  O239  1  1.00194103  0.24242545  0.13211319  1
  O  O240  1  0.99367329  0.24455447  0.63287694  1
  O  O241  1  0.99334093  0.74344884  0.12854784  1
  O  O242  1  0.98657790  0.74744514  0.61672667  1
  O  O243  1  -0.00281962  0.26468418  0.36956243  1
  O  O244  1  0.00882095  0.24898801  0.86626831  1
  O  O245  1  0.00936309  0.75382265  0.37000788  1
  O  O246  1  0.00986674  0.76012544  0.87582770  1
  O  O247  1  0.51196232  0.24574273  0.37663991  1
  O  O248  1  0.51222468  0.24395140  0.87014317  1
  O  O249  1  0.50669187  0.75213626  0.36830204  1
  O  O250  1  0.50177534  0.74765062  0.86244454  1
  O  O251  1  0.23915320  0.12213744  0.48777551  1
  O  O252  1  0.24518980  0.12950022  0.99372701  1
  O  O253  1  0.25041762  0.63260147  0.49069640  1
  O  O254  1  0.23780737  0.61622945  0.99235059  1
  O  O255  1  0.73771377  0.12111503  0.50727330  1
  O  O256  1  0.74382911  0.13047760  0.99366308  1
  O  O257  1  0.73730226  0.63173405  0.50348721  1
  O  O258  1  0.74288263  0.62180389  0.99232272  1
  O  O259  1  0.25085549  0.36742065  0.00741744  1
  O  O260  1  0.25805828  0.38051043  0.51236686  1
  O  O261  1  0.25188947  0.88086685  0.01233186  1
  O  O262  1  0.24921712  0.86254505  0.49006932  1
  O  O263  1  0.76118740  0.36926901  -0.00410449  1
  O  O264  1  0.75378618  0.37271210  0.51321006  1
  O  O265  1  0.76048414  0.87376844  0.00471987  1
  O  O266  1  0.74655680  0.86594145  0.51707787  1
  O  O267  1  0.12259141  0.48643580  0.25245503  1
  O  O268  1  0.13144371  0.50037898  0.74351101  1
  O  O269  1  0.13023846  0.98953465  0.24879036  1
  O  O270  1  0.13520493  0.98644639  0.75924912  1
  O  O271  1  0.63654498  0.49761450  0.24584246  1
  O  O272  1  0.61889854  0.49078452  0.74091453  1
  O  O273  1  0.62250826  0.98572038  0.24662366  1
  O  O274  1  0.63472407  0.99028167  0.74930584  1
  O  O275  1  0.36499240  0.00276086  0.24663977  1
  O  O276  1  0.35623097  -0.00455749  0.75163297  1
  O  O277  1  0.37276010  0.51191636  0.24998078  1
  O  O278  1  0.36983089  0.49944976  0.75486468  1
  O  O279  1  0.88154595  0.01697290  0.25337924  1
  O  O280  1  0.86220575  -0.00699564  0.75600703  1
  O  O281  1  0.86385089  0.50199089  0.25879758  1
  O  O282  1  0.87688162  0.50691991  0.76033604  1
  O  O283  1  0.11565477  0.37470059  0.37022168  1
  O  O284  1  0.12472977  0.36093478  0.88027586  1
  O  O285  1  0.11744501  0.87125493  0.36745505  1
  O  O286  1  0.12057785  0.86712640  0.87320773  1
  O  O287  1  0.61905697  0.37814444  0.35934561  1
  O  O288  1  0.63155023  0.36785086  0.86661226  1
  O  O289  1  0.61314811  0.86326927  0.36814253  1
  O  O290  1  0.63160336  0.87428018  0.86172744  1
  O  O291  1  0.38267365  0.13144285  0.12500676  1
  O  O292  1  0.38126301  0.13967288  0.62274658  1
  O  O293  1  0.37989412  0.62948954  0.12883143  1
  O  O294  1  0.37874518  0.63381339  0.62687501  1
  O  O295  1  0.88767432  0.12097008  0.13273107  1
  O  O296  1  0.88508918  0.13365511  0.62328215  1
  O  O297  1  0.88344025  0.63503162  0.12485046  1
  O  O298  1  0.87425005  0.63068720  0.63352600  1
  O  O299  1  0.25636588  0.25584845  0.12037682  1
  O  O300  1  0.25749666  0.25942642  0.63403898  1
  O  O301  1  0.25968888  0.76043448  0.12943806  1
  O  O302  1  0.25548022  0.74145567  0.61424568  1
  O  O303  1  0.75054063  0.24784192  0.10869823  1
  O  O304  1  0.75781546  0.25491487  0.62480935  1
  O  O305  1  0.76305196  0.75380305  0.12292437  1
  O  O306  1  0.75482270  0.75454661  0.61887068  1
  O  O307  1  0.24533395  0.23419600  0.36910072  1
  O  O308  1  0.24612080  0.24397164  0.87790141  1
  O  O309  1  0.24591395  0.74068824  0.37855782  1
  O  O310  1  0.24633290  0.73563220  0.87113420  1
  O  O311  1  0.74094286  0.25547621  0.38013134  1
  O  O312  1  0.74099178  0.24369909  0.87863055  1
  O  O313  1  0.74085982  0.75965332  0.39033743  1
  O  O314  1  0.75028985  0.73984013  0.87584384  1
  O  O315  1  0.00358292  0.12265209  0.00615173  1
  O  O316  1  0.00386137  0.12014467  0.50672534  1
  O  O317  1  0.00865752  0.61957339  0.00534954  1
  O  O318  1  0.00016231  0.61258702  0.50321942  1
  O  O319  1  0.50798056  0.11635839  0.00509982  1
  O  O320  1  0.51144510  0.12482796  0.51660442  1
  O  O321  1  0.50732324  0.61603319  0.00557977  1
  O  O322  1  0.51150281  0.61822968  0.50285574  1
  O  O323  1  0.49314565  0.38084464  0.49855715  1
  O  O324  1  0.50326297  0.38847761  1.00405915  1
  O  O325  1  0.50122372  0.86807968  0.48537091  1
  O  O326  1  0.49963941  0.88815196  1.00120055  1
  O  O327  1  0.99335497  0.38469361  0.49437114  1
  O  O328  1  0.99470387  0.38321408  0.99789781  1
  O  O329  1  1.00311330  0.88455296  0.49341650  1
  O  O330  1  0.99643431  0.88140757  0.99018300  1
  O  O331  1  0.49718084  0.50103337  0.38793447  1
  O  O332  1  0.49156556  0.50553436  0.88164749  1
  O  O333  1  0.50017879  0.98263798  0.37293290  1
  O  O334  1  0.48744410  1.00973117  0.87838542  1
  O  O335  1  0.99312390  0.49210318  0.38226853  1
  O  O336  1  0.99028960  0.49963124  0.88362525  1
  O  O337  1  0.99833675  0.99301930  0.38198191  1
  O  O338  1  0.99527334  0.99647139  0.87981854  1
  O  O339  1  0.00423481  0.00735048  0.11593135  1
  O  O340  1  -0.00531986  0.00932883  0.61891577  1
  O  O341  1  -0.00526714  0.51549423  0.11764083  1
  O  O342  1  0.00570782  0.49828590  0.61861169  1
  O  O343  1  0.50080637  0.00725202  0.11315248  1
  O  O344  1  0.51535503  0.01215218  0.64629021  1
  O  O345  1  0.49915097  0.51175751  0.11575178  1
  O  O346  1  0.51144692  0.49821881  0.61401264  1
  O  O347  1  0.24077471  0.37611307  0.24310420  1
  O  O348  1  0.25252370  0.38711426  0.73860114  1
  O  O349  1  0.24472529  0.88201754  0.24556930  1
  O  O350  1  0.23683079  0.88553091  0.75178185  1
  O  O351  1  0.73939500  0.39119067  0.25240606  1
  O  O352  1  0.73836997  0.36973006  0.73814850  1
  O  O353  1  0.73558747  0.86018115  0.23250172  1
  O  O354  1  0.74218230  0.87867871  0.74216440  1
  O  O355  1  0.24891520  0.11743096  0.26061363  1
  O  O356  1  0.23949486  0.11223662  0.75916531  1
  O  O357  1  0.25636508  0.62432403  0.25567315  1
  O  O358  1  0.25105782  0.61238742  0.75828250  1
  O  O359  1  0.76594079  0.12649056  0.24084179  1
  O  O360  1  0.74327764  0.11508787  0.76011580  1
  O  O361  1  0.74971305  0.60994855  0.25147177  1
  O  O362  1  0.76198413  0.62617229  0.76085245  1
  O  O363  1  0.36179134  0.12665487  0.37987787  1
  O  O364  1  0.36255574  0.12000801  0.87610017  1
  O  O365  1  0.36841211  0.62534211  0.36630506  1
  O  O366  1  0.36586978  0.61364363  0.87458554  1
  O  O367  1  0.87707412  0.12704638  0.36051734  1
  O  O368  1  0.86322711  0.12178142  0.87967910  1
  O  O369  1  0.88258836  0.61244064  0.37444145  1
  O  O370  1  0.87125698  0.62139962  0.87151319  1
  O  O371  1  0.13457773  0.37022820  0.13254941  1
  O  O372  1  0.13236208  0.38550095  0.61948500  1
  O  O373  1  0.13243126  0.87453085  0.13124140  1
  O  O374  1  0.11944943  0.87023603  0.64138710  1
  O  O375  1  0.62440336  0.38104766  0.13691021  1
  O  O376  1  0.63027593  0.37877243  0.62976509  1
  O  O377  1  0.63085343  0.87366690  0.12975938  1
  O  O378  1  0.62961574  0.88138190  0.63434072  1
  O  O379  1  0.11109138  0.26203210  0.25326769  1
  O  O380  1  0.11683073  0.24688628  0.75846486  1
  O  O381  1  0.12043827  0.76230282  0.25398268  1
  O  O382  1  0.13196433  0.76232499  0.76093951  1
  O  O383  1  0.63039832  0.26558858  0.24451559  1
  O  O384  1  0.62015606  0.25711094  0.75849476  1
  O  O385  1  0.61977356  0.75238128  0.25782759  1
  O  O386  1  0.61986042  0.76121122  0.75038399  1
  O  O387  1  0.37188827  0.24523791  0.23823281  1
  O  O388  1  0.38581539  0.25657415  0.74373551  1
  O  O389  1  0.37905087  0.73829208  0.24014187  1
  O  O390  1  0.38135860  0.74559187  0.74606195  1
  O  O391  1  0.88532243  0.24379971  0.25190503  1
  O  O392  1  0.88165689  0.25285016  0.74013852  1
  O  O393  1  0.88281510  0.75144533  0.24028854  1
  O  O394  1  0.87115691  0.74247275  0.73914682  1
  O  O395  1  0.38343111  0.48908540  0.50194469  1
  O  O396  1  0.38534812  0.49738449  0.99113592  1
  O  O397  1  0.38552058  0.98909083  0.54216343  1
  O  O398  1  0.38232055  0.99796239  0.98789389  1
  O  O399  1  0.87857240  0.49574695  0.49587584  1
  O  O400  1  0.88466253  0.49394574  0.99339955  1
  O  O401  1  0.88609350  0.99819826  0.49758547  1
  O  O402  1  0.88074626  0.98986730  0.99372132  1
  O  O403  1  0.11947518  0.00990449  -0.00094314  1
  O  O404  1  0.11179811  0.01214881  0.49648970  1
  O  O405  1  0.11227508  0.50826277  -0.00599181  1
  O  O406  1  0.11534110  0.50161162  0.50752622  1
  O  O407  1  0.61852112  0.00862648  -0.00268283  1
  O  O408  1  0.62561187  0.00744905  0.51420143  1
  O  O409  1  0.61996395  0.50957405  -0.00068892  1
  O  O410  1  0.62104812  0.50481173  0.50353935  1
  O  O411  1  0.36875873  0.36628148  0.12295831  1
  O  O412  1  0.36833830  0.36740826  0.61968629  1
  O  O413  1  0.36874550  0.86545184  0.12340310  1
  O  O414  1  0.37293229  0.85502684  0.62792820  1
  O  O415  1  0.88005410  0.37947678  0.11195359  1
  O  O416  1  0.86610556  0.36999031  0.62318975  1
  O  O417  1  0.86928539  0.87127955  0.11796215  1
  O  O418  1  0.86705963  0.86704158  0.62573085  1
  O  O419  1  0.13073233  0.12916148  0.38228287  1
  O  O420  1  0.13390724  0.13440776  0.88214992  1
  O  O421  1  0.13285740  0.63021801  0.37552486  1
  O  O422  1  0.13030893  0.63131005  0.87934412  1
  O  O423  1  0.62452396  0.11526900  0.39217572  1
  O  O424  1  0.63294941  0.13148500  0.88382639  1
  O  O425  1  0.62151617  0.63656015  0.38209486  1
  O  O426  1  0.63630191  0.62692955  0.88098182  1
