# generated using pymatgen
data_V85Zn86O256
_symmetry_space_group_name_H-M   'P 1'
_cell_length_a   16.93207193
_cell_length_b   16.94131934
_cell_length_c   16.94434801
_cell_angle_alpha   90.02517439
_cell_angle_beta   90.00758011
_cell_angle_gamma   90.01834091
_symmetry_Int_Tables_number   1
_chemical_formula_structural   V85Zn86O256
_chemical_formula_sum   'V85 Zn86 O256'
_cell_volume   4860.51321565
_cell_formula_units_Z   1
loop_
 _symmetry_equiv_pos_site_id
 _symmetry_equiv_pos_as_xyz
  1  'x, y, z'
loop_
 _atom_site_type_symbol
 _atom_site_label
 _atom_site_symmetry_multiplicity
 _atom_site_fract_x
 _atom_site_fract_y
 _atom_site_fract_z
 _atom_site_occupancy
  V  V0  1  0.62296056  0.87779093  0.74869421  1
  V  V1  1  0.24102102  0.62597581  0.87752593  1
  V  V2  1  0.50266057  0.25046443  0.74949772  1
  V  V3  1  0.37310846  0.12692452  0.76632601  1
  V  V4  1  0.75279876  0.00048573  0.75240979  1
  V  V5  1  0.12524077  0.24764325  0.38485288  1
  V  V6  1  0.12728187  0.01355401  0.62216052  1
  V  V7  1  0.62668838  0.23718232  0.37570330  1
  V  V8  1  0.75051331  0.62601658  0.87283329  1
  V  V9  1  0.49365578  0.00289883  -0.00656932  1
  V  V10  1  0.00567932  -0.01528174  -0.00026493  1
  V  V11  1  0.24387303  0.12492864  0.39206885  1
  V  V12  1  0.50127817  0.50342067  -0.00226941  1
  V  V13  1  0.49986192  0.12288996  0.12548944  1
  V  V14  1  0.49969869  0.87006821  0.36919399  1
  V  V15  1  0.12436102  0.37460496  0.76227507  1
  V  V16  1  0.49641203  0.75248439  0.74928087  1
  V  V17  1  0.00708523  0.24358035  0.74685050  1
  V  V18  1  0.49787532  0.37397166  0.37315322  1
  V  V19  1  0.62730314  0.74938040  0.37484883  1
  V  V20  1  0.12373161  0.49752560  0.62405123  1
  V  V21  1  0.62410376  0.75502412  0.87328409  1
  V  V22  1  0.37240232  0.25016699  0.12512291  1
  V  V23  1  0.87980641  0.12266718  0.74398550  1
  V  V24  1  0.62682989  -0.00067587  0.12343299  1
  V  V25  1  0.00528607  0.74983406  0.76741137  1
  V  V26  1  0.50273022  0.00574419  0.49673568  1
  V  V27  1  0.24420944  0.74933468  0.50315501  1
  V  V28  1  0.38122490  0.75418141  0.12595878  1
  V  V29  1  0.63434467  0.12707962  -0.00049235  1
  V  V30  1  0.00510388  0.12133220  0.12091636  1
  V  V31  1  -0.01245738  0.24419430  0.25529362  1
  V  V32  1  0.25146774  0.37819641  0.13706914  1
  V  V33  1  0.75702453  0.37048068  0.11238856  1
  V  V34  1  0.23983088  0.24974664  -0.00992669  1
  V  V35  1  0.24520773  0.75172419  0.00125715  1
  V  V36  1  0.50306369  0.37512372  0.87414312  1
  V  V37  1  0.87239183  0.49939699  0.36995071  1
  V  V38  1  -0.00110178  0.49302694  0.00640613  1
  V  V39  1  0.25188935  0.50019391  0.74727833  1
  V  V40  1  0.37287986  0.74752639  0.62734026  1
  V  V41  1  0.35827852  0.12073586  0.24668086  1
  V  V42  1  0.63505950  0.24900500  0.87775804  1
  V  V43  1  0.76387250  0.00511376  0.25012137  1
  V  V44  1  0.86321615  0.37590587  0.50785936  1
  V  V45  1  -0.00017730  0.75135585  0.25363270  1
  V  V46  1  -0.00551616  0.62163511  0.13249307  1
  V  V47  1  0.62651714  0.62900603  0.49788105  1
  V  V48  1  0.74829052  0.86834965  0.61865907  1
  V  V49  1  0.88073537  -0.01440188  0.88042232  1
  V  V50  1  0.62552044  0.62721187  -0.00371365  1
  V  V51  1  0.37394329  0.62819594  0.74981862  1
  V  V52  1  -0.00365888  0.01734345  0.51034924  1
  V  V53  1  0.87595752  0.49414364  0.88197586  1
  V  V54  1  0.62850060  0.37109751  0.24786898  1
  V  V55  1  0.24735170  0.36788238  0.62260212  1
  V  V56  1  0.50023945  0.24412737  0.24919453  1
  V  V57  1  0.36970403  0.36923057  0.49424110  1
  V  V58  1  0.87196224  0.74538477  0.13591169  1
  V  V59  1  0.75076101  0.62873943  0.37288801  1
  V  V60  1  0.37362357  0.24599106  0.62088147  1
  V  V61  1  0.12435485  0.75173639  0.37538892  1
  V  V62  1  0.87665759  0.86773361  0.49909265  1
  V  V63  1  0.62879186  0.49276892  0.62392328  1
  V  V64  1  0.13211629  0.50557991  0.13705474  1
  V  V65  1  0.76320341  0.87750503  0.12166456  1
  V  V66  1  0.87571749  0.24662774  0.10039381  1
  V  V67  1  0.48565475  0.88015337  0.87209385  1
  V  V68  1  0.75230707  0.49050733  0.74570592  1
  V  V69  1  0.74217115  0.24415993  0.50953317  1
  V  V70  1  -0.00383516  0.49855669  0.49898662  1
  V  V71  1  0.24722436  0.88423575  0.13465054  1
  V  V72  1  0.75898522  0.75632044  -0.00243850  1
  V  V73  1  0.00024499  0.62934837  0.62383771  1
  V  V74  1  0.74870678  0.50265423  0.24870813  1
  V  V75  1  0.49922873  0.49671350  0.50019163  1
  V  V76  1  0.37508902  0.37632225  0.00192200  1
  V  V77  1  0.37595465  0.50179829  0.87415821  1
  V  V78  1  0.62446727  0.87217038  0.24585528  1
  V  V79  1  0.87361669  0.62401528  0.74891905  1
  V  V80  1  0.25243325  0.00446773  0.76754266  1
  V  V81  1  0.62526172  0.00630280  0.61954879  1
  V  V82  1  0.37469811  0.87397643  0.50158571  1
  V  V83  1  0.36613332  -0.00478162  0.36817335  1
  V  V84  1  0.50468331  0.63085997  0.13011942  1
  Zn  Zn85  1  0.50126567  0.12602575  0.62063108  1
  Zn  Zn86  1  0.76612526  0.12979261  0.88426039  1
  Zn  Zn87  1  0.12332066  0.37271559  0.25366618  1
  Zn  Zn88  1  0.62850511  0.49664131  0.12021996  1
  Zn  Zn89  1  0.63185777  0.36925174  0.74484087  1
  Zn  Zn90  1  -0.00058977  0.37326637  0.37465715  1
  Zn  Zn91  1  0.36962540  0.88125962  -0.00225047  1
  Zn  Zn92  1  0.13101243  0.11898500  -0.01019267  1
  Zn  Zn93  1  0.49957643  0.62518858  0.62239310  1
  Zn  Zn94  1  0.36717577  0.61563534  0.24974090  1
  Zn  Zn95  1  0.24350404  0.87978070  0.62827326  1
  Zn  Zn96  1  0.24894990  0.60433432  0.35606593  1
  Zn  Zn97  1  0.75555456  0.12566516  0.37342763  1
  Zn  Zn98  1  0.88004030  0.00455176  0.37754640  1
  Zn  Zn99  1  0.14423017  0.89561479  0.25986508  1
  Zn  Zn100  1  0.87055920  0.74768989  0.62201579  1
  Zn  Zn101  1  0.11159896  0.87950468  0.75667093  1
  Zn  Zn102  1  0.12423351  0.62337249  0.49641732  1
  Zn  Zn103  1  0.87360031  0.24905331  0.62510610  1
  Zn  Zn104  1  0.00310050  0.88115489  0.38074240  1
  Zn  Zn105  1  0.12146394  0.62705823  0.00127314  1
  Zn  Zn106  1  0.00070446  0.37262290  0.88254769  1
  Zn  Zn107  1  0.17991047  0.19252219  0.18810787  1
  Zn  Zn108  1  0.18886972  0.18754371  0.69222030  1
  Zn  Zn109  1  0.18868111  0.69085644  0.19005027  1
  Zn  Zn110  1  0.18588825  0.68690004  0.68550844  1
  Zn  Zn111  1  0.69393799  0.18809320  0.18233831  1
  Zn  Zn112  1  0.69003809  0.18236299  0.69000152  1
  Zn  Zn113  1  0.68408803  0.68783980  0.18790670  1
  Zn  Zn114  1  0.68395273  0.68468288  0.68524773  1
  Zn  Zn115  1  0.31075972  0.30584756  0.31469505  1
  Zn  Zn116  1  0.31435232  0.31417214  0.81152952  1
  Zn  Zn117  1  0.32166164  0.78351239  0.31874238  1
  Zn  Zn118  1  0.28076863  0.82578998  0.82304048  1
  Zn  Zn119  1  0.81135871  0.31351673  0.31637669  1
  Zn  Zn120  1  0.82056409  0.30872281  0.81466021  1
  Zn  Zn121  1  0.81332260  0.81806402  0.31319778  1
  Zn  Zn122  1  0.81408128  0.81171814  0.80628360  1
  Zn  Zn123  1  0.18557609  0.43501841  0.43395265  1
  Zn  Zn124  1  0.18880879  0.44136240  0.94692978  1
  Zn  Zn125  1  0.18428208  0.93785820  0.44259088  1
  Zn  Zn126  1  0.18125114  0.92954205  0.93683594  1
  Zn  Zn127  1  0.68426299  0.43348811  0.43520717  1
  Zn  Zn128  1  0.68809925  0.43819806  0.93218459  1
  Zn  Zn129  1  0.68891361  0.93755865  0.43589275  1
  Zn  Zn130  1  0.68676357  0.93984829  0.93584985  1
  Zn  Zn131  1  0.30908455  0.06427221  0.05852806  1
  Zn  Zn132  1  0.31501319  0.06123263  0.56424405  1
  Zn  Zn133  1  0.31362891  0.56625080  0.06663616  1
  Zn  Zn134  1  0.29596385  0.54334567  0.52901964  1
  Zn  Zn135  1  0.82240391  0.06306496  0.06320415  1
  Zn  Zn136  1  0.81011484  0.06172452  0.56058849  1
  Zn  Zn137  1  0.81172246  0.56321101  0.06305797  1
  Zn  Zn138  1  0.80943897  0.56400771  0.55995868  1
  Zn  Zn139  1  0.43855446  0.44182073  0.18782510  1
  Zn  Zn140  1  0.43789146  0.43630627  0.68329026  1
  Zn  Zn141  1  0.43616525  0.93624659  0.18609900  1
  Zn  Zn142  1  0.43210789  0.94127533  0.68746561  1
  Zn  Zn143  1  0.93565103  0.42985616  0.18893908  1
  Zn  Zn144  1  0.93844939  0.43601651  0.68728437  1
  Zn  Zn145  1  0.97211577  0.95469784  0.20638931  1
  Zn  Zn146  1  0.93824750  0.93395819  0.68493169  1
  Zn  Zn147  1  0.06045787  0.06584076  0.31791413  1
  Zn  Zn148  1  0.06752685  0.06170657  0.81494404  1
  Zn  Zn149  1  0.06163046  0.56744424  0.31311510  1
  Zn  Zn150  1  0.06070558  0.55965862  0.81256540  1
  Zn  Zn151  1  0.56153918  0.05628259  0.30824572  1
  Zn  Zn152  1  0.56335422  0.06535573  0.81196964  1
  Zn  Zn153  1  0.53962596  0.55064066  0.29834440  1
  Zn  Zn154  1  0.56309556  0.56397167  0.80821785  1
  Zn  Zn155  1  0.43351348  0.18559765  0.43349789  1
  Zn  Zn156  1  0.44282416  0.19287308  0.94199801  1
  Zn  Zn157  1  0.43595551  0.68436370  0.43276224  1
  Zn  Zn158  1  0.43244098  0.69225714  0.93749407  1
  Zn  Zn159  1  0.92902927  0.18620149  0.43736877  1
  Zn  Zn160  1  0.97422458  0.17023320  0.91598051  1
  Zn  Zn161  1  0.93383679  0.68675554  0.43739882  1
  Zn  Zn162  1  0.93616448  0.68026734  0.94398267  1
  Zn  Zn163  1  0.06343951  0.31447435  0.07008528  1
  Zn  Zn164  1  0.05770295  0.31273764  0.56447371  1
  Zn  Zn165  1  0.06711807  0.81009516  0.07071842  1
  Zn  Zn166  1  0.06267270  0.82010533  0.57016048  1
  Zn  Zn167  1  0.56410760  0.31085649  0.06186192  1
  Zn  Zn168  1  0.56312901  0.31083698  0.56186645  1
  Zn  Zn169  1  0.56517315  0.81671228  0.05696389  1
  Zn  Zn170  1  0.56067194  0.81450070  0.55987273  1
  O  O171  1  0.10818615  0.13175810  0.11794770  1
  O  O172  1  0.12624739  0.11285070  0.63085589  1
  O  O173  1  0.11519865  0.61919874  0.12648734  1
  O  O174  1  0.11583451  0.61610237  0.62253640  1
  O  O175  1  0.62052466  0.12120944  0.11798164  1
  O  O176  1  0.62145149  0.11018883  0.62954452  1
  O  O177  1  0.62658289  0.62640397  0.10616315  1
  O  O178  1  0.62159146  0.61737035  0.61434578  1
  O  O179  1  0.38434618  0.36568097  0.38263174  1
  O  O180  1  0.38340454  0.38197684  0.87962514  1
  O  O181  1  0.38029459  0.87607783  0.37994220  1
  O  O182  1  0.38357434  0.87174711  0.87652520  1
  O  O183  1  0.87517833  0.38409704  0.38625360  1
  O  O184  1  0.87517353  0.39133614  0.87220209  1
  O  O185  1  0.87520036  0.88287808  0.38646156  1
  O  O186  1  0.87106737  0.88713057  0.87087596  1
  O  O187  1  0.25475352  0.00977313  0.37962804  1
  O  O188  1  0.25118379  0.00610562  0.86588848  1
  O  O189  1  0.26118515  0.51408235  0.42133701  1
  O  O190  1  0.25767072  0.50587985  0.87091764  1
  O  O191  1  0.74734786  -0.00017532  0.35817251  1
  O  O192  1  0.76089406  0.00074272  0.86852568  1
  O  O193  1  0.75212691  0.50467872  0.36768786  1
  O  O194  1  0.75560514  0.50759455  0.86687459  1
  O  O195  1  0.24234789  0.49162129  0.11905447  1
  O  O196  1  0.24657072  0.48755275  0.62575654  1
  O  O197  1  0.25960300  0.98331189  0.12368592  1
  O  O198  1  0.23795723  1.00243194  0.62511566  1
  O  O199  1  0.75008476  0.49291115  0.13307473  1
  O  O200  1  0.74150949  0.50707293  0.63412073  1
  O  O201  1  0.74961167  0.99383596  0.13034431  1
  O  O202  1  0.74228274  0.99212325  0.63156069  1
  O  O203  1  0.00045771  0.35932265  0.25278352  1
  O  O204  1  0.01152863  0.37440416  0.75122958  1
  O  O205  1  -0.01654023  0.85427632  0.26025895  1
  O  O206  1  -0.00500069  0.85426039  0.75034307  1
  O  O207  1  0.50772126  0.36397975  0.25510243  1
  O  O208  1  0.50014821  0.36298662  0.75360821  1
  O  O209  1  0.51022599  0.88191338  0.25783806  1
  O  O210  1  0.50174489  0.87396583  0.75491330  1
  O  O211  1  0.49201763  0.12712438  0.24432987  1
  O  O212  1  0.49097854  0.13544020  0.74840821  1
  O  O213  1  0.53222467  0.64222810  0.22578183  1
  O  O214  1  0.49207460  0.63334335  0.74838035  1
  O  O215  1  1.00007768  0.13719469  0.23651677  1
  O  O216  1  0.99618767  0.13672446  0.74714262  1
  O  O217  1  0.99843080  0.63392972  0.24067892  1
  O  O218  1  0.99147193  0.62762782  0.74394689  1
  O  O219  1  0.37133005  0.25777676  0.00817382  1
  O  O220  1  0.38247124  0.25751867  0.50851073  1
  O  O221  1  0.36516855  0.75283281  0.00825999  1
  O  O222  1  0.36906733  0.75720562  0.50765366  1
  O  O223  1  0.88363945  0.24562065  0.00403645  1
  O  O224  1  0.86170245  0.25838856  0.50415380  1
  O  O225  1  0.86247859  0.74401762  0.00859616  1
  O  O226  1  0.87530499  0.76227972  0.50221176  1
  O  O227  1  0.11257021  0.25328535  0.48470930  1
  O  O228  1  0.13886514  0.25836111  1.00292643  1
  O  O229  1  0.12835255  0.75283442  0.49722287  1
  O  O230  1  0.13956632  0.74546621  1.00756285  1
  O  O231  1  0.63424822  0.25329107  0.49170817  1
  O  O232  1  0.62008120  0.23983437  0.99007128  1
  O  O233  1  0.61993179  0.74026139  0.49094347  1
  O  O234  1  0.63491087  0.74534271  0.99185077  1
  O  O235  1  0.49319210  0.24313767  0.12927150  1
  O  O236  1  0.49464468  0.24806353  0.63264309  1
  O  O237  1  0.48949519  0.74517098  0.10682614  1
  O  O238  1  0.49232948  0.74987678  0.63040293  1
  O  O239  1  0.99013811  0.24491160  0.13032102  1
  O  O240  1  0.99246346  0.25934042  0.64165855  1
  O  O241  1  0.99146012  0.74311706  0.13261445  1
  O  O242  1  0.99732939  0.73589079  0.62699390  1
  O  O243  1  0.00197121  0.24654201  0.36646375  1
  O  O244  1  -0.01544992  0.26371123  0.85001777  1
  O  O245  1  0.00858738  0.74519049  0.37131564  1
  O  O246  1  -0.00312545  0.73974526  0.86609257  1
  O  O247  1  0.50683566  0.25494154  0.37080923  1
  O  O248  1  0.51030265  0.25540280  0.86803032  1
  O  O249  1  0.51168882  0.76269749  0.37805999  1
  O  O250  1  0.50372482  0.75991568  0.86941716  1
  O  O251  1  0.25516369  0.12680116  0.48974757  1
  O  O252  1  0.24669386  0.14311452  1.00494809  1
  O  O253  1  0.24480688  0.64601571  0.51479727  1
  O  O254  1  0.24912531  0.62978287  0.99369906  1
  O  O255  1  0.74942810  0.13980679  0.49848563  1
  O  O256  1  0.73852983  0.11713337  1.00020246  1
  O  O257  1  0.73478031  0.61950563  0.48878274  1
  O  O258  1  0.74354841  0.63182577  0.99184655  1
  O  O259  1  0.25790086  0.36897197  0.01044002  1
  O  O260  1  0.26243574  0.37270780  0.50851404  1
  O  O261  1  0.25164636  0.86754347  0.01060928  1
  O  O262  1  0.25853243  0.86833400  0.50459247  1
  O  O263  1  0.74259530  0.38073723  0.01414076  1
  O  O264  1  0.75299456  0.36204045  0.49427819  1
  O  O265  1  0.74212110  0.86658151  0.00839683  1
  O  O266  1  0.75954812  0.88372048  0.50953955  1
  O  O267  1  0.11705982  0.49599213  0.24005454  1
  O  O268  1  0.13147187  0.49395091  0.74309958  1
  O  O269  1  0.07803908  0.98483494  0.24469243  1
  O  O270  1  0.13954909  1.00305480  0.74650383  1
  O  O271  1  0.63034939  0.48716455  0.24642950  1
  O  O272  1  0.63454623  0.50011016  0.74211362  1
  O  O273  1  0.63260631  0.99002959  0.24147023  1
  O  O274  1  0.63271655  0.99596553  0.74468913  1
  O  O275  1  0.37960982  0.00620646  0.26196540  1
  O  O276  1  0.37206690  0.02188877  0.74636595  1
  O  O277  1  0.43090317  0.52322113  0.26149945  1
  O  O278  1  0.37011187  0.50523454  0.75206896  1
  O  O279  1  0.86545221  -0.00759351  0.24890777  1
  O  O280  1  0.87105994  0.00078031  0.75619448  1
  O  O281  1  0.86580689  0.49312352  0.26254153  1
  O  O282  1  0.87038583  0.50881271  0.75416100  1
  O  O283  1  0.12223173  0.36609795  0.37248124  1
  O  O284  1  0.12620383  0.38468352  0.86464654  1
  O  O285  1  0.12097266  0.86901364  0.37396576  1
  O  O286  1  0.17077340  0.86187194  0.84967230  1
  O  O287  1  0.62037789  0.36273994  0.36312315  1
  O  O288  1  0.62013702  0.36745996  0.87018918  1
  O  O289  1  0.61990416  0.86960231  0.36819947  1
  O  O290  1  0.61803476  0.87152799  0.86654749  1
  O  O291  1  0.37880419  0.12797168  0.13132334  1
  O  O292  1  0.37683693  0.13715410  0.62842126  1
  O  O293  1  0.38806557  0.63476694  0.12521670  1
  O  O294  1  0.37612722  0.63938041  0.62870606  1
  O  O295  1  0.88239538  0.14096751  0.12339559  1
  O  O296  1  0.86724563  0.12171635  0.64013495  1
  O  O297  1  0.88136637  0.63272823  0.12326405  1
  O  O298  1  0.87922004  0.62545945  0.63188710  1
  O  O299  1  0.25559029  0.25997390  0.12170276  1
  O  O300  1  0.25748800  0.26026052  0.63182157  1
  O  O301  1  0.26374410  0.75398122  0.11822666  1
  O  O302  1  0.25661960  0.75876240  0.62478805  1
  O  O303  1  0.76597404  0.25593146  0.12394425  1
  O  O304  1  0.74590865  0.24909022  0.61312817  1
  O  O305  1  0.75473625  0.75453526  0.11855849  1
  O  O306  1  0.74738260  0.76432261  0.63161247  1
  O  O307  1  0.24184134  0.23402274  0.37253608  1
  O  O308  1  0.25488302  0.25924891  0.89197498  1
  O  O309  1  0.23263011  0.75906237  0.38822785  1
  O  O310  1  0.26282574  0.73399194  0.88823916  1
  O  O311  1  0.74077278  0.24758673  0.38195740  1
  O  O312  1  0.73958254  0.24760887  0.86997196  1
  O  O313  1  0.73866232  0.74288169  0.36865969  1
  O  O314  1  0.74692410  0.74750284  0.87972429  1
  O  O315  1  -0.00414168  0.11476322  0.01420245  1
  O  O316  1  -0.00951225  0.11575368  0.51088397  1
  O  O317  1  0.00176191  0.61630524  0.01466643  1
  O  O318  1  -0.00396553  0.61446011  0.50713274  1
  O  O319  1  0.50908352  0.11988376  0.00521346  1
  O  O320  1  0.49306938  0.10961485  0.49773250  1
  O  O321  1  0.50887400  0.62303426  -0.00051271  1
  O  O322  1  0.50643509  0.61416365  0.49478543  1
  O  O323  1  0.49480815  0.37643942  0.49252446  1
  O  O324  1  0.49647536  0.38232859  0.99534809  1
  O  O325  1  0.49253076  0.88278270  0.49065492  1
  O  O326  1  0.50037201  0.88566813  0.98856077  1
  O  O327  1  0.98886737  0.38706464  0.49939259  1
  O  O328  1  1.00456558  0.38833258  1.00198599  1
  O  O329  1  0.98918668  0.88035808  0.50334525  1
  O  O330  1  1.00239219  0.88630649  1.01283016  1
  O  O331  1  0.51580814  0.47954297  0.38777217  1
  O  O332  1  0.49714720  0.49586917  0.87835739  1
  O  O333  1  0.49320170  0.98992932  0.37937513  1
  O  O334  1  0.50606360  0.99242357  0.88120465  1
  O  O335  1  0.98925220  0.50266601  0.38183344  1
  O  O336  1  0.99274870  0.50132742  0.88671471  1
  O  O337  1  1.00144383  1.00189105  0.39953243  1
  O  O338  1  0.99123314  0.99296441  0.88658963  1
  O  O339  1  -0.01683757  0.01397278  0.11011800  1
  O  O340  1  0.01126736  -0.00244944  0.61979361  1
  O  O341  1  0.00167671  0.50482273  0.12431332  1
  O  O342  1  0.00061908  0.50959721  0.61877717  1
  O  O343  1  0.50657793  0.00453231  0.11757037  1
  O  O344  1  0.50637707  -0.00073461  0.61517871  1
  O  O345  1  0.50768178  0.51136660  0.11153076  1
  O  O346  1  0.50949259  0.50286255  0.61895373  1
  O  O347  1  0.25391333  0.37396319  0.24076317  1
  O  O348  1  0.24495019  0.38054698  0.74336222  1
  O  O349  1  0.25795974  0.86680080  0.23856396  1
  O  O350  1  0.28028291  0.90531453  0.73929885  1
  O  O351  1  0.74398737  0.38181500  0.24484899  1
  O  O352  1  0.75253506  0.38770175  0.75348201  1
  O  O353  1  0.74461573  0.88475111  0.24094915  1
  O  O354  1  0.74522918  0.88488013  0.74324141  1
  O  O355  1  0.25669926  0.12633376  0.24932428  1
  O  O356  1  0.26364978  0.11978197  0.75092781  1
  O  O357  1  0.25248733  0.61670312  0.24316293  1
  O  O358  1  0.25444527  0.62018137  0.75640346  1
  O  O359  1  0.74574404  0.10705240  0.24563220  1
  O  O360  1  0.75598113  0.11136003  0.75484367  1
  O  O361  1  0.73970750  0.61036979  0.25642859  1
  O  O362  1  0.75649040  0.62012451  0.75402642  1
  O  O363  1  0.36279801  0.11689951  0.36745671  1
  O  O364  1  0.38012541  0.13393094  0.86437245  1
  O  O365  1  0.35636016  0.66766789  0.35716025  1
  O  O366  1  0.37093043  0.61758103  0.86840777  1
  O  O367  1  0.86892924  0.11697057  0.37521094  1
  O  O368  1  0.88014354  0.11171064  0.86136965  1
  O  O369  1  0.85751051  0.61774755  0.38071033  1
  O  O370  1  0.86992709  0.61624292  0.86756100  1
  O  O371  1  0.13570846  0.38308314  0.13119837  1
  O  O372  1  0.13256222  0.37839285  0.63062519  1
  O  O373  1  0.14412677  0.86956734  0.13318797  1
  O  O374  1  0.12680261  0.88760455  0.63871699  1
  O  O375  1  0.63211022  0.37067364  0.13525713  1
  O  O376  1  0.62163248  0.38808331  0.62671060  1
  O  O377  1  0.63252632  0.87911697  0.12988223  1
  O  O378  1  0.62895197  0.88323758  0.62926859  1
  O  O379  1  0.11233796  0.25080499  0.26106185  1
  O  O380  1  0.11540591  0.25885513  0.74668991  1
  O  O381  1  0.11519443  0.75361894  0.25921887  1
  O  O382  1  0.10594503  0.74149579  0.74826977  1
  O  O383  1  0.62254517  0.25262166  0.25402087  1
  O  O384  1  0.61866513  0.24850257  0.75545899  1
  O  O385  1  0.63159386  0.76576898  0.25574823  1
  O  O386  1  0.61707612  0.75584827  0.75368748  1
  O  O387  1  0.37996527  0.23858482  0.24517918  1
  O  O388  1  0.38087377  0.24326562  0.74420814  1
  O  O389  1  0.38521379  0.75390248  0.22701906  1
  O  O390  1  0.37714173  0.74841911  0.74287239  1
  O  O391  1  0.88610289  0.25287886  0.25090705  1
  O  O392  1  0.87806250  0.23967259  0.74386248  1
  O  O393  1  0.87281800  0.74627529  0.24076118  1
  O  O394  1  0.88239552  0.73667670  0.74811328  1
  O  O395  1  0.39412184  0.48438918  0.51153023  1
  O  O396  1  0.38211095  0.49620863  0.99525630  1
  O  O397  1  0.37921377  0.99123496  0.49005959  1
  O  O398  1  0.38967937  1.00326745  1.00125303  1
  O  O399  1  0.87464803  0.49573693  0.49037975  1
  O  O400  1  0.88349336  0.50657015  0.99278630  1
  O  O401  1  0.88648450  0.99219469  0.50846467  1
  O  O402  1  0.88145312  0.99981828  0.98575288  1
  O  O403  1  0.11041903  -0.00087806  -0.00456295  1
  O  O404  1  0.11407058  -0.00127451  0.51519325  1
  O  O405  1  0.11677999  0.50364347  0.01511459  1
  O  O406  1  0.11011707  0.49864761  0.50661716  1
  O  O407  1  0.61703169  0.00694118  0.00473590  1
  O  O408  1  0.61556624  -0.00674158  0.50709778  1
  O  O409  1  0.62055203  0.51044902  -0.00433368  1
  O  O410  1  0.61892565  0.50358949  0.50629156  1
  O  O411  1  0.37174615  0.37376754  0.12292250  1
  O  O412  1  0.36952704  0.36354093  0.62012434  1
  O  O413  1  0.37248340  0.86716755  0.11876563  1
  O  O414  1  0.37994052  0.86790260  0.61172563  1
  O  O415  1  0.86869304  0.36056185  0.12379343  1
  O  O416  1  0.87228917  0.38006552  0.61119936  1
  O  O417  1  0.86385432  0.86422142  0.12640034  1
  O  O418  1  0.86465514  0.87141850  0.61979321  1
  O  O419  1  0.13786145  0.12851545  0.37477439  1
  O  O420  1  0.08659263  0.14064267  0.88814891  1
  O  O421  1  0.12980688  0.63408001  0.37871008  1
  O  O422  1  0.13773796  0.61673755  0.87764612  1
  O  O423  1  0.62499241  0.13469077  0.36788595  1
  O  O424  1  0.62719805  0.13262960  0.88299785  1
  O  O425  1  0.62917715  0.63279427  0.37821083  1
  O  O426  1  0.62911995  0.63285705  0.88003418  1
