# generated using pymatgen
data_V85Zn86O256
_symmetry_space_group_name_H-M   'P 1'
_cell_length_a   16.93569919
_cell_length_b   16.93170528
_cell_length_c   16.93474413
_cell_angle_alpha   90.00070122
_cell_angle_beta   89.94333163
_cell_angle_gamma   89.98745795
_symmetry_Int_Tables_number   1
_chemical_formula_structural   V85Zn86O256
_chemical_formula_sum   'V85 Zn86 O256'
_cell_volume   4856.03991474
_cell_formula_units_Z   1
loop_
 _symmetry_equiv_pos_site_id
 _symmetry_equiv_pos_as_xyz
  1  'x, y, z'
loop_
 _atom_site_type_symbol
 _atom_site_label
 _atom_site_symmetry_multiplicity
 _atom_site_fract_x
 _atom_site_fract_y
 _atom_site_fract_z
 _atom_site_occupancy
  V  V0  1  0.12477140  0.50010921  0.62183164  1
  V  V1  1  -0.00241519  0.00012989  -0.00330486  1
  V  V2  1  0.74783178  0.37468487  0.62577512  1
  V  V3  1  0.75207704  0.74520501  0.01629553  1
  V  V4  1  0.38690751  0.62519582  0.24712511  1
  V  V5  1  0.75103219  0.12445592  0.37674666  1
  V  V6  1  0.25657538  0.00384520  0.25044513  1
  V  V7  1  0.87557611  0.75038413  0.62573304  1
  V  V8  1  0.62619679  0.87554665  0.75493488  1
  V  V9  1  0.12111150  0.36946434  0.74615269  1
  V  V10  1  0.87450075  0.12586467  0.24960646  1
  V  V11  1  0.25343830  0.37486062  0.61796229  1
  V  V12  1  0.62598225  0.73846741  0.88017140  1
  V  V13  1  -0.00081380  0.86841697  0.37242919  1
  V  V14  1  0.62987872  0.76086582  0.37043992  1
  V  V15  1  0.87400361  0.61776798  0.26028805  1
  V  V16  1  0.13414575  0.12678243  -0.00482689  1
  V  V17  1  0.62377565  0.12190456  0.50364322  1
  V  V18  1  -0.00108339  0.62558389  0.62338158  1
  V  V19  1  0.36975824  0.00350148  0.87064667  1
  V  V20  1  0.62465481  0.37739614  0.25266127  1
  V  V21  1  0.00181545  0.12720841  0.12372125  1
  V  V22  1  0.00066880  0.87624317  0.86765067  1
  V  V23  1  0.74740145  0.49945054  0.75000944  1
  V  V24  1  0.37381100  0.37850575  0.01780635  1
  V  V25  1  0.49800719  0.00724542  0.01061030  1
  V  V26  1  0.37599583  0.62792365  0.73554429  1
  V  V27  1  0.13328591  0.24899979  0.87273056  1
  V  V28  1  0.12433553  0.63205576  0.49740530  1
  V  V29  1  0.38589764  0.74512398  0.12232045  1
  V  V30  1  0.37585276  0.49517910  0.38015212  1
  V  V31  1  0.37033883  0.12819597  0.75308857  1
  V  V32  1  0.36979304  0.23337569  0.13358520  1
  V  V33  1  0.74662951  0.25126406  -0.00431373  1
  V  V34  1  0.25170218  0.49423806  0.24276123  1
  V  V35  1  0.12536134  0.75471733  0.86695926  1
  V  V36  1  0.49786231  0.37237545  0.38512136  1
  V  V37  1  0.75053413  0.24834127  0.50207908  1
  V  V38  1  0.61633105  0.36944946  0.74810472  1
  V  V39  1  0.49108733  -0.01031438  0.50304236  1
  V  V40  1  0.12422694  -0.00019903  0.12485949  1
  V  V41  1  0.24836053  0.62553308  0.87239785  1
  V  V42  1  0.74545412  -0.00810709  0.23916769  1
  V  V43  1  0.00300039  0.10901046  0.62527931  1
  V  V44  1  -0.00198334  0.37914323  0.37158619  1
  V  V45  1  0.87510923  0.12722309  0.75645074  1
  V  V46  1  0.26972021  0.75595762  0.50372970  1
  V  V47  1  0.87465791  0.62694878  0.75193774  1
  V  V48  1  0.23557004  -0.00031054  0.74942809  1
  V  V49  1  0.24783377  0.87064543  0.12523583  1
  V  V50  1  0.24858436  0.74884496  -0.00171788  1
  V  V51  1  0.25427276  0.24834543  0.50068542  1
  V  V52  1  0.25257561  0.62812466  0.37291039  1
  V  V53  1  0.87401628  0.37942702  0.49583080  1
  V  V54  1  0.00194111  0.50306284  0.00209934  1
  V  V55  1  0.87367835  0.50013704  0.87420183  1
  V  V56  1  0.12202412  0.11142472  0.50188351  1
  V  V57  1  0.74583226  0.61121048  0.37640419  1
  V  V58  1  0.75036997  0.87793540  0.62669956  1
  V  V59  1  0.74983401  0.38037327  0.13202878  1
  V  V60  1  0.74639236  0.74689812  0.49795283  1
  V  V61  1  0.25014330  0.88364153  0.62306554  1
  V  V62  1  0.62184459  0.51394684  0.62330545  1
  V  V63  1  0.50120639  0.51510992  0.50439603  1
  V  V64  1  0.49624695  0.74590097  0.73732905  1
  V  V65  1  0.62231005  0.50847384  0.12397622  1
  V  V66  1  0.50031519  0.12563796  0.63305673  1
  V  V67  1  0.37440807  0.49824357  0.87436250  1
  V  V68  1  0.37128345  0.87367975  -0.00367934  1
  V  V69  1  0.49663553  0.23787151  0.25170337  1
  V  V70  1  -0.00176664  0.50102633  0.49517958  1
  V  V71  1  0.24946083  0.50088396  0.74675360  1
  V  V72  1  0.00121359  0.24931188  0.25064059  1
  V  V73  1  0.88688292  0.25181930  0.62924370  1
  V  V74  1  0.87447683  0.37673518  0.00181380  1
  V  V75  1  0.88290722  0.87947929  0.50270111  1
  V  V76  1  0.49489917  0.36819800  0.87445837  1
  V  V77  1  0.00013428  0.63188544  0.13364758  1
  V  V78  1  0.88178895  0.00202777  0.37962060  1
  V  V79  1  -0.00036023  0.37074074  0.86991199  1
  V  V80  1  0.12609796  0.24905906  0.37719393  1
  V  V81  1  0.49819586  0.87433400  0.87277147  1
  V  V82  1  0.38019626  0.25298666  0.62584229  1
  V  V83  1  0.50187668  0.50988888  0.00195903  1
  V  V84  1  0.11994972  0.86732352  0.24768989  1
  Zn  Zn85  1  0.37567965  -0.00200422  0.37549249  1
  Zn  Zn86  1  0.49830441  0.87409193  0.36756111  1
  Zn  Zn87  1  0.24869804  0.25803707  0.00637996  1
  Zn  Zn88  1  0.62013898  0.24755667  0.87101273  1
  Zn  Zn89  1  0.62312164  0.24818783  0.37631214  1
  Zn  Zn90  1  0.86646056  -0.00480943  0.87725441  1
  Zn  Zn91  1  0.62467968  0.11830548  0.00664801  1
  Zn  Zn92  1  0.74006685  0.11978339  0.87717741  1
  Zn  Zn93  1  0.25509911  0.12610576  0.37076842  1
  Zn  Zn94  1  0.87812277  0.75924725  0.13911304  1
  Zn  Zn95  1  0.12316426  0.74892491  0.37013894  1
  Zn  Zn96  1  0.12740263  0.49521386  0.12303011  1
  Zn  Zn97  1  0.12355347  0.62521786  0.00185513  1
  Zn  Zn98  1  0.87248061  0.87258710  0.00479703  1
  Zn  Zn99  1  0.87568330  0.25281698  0.12477597  1
  Zn  Zn100  1  0.13289480  0.36890509  0.24121629  1
  Zn  Zn101  1  0.62433106  -0.00063049  0.62998165  1
  Zn  Zn102  1  0.74576045  0.62016191  0.88361048  1
  Zn  Zn103  1  0.62236943  0.88151664  0.20386868  1
  Zn  Zn104  1  0.74780366  -0.00092696  0.76138079  1
  Zn  Zn105  1  0.00422395  0.75504354  0.74674225  1
  Zn  Zn106  1  0.50894916  0.75162782  0.24569601  1
  Zn  Zn107  1  0.18817763  0.18799424  0.18573804  1
  Zn  Zn108  1  0.18637258  0.18502766  0.68670693  1
  Zn  Zn109  1  0.18934880  0.68318840  0.18579332  1
  Zn  Zn110  1  0.18897796  0.69179823  0.68277277  1
  Zn  Zn111  1  0.68873510  0.18722857  0.18614616  1
  Zn  Zn112  1  0.69146698  0.18818486  0.68925805  1
  Zn  Zn113  1  0.69153559  0.68363647  0.19788013  1
  Zn  Zn114  1  0.68939053  0.69193738  0.69272553  1
  Zn  Zn115  1  0.31629388  0.31144614  0.31419476  1
  Zn  Zn116  1  0.31078382  0.31365643  0.80905645  1
  Zn  Zn117  1  0.31704714  0.81587291  0.31283176  1
  Zn  Zn118  1  0.31115733  0.81596576  0.80186060  1
  Zn  Zn119  1  0.81138625  0.31322232  0.31406692  1
  Zn  Zn120  1  0.81032499  0.31130588  0.81143834  1
  Zn  Zn121  1  0.81539937  0.81012077  0.30957650  1
  Zn  Zn122  1  0.81254508  0.81225177  0.81889151  1
  Zn  Zn123  1  0.18659789  0.43767510  0.43412701  1
  Zn  Zn124  1  0.18878044  0.43643784  0.93816686  1
  Zn  Zn125  1  0.18989069  0.93148364  0.43526358  1
  Zn  Zn126  1  0.18513388  0.93825749  0.93336067  1
  Zn  Zn127  1  0.68051738  0.43493909  0.44237227  1
  Zn  Zn128  1  0.68301847  0.43499088  0.93905389  1
  Zn  Zn129  1  0.69306479  0.94121758  0.43933040  1
  Zn  Zn130  1  0.68237465  0.93008511  0.96133211  1
  Zn  Zn131  1  0.31164568  0.05927567  0.06191360  1
  Zn  Zn132  1  0.31110134  0.06472025  0.56404267  1
  Zn  Zn133  1  0.31535316  0.56530581  0.06129733  1
  Zn  Zn134  1  0.31280862  0.56242701  0.55666619  1
  Zn  Zn135  1  0.81455435  0.06640064  0.06173906  1
  Zn  Zn136  1  0.81446624  0.06157036  0.56722590  1
  Zn  Zn137  1  0.81254869  0.56643443  0.06688471  1
  Zn  Zn138  1  0.80983019  0.56181673  0.56110258  1
  Zn  Zn139  1  0.44558285  0.43771078  0.19301376  1
  Zn  Zn140  1  0.43653538  0.43948738  0.68541483  1
  Zn  Zn141  1  0.43552514  0.92871637  0.18985361  1
  Zn  Zn142  1  0.43120296  0.93504722  0.68362265  1
  Zn  Zn143  1  0.94022610  0.44097513  0.18805009  1
  Zn  Zn144  1  0.93716653  0.43873681  0.68545886  1
  Zn  Zn145  1  0.93528197  0.93860362  0.18737056  1
  Zn  Zn146  1  0.93543561  0.94068359  0.69239896  1
  Zn  Zn147  1  0.06528556  0.05845780  0.31389950  1
  Zn  Zn148  1  0.05565328  0.06909214  0.81258911  1
  Zn  Zn149  1  0.06493583  0.56212794  0.30996615  1
  Zn  Zn150  1  0.06238067  0.56096098  0.81202243  1
  Zn  Zn151  1  0.56633829  0.05835824  0.31654608  1
  Zn  Zn152  1  0.56040785  0.06349960  0.81915874  1
  Zn  Zn153  1  0.56804743  0.56170834  0.31534781  1
  Zn  Zn154  1  0.55663280  0.55826886  0.80854041  1
  Zn  Zn155  1  0.43444994  0.17909786  0.43714928  1
  Zn  Zn156  1  0.43091394  0.18958604  0.94011303  1
  Zn  Zn157  1  0.44293145  0.68833752  0.43041504  1
  Zn  Zn158  1  0.43514822  0.68718752  0.92941635  1
  Zn  Zn159  1  0.93961338  0.18919750  0.44164309  1
  Zn  Zn160  1  0.94110855  0.19204295  0.93822097  1
  Zn  Zn161  1  0.93233112  0.68982346  0.43511185  1
  Zn  Zn162  1  0.93647701  0.68903650  0.93933767  1
  Zn  Zn163  1  0.06449084  0.31467408  0.06340466  1
  Zn  Zn164  1  0.06416339  0.31014976  0.55827354  1
  Zn  Zn165  1  0.06104444  0.81265678  0.05608636  1
  Zn  Zn166  1  0.06587236  0.81604906  0.56456895  1
  Zn  Zn167  1  0.57846332  0.27859789  0.08397757  1
  Zn  Zn168  1  0.56191166  0.31262601  0.56351281  1
  Zn  Zn169  1  0.56323854  0.81198296  0.05492384  1
  Zn  Zn170  1  0.56822552  0.80904899  0.56267563  1
  O  O171  1  0.11940055  0.12179740  0.11625270  1
  O  O172  1  0.10974229  0.12957177  0.61922106  1
  O  O173  1  0.11422569  0.61799571  0.12519223  1
  O  O174  1  0.11958025  0.62086216  0.61663637  1
  O  O175  1  0.61441646  0.16898387  0.10679886  1
  O  O176  1  0.61747290  0.12451230  0.62342877  1
  O  O177  1  0.63011615  0.60644795  0.13566196  1
  O  O178  1  0.63103405  0.61303141  0.63249755  1
  O  O179  1  0.38165945  0.38776764  0.37356245  1
  O  O180  1  0.37895802  0.38205242  0.87334993  1
  O  O181  1  0.38377256  0.88445748  0.36827020  1
  O  O182  1  0.37936517  0.88059371  0.87471058  1
  O  O183  1  0.88439519  0.36983454  0.38451453  1
  O  O184  1  0.88182603  0.38014913  0.87930958  1
  O  O185  1  0.88009044  0.88158312  0.38209175  1
  O  O186  1  0.88605054  0.87464494  0.88153812  1
  O  O187  1  0.24607856  -0.00345961  0.35781813  1
  O  O188  1  0.25952059  -0.00493998  0.86279277  1
  O  O189  1  0.25923573  0.50800045  0.37298549  1
  O  O190  1  0.25260753  0.50728243  0.86780939  1
  O  O191  1  0.76229755  0.00733098  0.36913529  1
  O  O192  1  0.74899683  0.00068861  0.88234054  1
  O  O193  1  0.74326247  0.51264325  0.38511473  1
  O  O194  1  0.75437479  0.50061599  0.86957287  1
  O  O195  1  0.25169226  0.50723815  0.14059651  1
  O  O196  1  0.24443061  0.49284754  0.62420432  1
  O  O197  1  0.24274272  0.99278242  0.13063582  1
  O  O198  1  0.24849355  0.99262642  0.63264851  1
  O  O199  1  0.73827495  0.48835316  0.11761315  1
  O  O200  1  0.74167486  0.49366503  0.62795842  1
  O  O201  1  0.75586606  1.00878075  0.14128738  1
  O  O202  1  0.74898240  0.98675703  0.62969791  1
  O  O203  1  -0.00110795  0.36756811  0.25785880  1
  O  O204  1  0.00900007  0.38260789  0.75745571  1
  O  O205  1  0.00853096  0.88135064  0.25972381  1
  O  O206  1  -0.00248137  0.87450980  0.76220996  1
  O  O207  1  0.50492298  0.36922920  0.26528116  1
  O  O208  1  0.50590104  0.38173663  0.75818049  1
  O  O209  1  0.51326604  0.87223588  0.24729296  1
  O  O210  1  0.50347262  0.86911104  0.75760467  1
  O  O211  1  0.50705869  0.13923002  0.25810091  1
  O  O212  1  0.49106720  0.11904686  0.73882793  1
  O  O213  1  0.48964693  0.62625539  0.25548435  1
  O  O214  1  0.48764703  0.63262508  0.75388459  1
  O  O215  1  0.99459749  0.12846157  0.24634494  1
  O  O216  1  0.99231234  0.12514016  0.73405760  1
  O  O217  1  0.99485104  0.62300365  0.24153260  1
  O  O218  1  0.98887680  0.62272223  0.74361465  1
  O  O219  1  0.37493602  0.26074145  0.01704677  1
  O  O220  1  0.36149214  0.24458920  0.50939302  1
  O  O221  1  0.36846097  0.75309626  0.00239953  1
  O  O222  1  0.36725702  0.74532525  0.49643473  1
  O  O223  1  0.86865221  0.26128416  -0.00021715  1
  O  O224  1  0.87095260  0.26004652  0.50771077  1
  O  O225  1  0.86159821  0.74571314  0.00457826  1
  O  O226  1  0.86630421  0.75823727  0.50623591  1
  O  O227  1  0.13433315  0.24395374  0.49390888  1
  O  O228  1  0.12726538  0.24468628  0.99240322  1
  O  O229  1  0.12803044  0.73829937  0.49653273  1
  O  O230  1  0.13267247  0.74619947  0.98783611  1
  O  O231  1  0.63045970  0.23823333  0.50252772  1
  O  O232  1  0.64425463  0.27673320  0.98876745  1
  O  O233  1  0.64093922  0.75038397  0.49537652  1
  O  O234  1  0.63229938  0.74336535  0.98498077  1
  O  O235  1  0.48160721  0.26148644  0.14471012  1
  O  O236  1  0.48738808  0.24345002  0.62044507  1
  O  O237  1  0.48919776  0.75018379  0.12000566  1
  O  O238  1  0.50561418  0.75167803  0.63822012  1
  O  O239  1  0.99764420  0.24347199  0.13111844  1
  O  O240  1  0.98890812  0.25066715  0.62205772  1
  O  O241  1  1.00268999  0.73361510  0.11798847  1
  O  O242  1  0.99415851  0.74362434  0.62570591  1
  O  O243  1  0.00733784  0.25821347  0.37315650  1
  O  O244  1  0.01038030  0.26621706  0.87914486  1
  O  O245  1  0.00031694  0.76400051  0.37827704  1
  O  O246  1  0.00839171  0.75676214  0.87490000  1
  O  O247  1  0.49586289  0.25557239  0.36949004  1
  O  O248  1  0.49628213  0.26441502  0.88023214  1
  O  O249  1  0.51579110  0.75113349  0.37180790  1
  O  O250  1  0.50879817  0.75559059  0.86965509  1
  O  O251  1  0.23852347  0.13329524  0.50444546  1
  O  O252  1  0.23705916  0.12723557  1.00238550  1
  O  O253  1  0.24514728  0.63211458  0.49008743  1
  O  O254  1  0.24830168  0.62930750  0.98947146  1
  O  O255  1  0.74460691  0.12825330  0.49957005  1
  O  O256  1  0.75033666  0.13898286  1.00013674  1
  O  O257  1  0.75960790  0.63396836  0.48706109  1
  O  O258  1  0.75101926  0.63711695  0.99850806  1
  O  O259  1  0.26924216  0.37684080  -0.00479247  1
  O  O260  1  0.24258010  0.36773654  0.51103656  1
  O  O261  1  0.25263066  0.86978785  0.00395911  1
  O  O262  1  0.25169943  0.86408803  0.50586959  1
  O  O263  1  0.76387520  0.37620752  0.00336568  1
  O  O264  1  0.75640928  0.36986823  0.50408418  1
  O  O265  1  0.75558803  0.84789162  -0.01288261  1
  O  O266  1  0.75992993  0.86966151  0.50868531  1
  O  O267  1  0.14361060  0.49925777  0.25372650  1
  O  O268  1  0.12989740  0.49174874  0.74216478  1
  O  O269  1  0.13008213  0.98963839  0.24223138  1
  O  O270  1  0.13770639  1.00890611  0.75692561  1
  O  O271  1  0.61623752  0.48613070  0.23996825  1
  O  O272  1  0.62781311  0.49212493  0.74204856  1
  O  O273  1  0.64135970  0.99873945  0.25297960  1
  O  O274  1  0.62288821  0.98570391  0.75269455  1
  O  O275  1  0.35799813  -0.00200888  0.24128917  1
  O  O276  1  0.36791387  0.00819383  0.75457518  1
  O  O277  1  0.36932960  0.50625190  0.25696513  1
  O  O278  1  0.36790708  0.50649612  0.75434111  1
  O  O279  1  0.87010018  0.01224400  0.25755726  1
  O  O280  1  0.87057964  0.01139904  0.75487655  1
  O  O281  1  0.87982142  0.51707003  0.24845566  1
  O  O282  1  0.86880412  0.50578974  0.75359300  1
  O  O283  1  0.11823504  0.36331159  0.37387994  1
  O  O284  1  0.11897971  0.37267465  0.86576957  1
  O  O285  1  0.11603990  0.87341666  0.36712700  1
  O  O286  1  0.11682591  0.86530895  0.87680025  1
  O  O287  1  0.61809102  0.37091606  0.37012725  1
  O  O288  1  0.61259979  0.37855080  0.86432485  1
  O  O289  1  0.62853912  0.86402611  0.38349708  1
  O  O290  1  0.61542175  0.86529003  0.87188903  1
  O  O291  1  0.37315971  0.13554842  0.12356488  1
  O  O292  1  0.38125800  0.13223358  0.63168719  1
  O  O293  1  0.37019078  0.63369422  0.13462189  1
  O  O294  1  0.36922385  0.62018725  0.63647510  1
  O  O295  1  0.88332248  0.12871097  0.13444858  1
  O  O296  1  0.88489732  0.13175007  0.62996473  1
  O  O297  1  0.88625961  0.62682694  0.13567518  1
  O  O298  1  0.87941526  0.62890490  0.63051427  1
  O  O299  1  0.26497400  0.25108495  0.12793444  1
  O  O300  1  0.25529984  0.25645727  0.61915541  1
  O  O301  1  0.25490109  0.75163091  0.11576709  1
  O  O302  1  0.25226997  0.74757945  0.60607328  1
  O  O303  1  0.75625971  0.26634099  0.11658772  1
  O  O304  1  0.75892333  0.25588789  0.61862190  1
  O  O305  1  0.74997092  0.74401641  0.11794272  1
  O  O306  1  0.75529211  0.75893493  0.62016007  1
  O  O307  1  0.24387272  0.25002867  0.38271491  1
  O  O308  1  0.23685063  0.25729124  0.87897460  1
  O  O309  1  0.24974347  0.74380760  0.38459566  1
  O  O310  1  0.24517065  0.74456971  0.87627430  1
  O  O311  1  0.74979369  0.24214706  0.38488002  1
  O  O312  1  0.74954109  0.24641804  0.88234286  1
  O  O313  1  0.74756545  0.74505321  0.38234616  1
  O  O314  1  0.73382609  0.74270258  0.86932389  1
  O  O315  1  0.00800300  0.12045333  0.00423351  1
  O  O316  1  0.00705946  0.13036861  0.51445783  1
  O  O317  1  -0.00041486  0.61728098  0.00846773  1
  O  O318  1  0.00546549  0.62106753  0.50042843  1
  O  O319  1  0.48855462  0.10872891  -0.00292467  1
  O  O320  1  0.50764031  0.11796545  0.51270706  1
  O  O321  1  0.49063607  0.60916298  -0.00692175  1
  O  O322  1  0.50105882  0.61355978  0.49775289  1
  O  O323  1  0.50442698  0.38008812  0.48853109  1
  O  O324  1  0.48230148  0.38508833  0.99085295  1
  O  O325  1  0.50800886  0.88932145  0.50623698  1
  O  O326  1  0.48915168  0.87949602  0.98531794  1
  O  O327  1  0.99382162  0.37921914  0.49251313  1
  O  O328  1  0.98979564  0.38173061  0.99400261  1
  O  O329  1  0.98871970  0.87214496  0.49599018  1
  O  O330  1  1.00254166  0.88605063  0.98869729  1
  O  O331  1  0.49643654  0.49588351  0.38557698  1
  O  O332  1  0.49275534  0.49272772  0.88132860  1
  O  O333  1  0.50493162  0.99918921  0.39402918  1
  O  O334  1  0.48562152  0.99091144  0.87634650  1
  O  O335  1  1.00765685  0.48674677  0.37876685  1
  O  O336  1  0.99507139  0.49173722  0.88153238  1
  O  O337  1  0.98761095  0.99229369  0.37275911  1
  O  O338  1  0.99934260  0.99380669  0.88119789  1
  O  O339  1  0.00687723  0.00802647  0.11719944  1
  O  O340  1  -0.00281367  0.01034692  0.62277586  1
  O  O341  1  0.00070235  0.51085286  0.11652544  1
  O  O342  1  0.00601586  0.50559917  0.61592717  1
  O  O343  1  0.48629334  -0.00603045  0.10805750  1
  O  O344  1  0.50209674  0.00611842  0.61903050  1
  O  O345  1  0.51282967  0.49542052  0.11775903  1
  O  O346  1  0.50493512  0.49690529  0.61161044  1
  O  O347  1  0.25296161  0.39141665  0.25849360  1
  O  O348  1  0.24164700  0.38140905  0.73805724  1
  O  O349  1  0.24198106  0.88197697  0.24182210  1
  O  O350  1  0.24707306  0.89130677  0.74244398  1
  O  O351  1  0.74103476  0.37058245  0.24361629  1
  O  O352  1  0.74306075  0.38260653  0.74456697  1
  O  O353  1  0.75437896  0.89038516  0.25150787  1
  O  O354  1  0.74235236  0.87319819  0.74515825  1
  O  O355  1  0.23960433  0.10722020  0.24982009  1
  O  O356  1  0.25812273  0.11138158  0.74059799  1
  O  O357  1  0.25747672  0.61812692  0.26044617  1
  O  O358  1  0.25340459  0.62051835  0.75370082  1
  O  O359  1  0.75738891  0.12405388  0.25640340  1
  O  O360  1  0.75968814  0.12163210  0.75285533  1
  O  O361  1  0.76109638  0.61981008  0.26534531  1
  O  O362  1  0.76229929  0.61864764  0.74979635  1
  O  O363  1  0.36634614  0.11150405  0.38244612  1
  O  O364  1  0.37671049  0.11893861  0.86338987  1
  O  O365  1  0.36985594  0.61694798  0.36840554  1
  O  O366  1  0.36135343  0.61870826  0.86749430  1
  O  O367  1  0.87375045  0.11994882  0.37167044  1
  O  O368  1  0.88245063  0.12927546  0.86159805  1
  O  O369  1  0.86663435  0.62275143  0.36895321  1
  O  O370  1  0.87529704  0.61833321  0.86646091  1
  O  O371  1  0.12287546  0.38152298  0.12882385  1
  O  O372  1  0.12896843  0.37828883  0.62972973  1
  O  O373  1  0.12680754  0.87879469  0.12875920  1
  O  O374  1  0.14859567  0.86077968  0.62641314  1
  O  O375  1  0.63221972  0.37665680  0.13489088  1
  O  O376  1  0.62867860  0.38167291  0.63065503  1
  O  O377  1  0.63889962  0.88049117  0.09347118  1
  O  O378  1  0.63476527  0.87410273  0.63563188  1
  O  O379  1  0.12072683  0.24896469  0.25996818  1
  O  O380  1  0.12957741  0.26196341  0.75464811  1
  O  O381  1  0.13255036  0.76285788  0.24972763  1
  O  O382  1  0.12328388  0.74219460  0.76240860  1
  O  O383  1  0.61226693  0.26033572  0.25401287  1
  O  O384  1  0.62866406  0.26547002  0.74934066  1
  O  O385  1  0.63035529  0.75938107  0.25624899  1
  O  O386  1  0.61784817  0.75894029  0.75808868  1
  O  O387  1  0.38089890  0.24849634  0.24354756  1
  O  O388  1  0.36557874  0.23878271  0.73991413  1
  O  O389  1  0.37599647  0.74145174  0.23937313  1
  O  O390  1  0.38402034  0.73985412  0.75640681  1
  O  O391  1  0.88059406  0.23859949  0.25254648  1
  O  O392  1  0.87016100  0.24348902  0.73877908  1
  O  O393  1  0.87245018  0.73071662  0.25119067  1
  O  O394  1  0.87657912  0.74180428  0.74491476  1
  O  O395  1  0.38760927  0.50245813  0.49261596  1
  O  O396  1  0.37808666  0.49278769  0.99628507  1
  O  O397  1  0.38935719  0.99978154  0.50809729  1
  O  O398  1  0.37430704  0.99282367  0.98938895  1
  O  O399  1  0.88061904  0.48631903  0.50605385  1
  O  O400  1  0.88379198  0.49639426  0.99555016  1
  O  O401  1  0.86920000  0.99118977  0.49249714  1
  O  O402  1  0.88881162  1.00419651  0.99816140  1
  O  O403  1  0.11751514  0.00801430  0.00222549  1
  O  O404  1  0.12921997  0.01238984  0.49212987  1
  O  O405  1  0.11212441  0.50116736  -0.00338826  1
  O  O406  1  0.12143282  0.51152102  0.50232558  1
  O  O407  1  0.60211022  0.00328950  -0.00515808  1
  O  O408  1  0.62345680  0.01119571  0.50628379  1
  O  O409  1  0.61611638  0.49454186  0.01353596  1
  O  O410  1  0.61126824  0.49852954  0.50919482  1
  O  O411  1  0.37605159  0.37987181  0.11816497  1
  O  O412  1  0.36496371  0.36611931  0.63025226  1
  O  O413  1  0.36632167  0.86320048  0.11783245  1
  O  O414  1  0.35245015  0.86830733  0.63477983  1
  O  O415  1  0.87026757  0.37801497  0.11792756  1
  O  O416  1  0.86987788  0.36887027  0.61970862  1
  O  O417  1  0.88569884  0.86983636  0.11806203  1
  O  O418  1  0.87104866  0.87162449  0.62076633  1
  O  O419  1  0.12487271  0.13502930  0.38292656  1
  O  O420  1  0.11660451  0.13822631  0.88206282  1
  O  O421  1  0.13391941  0.62711851  0.37948656  1
  O  O422  1  0.13566276  0.62835252  0.87464736  1
  O  O423  1  0.63264239  0.12659810  0.38697884  1
  O  O424  1  0.62118324  0.13238960  0.88489716  1
  O  O425  1  0.64138663  0.63531762  0.36783303  1
  O  O426  1  0.62268563  0.63611114  0.86536328  1
