# generated using pymatgen
data_V85Zn86O256
_symmetry_space_group_name_H-M   'P 1'
_cell_length_a   16.96892764
_cell_length_b   16.96782358
_cell_length_c   16.97106096
_cell_angle_alpha   89.94105675
_cell_angle_beta   89.93025143
_cell_angle_gamma   90.01476351
_symmetry_Int_Tables_number   1
_chemical_formula_structural   V85Zn86O256
_chemical_formula_sum   'V85 Zn86 O256'
_cell_volume   4886.39943594
_cell_formula_units_Z   1
loop_
 _symmetry_equiv_pos_site_id
 _symmetry_equiv_pos_as_xyz
  1  'x, y, z'
loop_
 _atom_site_type_symbol
 _atom_site_label
 _atom_site_symmetry_multiplicity
 _atom_site_fract_x
 _atom_site_fract_y
 _atom_site_fract_z
 _atom_site_occupancy
  V  V0  1  0.62049522  0.62125924  0.49873291  1
  V  V1  1  0.63459444  0.38018796  0.74644795  1
  V  V2  1  0.49877060  0.38480466  0.37634108  1
  V  V3  1  0.37741265  0.62610556  0.23868106  1
  V  V4  1  0.85683359  0.50234911  0.85689449  1
  V  V5  1  0.49802580  0.12529811  0.12142481  1
  V  V6  1  0.87429068  0.13297071  0.24463435  1
  V  V7  1  0.25043015  0.62597538  0.36965214  1
  V  V8  1  0.37124231  -0.00898763  0.88030442  1
  V  V9  1  0.87531037  0.25590712  0.62896509  1
  V  V10  1  0.74828267  -0.00643272  0.75208169  1
  V  V11  1  0.19802678  0.55755780  0.80653873  1
  V  V12  1  0.75534542  0.49936681  0.24920896  1
  V  V13  1  0.38063342  0.24741504  0.12323989  1
  V  V14  1  0.23817584  0.12456609  0.87960138  1
  V  V15  1  0.00044850  0.36873203  0.37249200  1
  V  V16  1  0.13599495  0.12365791  0.50004155  1
  V  V17  1  0.62154038  0.37375872  0.25022592  1
  V  V18  1  0.51046553  0.87307535  0.87719100  1
  V  V19  1  0.74780773  0.00121154  0.25002375  1
  V  V20  1  0.13084528  0.24542471  0.37747872  1
  V  V21  1  0.12399703  0.87708868  0.23899153  1
  V  V22  1  0.37822775  0.50348934  0.37421697  1
  V  V23  1  0.37732070  0.62786199  0.75606476  1
  V  V24  1  0.74739786  0.87414332  0.13119124  1
  V  V25  1  0.86976351  0.87650290  0.50414894  1
  V  V26  1  0.26006867  0.25664430  0.50728233  1
  V  V27  1  0.87168935  0.00368612  0.37436019  1
  V  V28  1  0.88093568  -0.00107066  0.87656013  1
  V  V29  1  0.04920302  0.18968545  0.19539209  1
  V  V30  1  0.00397522  0.01503670  0.01064074  1
  V  V31  1  0.62599611  0.50027476  0.12352459  1
  V  V32  1  0.75204981  0.37502368  0.12495960  1
  V  V33  1  0.62741131  0.25690242  0.37930580  1
  V  V34  1  0.25431022  0.75576036  0.49576808  1
  V  V35  1  0.87709516  0.12485279  0.74902600  1
  V  V36  1  0.13373244  0.49939604  0.62465738  1
  V  V37  1  0.49749805  0.62587352  0.61488572  1
  V  V38  1  0.12455583  0.62690912  0.49887175  1
  V  V39  1  0.37308526  0.12853394  0.75348510  1
  V  V40  1  0.11482402  0.86908387  0.75240081  1
  V  V41  1  0.74919726  0.74488624  -0.00533093  1
  V  V42  1  0.00661642  0.24910478  0.75572749  1
  V  V43  1  0.00336236  0.49688781  0.50347885  1
  V  V44  1  0.26547285  0.87304125  0.11207612  1
  V  V45  1  0.37536269  0.75602725  0.62765591  1
  V  V46  1  0.43988906  0.44664494  0.54511016  1
  V  V47  1  0.87984686  0.50966659  0.37297562  1
  V  V48  1  0.49351260  0.12736565  0.62658486  1
  V  V49  1  0.74976922  0.12240163  0.87449467  1
  V  V50  1  0.25102771  0.87932329  0.62721257  1
  V  V51  1  0.25149216  0.73307164  -0.00516764  1
  V  V52  1  0.74243469  0.87189250  0.62654337  1
  V  V53  1  0.74942571  0.24939504  0.00148019  1
  V  V54  1  0.25072693  0.37413108  0.12710784  1
  V  V55  1  0.63932012  0.49738690  0.62318639  1
  V  V56  1  0.86544215  0.64509743  0.73936678  1
  V  V57  1  0.75391000  0.62319099  0.37105196  1
  V  V58  1  0.87568849  0.37575665  0.50287509  1
  V  V59  1  0.87702215  0.38005956  -0.00387777  1
  V  V60  1  0.23919768  0.24263177  -0.00058911  1
  V  V61  1  0.62597566  -0.00279329  0.12466838  1
  V  V62  1  -0.00056047  0.87381240  0.37278128  1
  V  V63  1  0.49932177  0.50399460  -0.00209906  1
  V  V64  1  -0.00074355  0.00430535  0.50137693  1
  V  V65  1  0.47757309  0.22883522  0.27751938  1
  V  V66  1  0.74619264  0.75145134  0.50026207  1
  V  V67  1  0.00223128  0.38093955  0.87407116  1
  V  V68  1  0.75235221  0.25588947  0.50784095  1
  V  V69  1  0.62166485  0.00059462  0.63194617  1
  V  V70  1  0.11917881  0.50386168  0.11519975  1
  V  V71  1  0.62599418  0.12362278  -0.00191592  1
  V  V72  1  0.13646183  0.36745573  0.75279453  1
  V  V73  1  -0.00383554  0.73866846  0.25142338  1
  V  V74  1  0.26670779  0.00195855  0.26170267  1
  V  V75  1  0.37418785  0.50271225  0.87280937  1
  V  V76  1  0.74939382  0.12990024  0.37590822  1
  V  V77  1  0.62169539  0.25050486  0.87144887  1
  V  V78  1  0.62489397  0.75123894  0.36296146  1
  V  V79  1  0.49965861  0.75400191  0.23879106  1
  V  V80  1  0.12220512  0.37645156  0.24961996  1
  V  V81  1  0.87255002  0.73888308  0.13221761  1
  V  V82  1  0.50938897  0.75493893  0.74943668  1
  V  V83  1  0.37468885  0.37213744  -0.00238908  1
  V  V84  1  0.87930164  0.87500569  0.00553312  1
  Zn  Zn85  1  -0.00170311  0.64343198  0.63297360  1
  Zn  Zn86  1  0.49635072  0.25269150  0.74572966  1
  Zn  Zn87  1  0.26617911  0.37702353  0.62712900  1
  Zn  Zn88  1  0.50168815  -0.00613051  0.49125002  1
  Zn  Zn89  1  0.57409255  0.91799198  0.30052146  1
  Zn  Zn90  1  0.50123980  0.37374963  0.87448189  1
  Zn  Zn91  1  0.12408160  0.74983408  0.37022723  1
  Zn  Zn92  1  0.01132407  0.62749282  0.11190120  1
  Zn  Zn93  1  0.63741847  0.61631854  -0.01100795  1
  Zn  Zn94  1  0.63281026  0.74380385  0.86767501  1
  Zn  Zn95  1  0.24686448  -0.00098567  0.75097868  1
  Zn  Zn96  1  0.12402355  0.00037933  0.62631189  1
  Zn  Zn97  1  0.88081237  0.25160773  0.12645127  1
  Zn  Zn98  1  0.24942173  0.50223012  0.24718685  1
  Zn  Zn99  1  0.62676202  0.12807517  0.50744709  1
  Zn  Zn100  1  0.37778473  0.90248391  0.46304803  1
  Zn  Zn101  1  0.12907375  0.01222473  0.12631582  1
  Zn  Zn102  1  -0.00317669  0.86047895  0.87322686  1
  Zn  Zn103  1  0.50066103  0.62595933  0.11965511  1
  Zn  Zn104  1  0.00280506  0.12743001  0.62458408  1
  Zn  Zn105  1  0.49616712  -0.00762021  0.00151402  1
  Zn  Zn106  1  0.12264272  0.74051371  0.88175301  1
  Zn  Zn107  1  0.21426431  0.18395033  0.19733371  1
  Zn  Zn108  1  0.19028331  0.18556136  0.68496536  1
  Zn  Zn109  1  0.18824953  0.69309163  0.18117013  1
  Zn  Zn110  1  0.18283520  0.69551848  0.68166373  1
  Zn  Zn111  1  0.68141528  0.18887610  0.19045127  1
  Zn  Zn112  1  0.68802393  0.18727146  0.69029381  1
  Zn  Zn113  1  0.69107992  0.68168127  0.18393119  1
  Zn  Zn114  1  0.68873089  0.68315049  0.68610418  1
  Zn  Zn115  1  0.31073309  0.31734566  0.31901706  1
  Zn  Zn116  1  0.31146343  0.30709735  0.81634807  1
  Zn  Zn117  1  0.31063382  0.81505251  0.30106285  1
  Zn  Zn118  1  0.30620621  0.81066402  0.81658866  1
  Zn  Zn119  1  0.81499761  0.31539591  0.31310942  1
  Zn  Zn120  1  0.81093205  0.31264965  0.81241805  1
  Zn  Zn121  1  0.81235285  0.81430217  0.31391078  1
  Zn  Zn122  1  0.81552551  0.81522994  0.81372271  1
  Zn  Zn123  1  0.19240203  0.43606322  0.43730408  1
  Zn  Zn124  1  0.18478002  0.42855500  0.94196486  1
  Zn  Zn125  1  0.18396970  0.93480059  0.43610887  1
  Zn  Zn126  1  0.18015686  0.93894537  0.93743830  1
  Zn  Zn127  1  0.68897638  0.43975431  0.44319576  1
  Zn  Zn128  1  0.68861602  0.43530506  0.93654582  1
  Zn  Zn129  1  0.67314428  0.94654604  0.43675088  1
  Zn  Zn130  1  0.68896086  0.93322520  0.94093253  1
  Zn  Zn131  1  0.31131427  0.05808187  0.06401613  1
  Zn  Zn132  1  0.31809158  0.05774178  0.55603776  1
  Zn  Zn133  1  0.30786912  0.55896236  0.06144376  1
  Zn  Zn134  1  0.30773028  0.57337531  0.56632466  1
  Zn  Zn135  1  0.81467838  0.06336722  0.06342863  1
  Zn  Zn136  1  0.81138341  0.06649073  0.56531850  1
  Zn  Zn137  1  0.84702540  0.57717906  0.04459684  1
  Zn  Zn138  1  0.81414366  0.56673781  0.56175949  1
  Zn  Zn139  1  0.43870722  0.43645547  0.18902068  1
  Zn  Zn140  1  0.44501614  0.44084801  0.70671578  1
  Zn  Zn141  1  0.43528921  0.93754862  0.18051068  1
  Zn  Zn142  1  0.43590858  0.93893823  0.69196009  1
  Zn  Zn143  1  0.93919066  0.43619339  0.18869126  1
  Zn  Zn144  1  0.94481421  0.43815882  0.68723165  1
  Zn  Zn145  1  0.93621129  0.93887367  0.18790537  1
  Zn  Zn146  1  0.93419995  0.93457192  0.68445831  1
  Zn  Zn147  1  0.07058420  0.05524227  0.31829408  1
  Zn  Zn148  1  0.06171615  0.05536059  0.81034044  1
  Zn  Zn149  1  0.06415422  0.55925484  0.31118958  1
  Zn  Zn150  1  0.02424406  0.57952025  0.82992863  1
  Zn  Zn151  1  0.54129245  0.08107866  0.32670961  1
  Zn  Zn152  1  0.55985611  0.05956175  0.81081695  1
  Zn  Zn153  1  0.56381648  0.56657667  0.30930348  1
  Zn  Zn154  1  0.56615130  0.56500326  0.81135420  1
  Zn  Zn155  1  0.43485592  0.17660114  0.44785935  1
  Zn  Zn156  1  0.43488434  0.18229612  0.93675670  1
  Zn  Zn157  1  0.42320099  0.72263641  0.41898958  1
  Zn  Zn158  1  0.43300240  0.69262563  0.93960620  1
  Zn  Zn159  1  0.93984455  0.18740155  0.43641140  1
  Zn  Zn160  1  0.93650259  0.19219138  0.93650234  1
  Zn  Zn161  1  0.94808812  0.70166017  0.46514274  1
  Zn  Zn162  1  0.93792517  0.68559444  0.93747866  1
  Zn  Zn163  1  0.06271207  0.32126478  0.05808353  1
  Zn  Zn164  1  0.06702742  0.31149599  0.56747815  1
  Zn  Zn165  1  0.06229888  0.80909284  0.05889021  1
  Zn  Zn166  1  0.06478343  0.81490809  0.56304715  1
  Zn  Zn167  1  0.56206864  0.31456011  0.05927180  1
  Zn  Zn168  1  0.56504872  0.30900577  0.56891095  1
  Zn  Zn169  1  0.56398716  0.81373679  0.05874054  1
  Zn  Zn170  1  0.56047358  0.81548730  0.55667718  1
  O  O171  1  0.12065329  0.13258388  0.14507988  1
  O  O172  1  0.12188360  0.12107258  0.61562133  1
  O  O173  1  0.12633584  0.60868537  0.13064168  1
  O  O174  1  0.12196373  0.61989560  0.61542172  1
  O  O175  1  0.62525894  0.11881384  0.11325316  1
  O  O176  1  0.61471565  0.11883792  0.63214724  1
  O  O177  1  0.62821035  0.60843593  0.11734633  1
  O  O178  1  0.61509176  0.61535540  0.62108764  1
  O  O179  1  0.38215891  0.39298721  0.37422136  1
  O  O180  1  0.37399004  0.38174589  0.88253598  1
  O  O181  1  0.37823516  0.82454717  0.38624349  1
  O  O182  1  0.37830695  0.88878160  0.86817670  1
  O  O183  1  0.88499272  0.38065038  0.38256206  1
  O  O184  1  0.87874329  0.37732087  0.87826374  1
  O  O185  1  0.87854419  0.88456572  0.38293142  1
  O  O186  1  0.87783618  0.88331706  0.88508978  1
  O  O187  1  0.25259475  -0.01899980  0.35992862  1
  O  O188  1  0.25778841  0.00668839  0.87661583  1
  O  O189  1  0.25859723  0.51062157  0.37335432  1
  O  O190  1  0.25205795  0.50076021  0.87452506  1
  O  O191  1  0.75056688  0.00944644  0.37016930  1
  O  O192  1  0.75961903  -0.00029670  0.87040851  1
  O  O193  1  0.75966669  0.50482211  0.37339928  1
  O  O194  1  0.75827256  0.49415691  0.86854137  1
  O  O195  1  0.24071546  0.48975414  0.12719297  1
  O  O196  1  0.23823968  0.49759590  0.61889591  1
  O  O197  1  0.24850480  0.98993151  0.13326832  1
  O  O198  1  0.25031582  0.98845335  0.62284244  1
  O  O199  1  0.74425724  0.48672152  0.12756062  1
  O  O200  1  0.73827503  0.50017894  0.61726938  1
  O  O201  1  0.74445037  0.99452854  0.12839522  1
  O  O202  1  0.74682123  0.99598096  0.63589312  1
  O  O203  1  0.01177939  0.37420730  0.25869427  1
  O  O204  1  0.01219079  0.36809425  0.75538293  1
  O  O205  1  0.00471191  0.87309728  0.25787885  1
  O  O206  1  0.01055463  0.87745088  0.74709698  1
  O  O207  1  0.50357586  0.36850022  0.26159360  1
  O  O208  1  0.51205414  0.36762873  0.75737693  1
  O  O209  1  0.50008961  0.86025053  0.23998457  1
  O  O210  1  0.49540658  0.86563334  0.76244631  1
  O  O211  1  0.52454094  0.13767677  0.22455803  1
  O  O212  1  0.49269322  0.12681378  0.74396888  1
  O  O213  1  0.49440296  0.63155433  0.24339570  1
  O  O214  1  0.49136030  0.63158631  0.74055191  1
  O  O215  1  0.99325837  0.12466294  0.25676149  1
  O  O216  1  0.99516323  0.13182053  0.75116531  1
  O  O217  1  1.00290096  0.63710606  0.25182441  1
  O  O218  1  0.97742647  0.62151064  0.74138304  1
  O  O219  1  0.37152067  0.25640234  0.00521601  1
  O  O220  1  0.35806806  0.24465815  0.49228704  1
  O  O221  1  0.35355851  0.74968086  -0.00429173  1
  O  O222  1  0.35761275  0.73097247  0.51532180  1
  O  O223  1  0.86614009  0.25907346  0.00228235  1
  O  O224  1  0.87205644  0.25438263  0.50795456  1
  O  O225  1  0.86458979  0.75945343  0.01163204  1
  O  O226  1  0.85247955  0.76473326  0.48475330  1
  O  O227  1  0.13159813  0.24325841  0.49524647  1
  O  O228  1  0.14082677  0.25498671  1.00724806  1
  O  O229  1  0.13889700  0.74275819  0.49459343  1
  O  O230  1  0.13949365  0.75360398  1.00012181  1
  O  O231  1  0.63622927  0.25270396  0.49764515  1
  O  O232  1  0.63055168  0.24548375  0.99280989  1
  O  O233  1  0.63069033  0.74413403  0.48742311  1
  O  O234  1  0.64292757  0.74932795  1.00250716  1
  O  O235  1  0.49008263  0.24658986  0.12219199  1
  O  O236  1  0.50200707  0.23233820  0.62692334  1
  O  O237  1  0.51335129  0.74337078  0.13505582  1
  O  O238  1  0.49533650  0.74480590  0.63260256  1
  O  O239  1  1.00071610  0.25130833  0.12778845  1
  O  O240  1  0.99415311  0.24959563  0.63700071  1
  O  O241  1  0.99063601  0.74617950  0.13295146  1
  O  O242  1  0.99065020  0.73517884  0.56887054  1
  O  O243  1  0.01150664  0.26297771  0.38326371  1
  O  O244  1  -0.00695915  0.26000555  0.86149208  1
  O  O245  1  -0.00222589  0.75999861  0.37060941  1
  O  O246  1  0.00863488  0.74699522  0.88100882  1
  O  O247  1  0.50904092  0.26981004  0.38283876  1
  O  O248  1  0.51379499  0.24789338  0.87889406  1
  O  O249  1  0.51902891  0.74032966  0.35649951  1
  O  O250  1  0.49858749  0.76076254  0.86810570  1
  O  O251  1  0.23981636  0.13382223  0.50495097  1
  O  O252  1  0.25250888  0.12850746  0.98970995  1
  O  O253  1  0.23874137  0.62961164  0.49161592  1
  O  O254  1  0.24782918  0.63313121  1.00219561  1
  O  O255  1  0.75146617  0.13878421  0.49399488  1
  O  O256  1  0.74657663  0.12958161  0.99374199  1
  O  O257  1  0.74512624  0.63328427  0.49020328  1
  O  O258  1  0.75646134  0.64181381  1.00374094  1
  O  O259  1  0.25981974  0.36606971  0.00575184  1
  O  O260  1  0.24780897  0.36153396  0.50430976  1
  O  O261  1  0.24459735  0.88215393  0.01259901  1
  O  O262  1  0.25247813  0.86812046  0.50503478  1
  O  O263  1  0.75269314  0.36732293  0.00801349  1
  O  O264  1  0.75941830  0.36356085  0.49590400  1
  O  O265  1  0.76045141  0.87108432  0.01108280  1
  O  O266  1  0.75078762  0.87285032  0.50504646  1
  O  O267  1  0.12988750  0.48905634  0.24619997  1
  O  O268  1  0.13650529  0.49762197  0.74668664  1
  O  O269  1  0.13241569  0.99054118  0.24783788  1
  O  O270  1  0.12701355  0.98807613  0.74423097  1
  O  O271  1  0.63075411  0.49393540  0.24178788  1
  O  O272  1  0.61839727  0.48735626  0.74099497  1
  O  O273  1  0.63078995  1.00112849  0.23446693  1
  O  O274  1  0.63801401  1.00256065  0.74569096  1
  O  O275  1  0.36667351  -0.01252447  0.25398863  1
  O  O276  1  0.37071397  0.00980049  0.76278530  1
  O  O277  1  0.37328554  0.50677756  0.25767498  1
  O  O278  1  0.37352373  0.50794283  0.76494960  1
  O  O279  1  0.86819217  0.00935755  0.25586915  1
  O  O280  1  0.87111851  0.00310168  0.75826925  1
  O  O281  1  0.86874372  0.49122691  0.26232145  1
  O  O282  1  0.87018512  0.48763943  0.75724055  1
  O  O283  1  0.12064831  0.36973567  0.36814031  1
  O  O284  1  0.11631996  0.37983928  0.86507743  1
  O  O285  1  0.11195321  0.87259917  0.36739376  1
  O  O286  1  0.11880300  0.87940158  0.85997445  1
  O  O287  1  0.62057468  0.37310573  0.37290428  1
  O  O288  1  0.62512438  0.36698473  0.86617323  1
  O  O289  1  0.64158210  0.85308846  0.37071628  1
  O  O290  1  0.61364877  0.87140808  0.87540535  1
  O  O291  1  0.38544572  0.13285895  0.12069286  1
  O  O292  1  0.38738176  0.11643486  0.63491071  1
  O  O293  1  0.37649025  0.61416111  0.13620860  1
  O  O294  1  0.37980127  0.62981762  0.63783388  1
  O  O295  1  0.86969699  0.12917220  0.13961025  1
  O  O296  1  0.87910823  0.13611851  0.63178171  1
  O  O297  1  0.85669056  0.64066111  0.14362203  1
  O  O298  1  0.87618981  0.62429799  0.63462919  1
  O  O299  1  0.26436874  0.25276863  0.12058849  1
  O  O300  1  0.25026824  0.25445696  0.61191206  1
  O  O301  1  0.24606595  0.76521341  0.11344378  1
  O  O302  1  0.25249783  0.76145558  0.61642751  1
  O  O303  1  0.74680239  0.26264043  0.12358447  1
  O  O304  1  0.76033236  0.24561718  0.61819135  1
  O  O305  1  0.75272875  0.75906597  0.12126326  1
  O  O306  1  0.73920678  0.75937712  0.61208329  1
  O  O307  1  0.23733691  0.25606485  0.38472599  1
  O  O308  1  0.25352009  0.23332913  0.88553344  1
  O  O309  1  0.24571975  0.73801891  0.37877405  1
  O  O310  1  0.24039442  0.75095378  0.88778533  1
  O  O311  1  0.74399885  0.25085559  0.38236659  1
  O  O312  1  0.73892089  0.24319807  0.87874573  1
  O  O313  1  0.74306264  0.73955431  0.37401817  1
  O  O314  1  0.75080187  0.76123961  0.89189197  1
  O  O315  1  -0.00834110  0.11327549  -0.00136349  1
  O  O316  1  0.00786630  0.11808648  0.49992240  1
  O  O317  1  -0.04627285  0.61235854  0.01762731  1
  O  O318  1  0.01584775  0.60627572  0.48359215  1
  O  O319  1  0.50778106  0.12264310  0.00792995  1
  O  O320  1  0.50664711  0.11995283  0.51673401  1
  O  O321  1  0.49562191  0.61195421  0.00125281  1
  O  O322  1  0.50111590  0.63686475  0.51255363  1
  O  O323  1  0.50322155  0.37833382  0.49617003  1
  O  O324  1  0.49003252  0.38455386  0.99743884  1
  O  O325  1  0.48578556  0.88197413  0.51235851  1
  O  O326  1  0.49971201  0.87338435  0.98346283  1
  O  O327  1  1.00044308  0.38305755  0.49469181  1
  O  O328  1  0.98861907  0.36766753  0.98752035  1
  O  O329  1  0.99010268  0.88398680  0.49050818  1
  O  O330  1  0.98703631  0.88282850  1.00303719  1
  O  O331  1  0.49656320  0.49386763  0.37277513  1
  O  O332  1  0.49047000  0.49718987  0.88156463  1
  O  O333  1  0.55903749  0.98955574  0.38647767  1
  O  O334  1  0.49252376  0.98770302  0.87426536  1
  O  O335  1  0.99604561  0.48840222  0.37880045  1
  O  O336  1  0.98404192  0.48421453  0.87333218  1
  O  O337  1  0.99390892  0.99304610  0.38380525  1
  O  O338  1  0.98880950  0.99876205  0.88450831  1
  O  O339  1  -0.00200036  0.00358572  0.11393447  1
  O  O340  1  -0.00296333  0.00050818  0.61011498  1
  O  O341  1  0.01599631  0.49914897  0.13228621  1
  O  O342  1  0.01316767  0.50057696  0.61509472  1
  O  O343  1  0.50755921  0.00694663  0.12170737  1
  O  O344  1  0.50933691  0.00991224  0.63527780  1
  O  O345  1  0.50912351  0.49777093  0.11701908  1
  O  O346  1  0.49792269  0.50698028  0.61798174  1
  O  O347  1  0.23860693  0.37251774  0.24519461  1
  O  O348  1  0.24148427  0.36677291  0.74732482  1
  O  O349  1  0.24165081  0.87451994  0.23434151  1
  O  O350  1  0.23913266  0.87627661  0.74218065  1
  O  O351  1  0.74326760  0.37894510  0.24404121  1
  O  O352  1  0.73333935  0.36839884  0.74879716  1
  O  O353  1  0.75435343  0.88324693  0.23876159  1
  O  O354  1  0.75721424  0.88486664  0.74089971  1
  O  O355  1  0.25750625  0.10302359  0.25826582  1
  O  O356  1  0.25533982  0.12314435  0.76065143  1
  O  O357  1  0.25776267  0.62828141  0.25487673  1
  O  O358  1  0.25263825  0.62347664  0.74786650  1
  O  O359  1  0.75462136  0.12296819  0.25688562  1
  O  O360  1  0.75739396  0.11516457  0.75587195  1
  O  O361  1  0.74536340  0.61562599  0.26436277  1
  O  O362  1  0.76455634  0.62537083  0.74515843  1
  O  O363  1  0.44247684  0.14523769  0.34088172  1
  O  O364  1  0.36956820  0.11395790  0.86980083  1
  O  O365  1  0.37021367  0.62085592  0.36395599  1
  O  O366  1  0.37817624  0.61922851  0.86396377  1
  O  O367  1  0.86937596  0.12294245  0.36760018  1
  O  O368  1  0.86862120  0.11815783  0.86993747  1
  O  O369  1  0.87090221  0.61299529  0.38462968  1
  O  O370  1  0.87587447  0.60831453  0.85719798  1
  O  O371  1  0.12861435  0.38103608  0.13352738  1
  O  O372  1  0.12608888  0.38441232  0.63701708  1
  O  O373  1  0.11949027  0.87936276  0.13515934  1
  O  O374  1  0.13070544  0.87623754  0.63156220  1
  O  O375  1  0.62968118  0.38171402  0.12850771  1
  O  O376  1  0.61996376  0.38298929  0.63691994  1
  O  O377  1  0.63488332  0.88534366  0.11796059  1
  O  O378  1  0.63619838  0.88313213  0.62393640  1
  O  O379  1  0.12405046  0.25021243  0.25569367  1
  O  O380  1  0.11813152  0.25598284  0.74546348  1
  O  O381  1  0.11483939  0.75852546  0.24945196  1
  O  O382  1  0.12595089  0.76523267  0.75109011  1
  O  O383  1  0.61698706  0.25751629  0.26324262  1
  O  O384  1  0.62311996  0.25767202  0.75643920  1
  O  O385  1  0.61997381  0.74165849  0.25569114  1
  O  O386  1  0.61235018  0.74656580  0.74751527  1
  O  O387  1  0.38189751  0.25894641  0.24289572  1
  O  O388  1  0.37822556  0.23441773  0.75824683  1
  O  O389  1  0.39257901  0.74103320  0.24596616  1
  O  O390  1  0.37911032  0.74315183  0.74700648  1
  O  O391  1  0.87437186  0.24133063  0.24946943  1
  O  O392  1  0.88043511  0.24677284  0.74391587  1
  O  O393  1  0.88578058  0.76183875  0.24310160  1
  O  O394  1  0.87150779  0.74496631  0.74602685  1
  O  O395  1  0.37536507  0.51198406  0.49181207  1
  O  O396  1  0.37764806  0.49304330  0.99136210  1
  O  O397  1  0.38559086  1.01255141  0.48112059  1
  O  O398  1  0.37896195  1.00594643  0.98381842  1
  O  O399  1  0.88538978  0.49553141  0.49564143  1
  O  O400  1  0.86026244  0.48167630  0.98348188  1
  O  O401  1  0.87825338  0.99800644  0.49379298  1
  O  O402  1  0.87989124  0.99451446  0.99518781  1
  O  O403  1  0.10763718  0.00088756  0.00504675  1
  O  O404  1  0.11719202  0.00701241  0.49900016  1
  O  O405  1  0.12491816  0.49171174  0.01640752  1
  O  O406  1  0.12267013  0.50363335  0.50573496  1
  O  O407  1  0.62442234  0.00524356  0.00762813  1
  O  O408  1  0.63315280  0.00884375  0.52470276  1
  O  O409  1  0.61628622  0.49625366  0.00488390  1
  O  O410  1  0.62522629  0.50850396  0.50854281  1
  O  O411  1  0.37257431  0.36948299  0.11680668  1
  O  O412  1  0.38359590  0.39413972  0.61816513  1
  O  O413  1  0.36429330  0.87524584  0.11687038  1
  O  O414  1  0.36380208  0.86766605  0.63576266  1
  O  O415  1  0.86846200  0.37461802  0.11696851  1
  O  O416  1  0.88317176  0.36338826  0.61915279  1
  O  O417  1  0.86714370  0.87102147  0.12073337  1
  O  O418  1  0.86220818  0.88154905  0.60992981  1
  O  O419  1  0.12014157  0.13538133  0.38468916  1
  O  O420  1  0.14006383  0.11642470  0.87168650  1
  O  O421  1  0.13479637  0.62385319  0.37877297  1
  O  O422  1  0.13009231  0.61171356  0.86014143  1
  O  O423  1  0.62963736  0.14652756  0.38057499  1
  O  O424  1  0.62980498  0.12883951  0.87875346  1
  O  O425  1  0.63397335  0.63017830  0.37946521  1
  O  O426  1  0.62114330  0.63138749  0.87893476  1
