# generated using pymatgen
data_V85Zn86O256
_symmetry_space_group_name_H-M   'P 1'
_cell_length_a   16.92852322
_cell_length_b   16.94571948
_cell_length_c   16.93469286
_cell_angle_alpha   90.02057090
_cell_angle_beta   89.96187543
_cell_angle_gamma   89.96050812
_symmetry_Int_Tables_number   1
_chemical_formula_structural   V85Zn86O256
_chemical_formula_sum   'V85 Zn86 O256'
_cell_volume   4857.98515424
_cell_formula_units_Z   1
loop_
 _symmetry_equiv_pos_site_id
 _symmetry_equiv_pos_as_xyz
  1  'x, y, z'
loop_
 _atom_site_type_symbol
 _atom_site_label
 _atom_site_symmetry_multiplicity
 _atom_site_fract_x
 _atom_site_fract_y
 _atom_site_fract_z
 _atom_site_occupancy
  V  V0  1  0.00090004  0.87550443  0.87752371  1
  V  V1  1  0.50198636  -0.00027295  0.50054370  1
  V  V2  1  0.74498371  0.24879030  0.00146497  1
  V  V3  1  0.37689052  0.73558605  0.13105937  1
  V  V4  1  0.37710492  -0.00095241  0.37556446  1
  V  V5  1  0.75353119  0.87508208  0.62717833  1
  V  V6  1  -0.00288402  -0.00385680  0.49082290  1
  V  V7  1  0.36956297  0.87566718  0.50400763  1
  V  V8  1  0.37793214  0.12420058  0.25303239  1
  V  V9  1  0.88544895  0.37026961  0.49085304  1
  V  V10  1  0.62149214  0.00830988  0.10936409  1
  V  V11  1  0.37966259  0.86938320  0.00235381  1
  V  V12  1  0.24515880  0.50239945  0.74994139  1
  V  V13  1  0.12236779  0.37437657  0.75058700  1
  V  V14  1  0.12239886  0.25692096  0.37833416  1
  V  V15  1  0.25823209  -0.00086658  0.75196628  1
  V  V16  1  0.87241857  0.25796883  0.11831901  1
  V  V17  1  0.25071643  0.12750449  0.37706684  1
  V  V18  1  0.12030694  0.86664892  0.26474124  1
  V  V19  1  0.12377638  0.37544866  0.25276924  1
  V  V20  1  0.25298801  0.37202846  0.62511035  1
  V  V21  1  0.87241229  0.87765411  0.48712561  1
  V  V22  1  0.87065243  0.00001256  0.87352083  1
  V  V23  1  0.36656604  0.13188389  0.74246902  1
  V  V24  1  -0.00715566  0.62823679  0.12723385  1
  V  V25  1  0.00010091  0.74773886  0.74934679  1
  V  V26  1  0.74771251  0.50273448  0.25158485  1
  V  V27  1  0.25157469  0.37755027  0.12374245  1
  V  V28  1  0.62843974  0.24716956  0.37582559  1
  V  V29  1  0.63905959  0.74783454  0.37773864  1
  V  V30  1  0.12077452  0.50155025  0.12324832  1
  V  V31  1  0.00151714  0.51204563  0.49390612  1
  V  V32  1  0.50197437  0.87119555  0.37373821  1
  V  V33  1  0.62730053  0.49945700  0.62074987  1
  V  V34  1  0.36979706  0.75467576  0.62485384  1
  V  V35  1  0.12335627  0.12469796  0.50250490  1
  V  V36  1  0.87145706  0.75365502  0.12785852  1
  V  V37  1  0.13094591  0.24767565  0.87653030  1
  V  V38  1  0.73977570  0.12013405  0.87791633  1
  V  V39  1  0.87178708  0.62495479  0.25905767  1
  V  V40  1  -0.00210516  0.25622457  0.25198016  1
  V  V41  1  0.49775492  0.13095222  0.62247156  1
  V  V42  1  0.63174685  0.37314168  0.24572256  1
  V  V43  1  0.62878367  0.87650388  0.23851554  1
  V  V44  1  0.50328210  0.62954694  0.61846570  1
  V  V45  1  0.37791976  0.50504295  0.37331868  1
  V  V46  1  0.64561361  0.62941668  0.49582936  1
  V  V47  1  0.86961581  0.87829840  0.00583084  1
  V  V48  1  0.87449099  0.62661963  0.75492855  1
  V  V49  1  0.63105915  0.88035039  0.75389683  1
  V  V50  1  0.50238951  0.75390843  0.74923957  1
  V  V51  1  0.38453031  0.03140980  0.90454618  1
  V  V52  1  0.62854514  0.73582344  0.87701516  1
  V  V53  1  0.75362716  0.11481955  0.37490961  1
  V  V54  1  0.13460799  0.12363711  -0.00216864  1
  V  V55  1  0.86932275  0.11985277  0.75059720  1
  V  V56  1  0.25431863  0.50890160  0.25091978  1
  V  V57  1  0.51747664  0.61471424  0.10929762  1
  V  V58  1  0.12770321  -0.00231749  0.12541370  1
  V  V59  1  0.25076660  -0.00203195  0.25083468  1
  V  V60  1  0.87278546  0.74865665  0.62543401  1
  V  V61  1  0.24609363  0.74566303  0.00240553  1
  V  V62  1  0.39155430  0.37904054  -0.00462298  1
  V  V63  1  0.37593619  0.62475430  0.74953361  1
  V  V64  1  0.37585211  0.25155359  0.12837167  1
  V  V65  1  0.11653878  0.51061393  0.62191409  1
  V  V66  1  0.37826384  0.37288881  0.50772385  1
  V  V67  1  0.25048228  0.87104904  0.12688980  1
  V  V68  1  0.00033912  0.12533885  0.12381568  1
  V  V69  1  0.87464763  0.25057630  0.62599723  1
  V  V70  1  0.13051243  0.87858624  0.75003816  1
  V  V71  1  0.49760124  0.87706739  0.87882761  1
  V  V72  1  0.87524578  0.11627421  0.25089436  1
  V  V73  1  -0.00251834  0.24970437  0.75412849  1
  V  V74  1  0.24679991  0.62816843  0.38646165  1
  V  V75  1  0.87310492  0.49396973  0.87966822  1
  V  V76  1  0.63057749  0.00122824  0.62746119  1
  V  V77  1  0.62602808  0.37094335  0.75180001  1
  V  V78  1  0.24717744  0.62393892  0.87439557  1
  V  V79  1  0.50104908  0.73773997  0.25156442  1
  V  V80  1  0.50132985  0.24617608  0.24890271  1
  V  V81  1  0.75081125  0.50547833  0.74854911  1
  V  V82  1  0.74859972  0.74489690  -0.00265238  1
  V  V83  1  0.50053339  0.37550326  0.37431972  1
  V  V84  1  0.49678912  0.25242749  0.75242422  1
  Zn  Zn85  1  0.25177867  0.25135530  -0.00349465  1
  Zn  Zn86  1  0.62034683  0.24774319  0.87907495  1
  Zn  Zn87  1  0.48853393  0.11089259  0.09417144  1
  Zn  Zn88  1  0.11648626  0.62431849  -0.00076626  1
  Zn  Zn89  1  0.87525077  0.49704490  0.37578850  1
  Zn  Zn90  1  0.38750315  0.50211282  0.88611485  1
  Zn  Zn91  1  0.08306400  0.69611245  0.44061511  1
  Zn  Zn92  1  -0.01596174  0.49630958  0.00748795  1
  Zn  Zn93  1  -0.00064260  0.75130263  0.26957704  1
  Zn  Zn94  1  0.12864028  -0.00123589  0.62700870  1
  Zn  Zn95  1  0.25464217  0.24871239  0.50497559  1
  Zn  Zn96  1  0.71290291  0.40794065  0.08886783  1
  Zn  Zn97  1  0.75267571  0.37433898  0.62075784  1
  Zn  Zn98  1  -0.00141341  0.12049728  0.62616121  1
  Zn  Zn99  1  0.00265848  -0.00026772  0.00029468  1
  Zn  Zn100  1  0.75369348  -0.00559108  0.24395676  1
  Zn  Zn101  1  0.50426640  0.50166420  0.49720995  1
  Zn  Zn102  1  0.12333918  0.75029187  0.87744312  1
  Zn  Zn103  1  0.24257495  0.75564452  0.50345727  1
  Zn  Zn104  1  0.75379328  0.24961049  0.49755464  1
  Zn  Zn105  1  -0.00453497  0.37175531  0.88822234  1
  Zn  Zn106  1  0.62924427  0.12475791  0.50063895  1
  Zn  Zn107  1  0.18864039  0.18785135  0.18860303  1
  Zn  Zn108  1  0.18714499  0.18880264  0.68715515  1
  Zn  Zn109  1  0.18565886  0.68455637  0.19109967  1
  Zn  Zn110  1  0.18211013  0.69320995  0.68270310  1
  Zn  Zn111  1  0.68537273  0.17917330  0.18283205  1
  Zn  Zn112  1  0.69004472  0.18602644  0.68813184  1
  Zn  Zn113  1  0.69021428  0.68843741  0.18583294  1
  Zn  Zn114  1  0.68943594  0.69005960  0.68742584  1
  Zn  Zn115  1  0.31121110  0.31735174  0.31538072  1
  Zn  Zn116  1  0.31374082  0.31364033  0.81148297  1
  Zn  Zn117  1  0.31372437  0.80941150  0.31285734  1
  Zn  Zn118  1  0.31252930  0.81114396  0.81423263  1
  Zn  Zn119  1  0.81249169  0.30790061  0.31068366  1
  Zn  Zn120  1  0.80661774  0.31200507  0.81376089  1
  Zn  Zn121  1  0.81064986  0.81316012  0.30928844  1
  Zn  Zn122  1  0.81140179  0.81535651  0.81365583  1
  Zn  Zn123  1  0.18781149  0.43998788  0.44042519  1
  Zn  Zn124  1  0.18539994  0.43641502  0.93792273  1
  Zn  Zn125  1  0.18824419  0.94079263  0.43985903  1
  Zn  Zn126  1  0.19744393  0.94100307  0.93278293  1
  Zn  Zn127  1  0.69369906  0.43531271  0.43537710  1
  Zn  Zn128  1  0.68358305  0.43935738  0.92540888  1
  Zn  Zn129  1  0.68847224  0.93510640  0.43673915  1
  Zn  Zn130  1  0.68986685  0.93377213  0.93824998  1
  Zn  Zn131  1  0.31708391  0.06449320  0.06369871  1
  Zn  Zn132  1  0.31023267  0.05960858  0.56700290  1
  Zn  Zn133  1  0.31511904  0.56083494  0.06252810  1
  Zn  Zn134  1  0.31520243  0.55658644  0.56532954  1
  Zn  Zn135  1  0.80867289  0.06252149  0.06309094  1
  Zn  Zn136  1  0.81287085  0.06107605  0.56220356  1
  Zn  Zn137  1  0.76813734  0.54889865  0.04674256  1
  Zn  Zn138  1  0.81958462  0.56156921  0.56562767  1
  Zn  Zn139  1  0.44163034  0.44040594  0.18825416  1
  Zn  Zn140  1  0.44498031  0.44830214  0.70738723  1
  Zn  Zn141  1  0.44216637  0.93261071  0.18581179  1
  Zn  Zn142  1  0.43960959  0.94185801  0.68850532  1
  Zn  Zn143  1  0.93157252  0.43831288  0.18755265  1
  Zn  Zn144  1  0.93810628  0.43549633  0.68635414  1
  Zn  Zn145  1  0.94344737  0.93625977  0.18843701  1
  Zn  Zn146  1  0.94271314  0.93960038  0.68619141  1
  Zn  Zn147  1  0.06407484  0.06355522  0.31226040  1
  Zn  Zn148  1  0.06089830  0.06297230  0.81518247  1
  Zn  Zn149  1  0.06113070  0.56261888  0.31069348  1
  Zn  Zn150  1  0.05787228  0.56388219  0.81334180  1
  Zn  Zn151  1  0.56475117  0.06069261  0.31077640  1
  Zn  Zn152  1  0.55481607  0.06134460  0.81019574  1
  Zn  Zn153  1  0.56934996  0.56190470  0.31143168  1
  Zn  Zn154  1  0.56052805  0.56119397  0.80852649  1
  Zn  Zn155  1  0.43943164  0.18993602  0.43967558  1
  Zn  Zn156  1  0.43077102  0.19867194  0.93262107  1
  Zn  Zn157  1  0.43730508  0.68734938  0.43740160  1
  Zn  Zn158  1  0.43780368  0.68757145  0.93738736  1
  Zn  Zn159  1  0.93916148  0.18355056  0.43480047  1
  Zn  Zn160  1  0.93774388  0.18582362  0.93916853  1
  Zn  Zn161  1  0.91660342  0.69196636  0.43950926  1
  Zn  Zn162  1  0.93276926  0.68435583  0.93832053  1
  Zn  Zn163  1  0.06041065  0.31459087  0.06106593  1
  Zn  Zn164  1  0.06080798  0.31394753  0.56602297  1
  Zn  Zn165  1  0.06094745  0.81172527  0.06581514  1
  Zn  Zn166  1  0.05827245  0.81951348  0.56779236  1
  Zn  Zn167  1  0.56137959  0.30298713  0.06099336  1
  Zn  Zn168  1  0.56352581  0.31393542  0.56229845  1
  Zn  Zn169  1  0.56270867  0.80662762  0.06331232  1
  Zn  Zn170  1  0.56446775  0.81328797  0.55986312  1
  O  O171  1  0.11986696  0.11943636  0.12196774  1
  O  O172  1  0.12422555  0.12738823  0.61153265  1
  O  O173  1  0.11255583  0.61828276  0.12838650  1
  O  O174  1  0.12548771  0.60879305  0.62981879  1
  O  O175  1  0.61033504  0.11356696  0.12153929  1
  O  O176  1  0.62131815  0.11615806  0.62411869  1
  O  O177  1  0.61660666  0.63089679  0.12038086  1
  O  O178  1  0.62162559  0.62263903  0.61677254  1
  O  O179  1  0.38056139  0.38494896  0.38189448  1
  O  O180  1  0.36947062  0.37392249  0.89360874  1
  O  O181  1  0.38233002  0.87912953  0.38087023  1
  O  O182  1  0.38853157  0.86475127  0.88428643  1
  O  O183  1  0.87746238  0.37000314  0.38800294  1
  O  O184  1  0.87620859  0.39038253  0.86409563  1
  O  O185  1  0.86890783  0.87388513  0.38851902  1
  O  O186  1  0.88153618  0.88261472  0.88071716  1
  O  O187  1  0.25756791  0.00729935  0.37054665  1
  O  O188  1  0.27708627  0.00052512  0.86995028  1
  O  O189  1  0.25681735  0.50629430  0.37048586  1
  O  O190  1  0.25184535  0.50580596  0.86529439  1
  O  O191  1  0.74343556  0.01164561  0.36862524  1
  O  O192  1  0.76208826  0.00432787  0.87949753  1
  O  O193  1  0.75619855  0.49411294  0.35869967  1
  O  O194  1  0.76030292  0.49698512  0.85620899  1
  O  O195  1  0.24505486  0.49730845  0.13358703  1
  O  O196  1  0.23360839  0.49271991  0.62594025  1
  O  O197  1  0.24685146  0.99371671  0.13262550  1
  O  O198  1  0.24768350  1.00084057  0.64391290  1
  O  O199  1  0.77127447  0.48960373  0.14771191  1
  O  O200  1  0.74227808  0.50052006  0.63028897  1
  O  O201  1  0.72979245  1.00776454  0.12823391  1
  O  O202  1  0.73787867  0.99340045  0.62393416  1
  O  O203  1  0.00464024  0.36247398  0.24573170  1
  O  O204  1  0.00379478  0.36154080  0.75034333  1
  O  O205  1  0.01613688  0.87327605  0.25132338  1
  O  O206  1  0.00509788  0.87200857  0.76388253  1
  O  O207  1  0.50659931  0.36656809  0.25559039  1
  O  O208  1  0.51034942  0.35621723  0.72990029  1
  O  O209  1  0.51066492  0.86462300  0.25512174  1
  O  O210  1  0.50602300  0.87086963  0.75791699  1
  O  O211  1  0.49053654  0.13260141  0.25720198  1
  O  O212  1  0.49148921  0.13283077  0.74064710  1
  O  O213  1  0.50856234  0.63567796  0.24416791  1
  O  O214  1  0.49921915  0.63751277  0.73496799  1
  O  O215  1  0.99756931  0.13151725  0.24113092  1
  O  O216  1  0.99089184  0.13501394  0.75147073  1
  O  O217  1  0.99161209  0.62834793  0.24525606  1
  O  O218  1  0.99204629  0.63742883  0.75236100  1
  O  O219  1  0.37043726  0.26389755  0.00982995  1
  O  O220  1  0.37380131  0.26725952  0.49469705  1
  O  O221  1  0.36741343  0.75385249  0.00829473  1
  O  O222  1  0.37511773  0.75869646  0.50800198  1
  O  O223  1  0.86572879  0.24123135  0.00908569  1
  O  O224  1  0.88105012  0.25691749  0.50680375  1
  O  O225  1  0.86887564  0.75846134  0.00480063  1
  O  O226  1  0.87639291  0.76909149  0.51350898  1
  O  O227  1  0.12386153  0.24445817  0.49329147  1
  O  O228  1  0.12745647  0.24321312  0.99403691  1
  O  O229  1  0.13178429  0.74858535  0.52433130  1
  O  O230  1  0.13241361  0.74492300  1.00078203  1
  O  O231  1  0.62725863  0.24977456  0.48667001  1
  O  O232  1  0.63731237  0.24460054  0.99780751  1
  O  O233  1  0.62287920  0.74204399  0.49038569  1
  O  O234  1  0.64012787  0.75861103  0.99264163  1
  O  O235  1  0.48739329  0.24013950  0.12680514  1
  O  O236  1  0.50812813  0.23472090  0.62662093  1
  O  O237  1  0.49427647  0.74023765  0.13125899  1
  O  O238  1  0.49512453  0.74604570  0.62823098  1
  O  O239  1  0.99576786  0.24183858  0.13147236  1
  O  O240  1  0.99053927  0.24528147  0.63378702  1
  O  O241  1  0.98888465  0.74344283  0.12647942  1
  O  O242  1  0.98674782  0.76254431  0.64259114  1
  O  O243  1  0.01156199  0.24298569  0.36451613  1
  O  O244  1  0.00671043  0.25111671  0.86940504  1
  O  O245  1  0.00035907  0.74060126  0.38200735  1
  O  O246  1  -0.00113282  0.75755195  0.86847673  1
  O  O247  1  0.50815263  0.25544358  0.36980434  1
  O  O248  1  0.50445835  0.24498677  0.86069338  1
  O  O249  1  0.50424041  0.75356787  0.36717090  1
  O  O250  1  0.50897147  0.75643657  0.87045191  1
  O  O251  1  0.24331925  0.12689502  0.49605631  1
  O  O252  1  0.23844858  0.13045498  1.00793194  1
  O  O253  1  0.25543903  0.62234047  0.48850748  1
  O  O254  1  0.25079650  0.63227232  0.99427922  1
  O  O255  1  0.75066842  0.12671436  0.49039519  1
  O  O256  1  0.75469406  0.13173454  0.98682999  1
  O  O257  1  0.74491888  0.62374985  0.50327021  1
  O  O258  1  0.76066483  0.64706948  0.99231098  1
  O  O259  1  0.25064412  0.37523270  0.01561492  1
  O  O260  1  0.25829825  0.37617318  0.50845052  1
  O  O261  1  0.25258199  0.85898224  0.00529558  1
  O  O262  1  0.26525613  0.87603948  0.49631372  1
  O  O263  1  0.75338648  0.35111070  -0.00799415  1
  O  O264  1  0.76698260  0.37213548  0.50157569  1
  O  O265  1  0.76496626  0.86890770  -0.00166143  1
  O  O266  1  0.76532688  0.88543609  0.50975533  1
  O  O267  1  0.13072510  0.49496756  0.24187495  1
  O  O268  1  0.12787550  0.49671949  0.74226525  1
  O  O269  1  0.13162592  0.99204590  0.24616374  1
  O  O270  1  0.13652161  0.99617253  0.75824341  1
  O  O271  1  0.63823260  0.48999537  0.25134597  1
  O  O272  1  0.63431085  0.49474996  0.74004708  1
  O  O273  1  0.62291740  0.98539311  0.24578679  1
  O  O274  1  0.61607927  0.98885314  0.74157200  1
  O  O275  1  0.37144235  0.00243337  0.25516932  1
  O  O276  1  0.37155595  0.01225938  0.74967119  1
  O  O277  1  0.36504583  0.49214670  0.26010523  1
  O  O278  1  0.34903437  0.51328698  0.72713042  1
  O  O279  1  0.87542680  0.01155574  0.24326613  1
  O  O280  1  0.88160399  0.00920066  0.75939778  1
  O  O281  1  0.87205813  0.50752468  0.25739975  1
  O  O282  1  0.87025808  0.50864370  0.74826450  1
  O  O283  1  0.13234224  0.36479151  0.37006478  1
  O  O284  1  0.12103734  0.36862522  0.86779961  1
  O  O285  1  0.13384290  0.87551910  0.36294130  1
  O  O286  1  0.11725450  0.87581840  0.87162020  1
  O  O287  1  0.62086187  0.36691569  0.36736895  1
  O  O288  1  0.62484795  0.37250612  0.85623755  1
  O  O289  1  0.61903943  0.86726538  0.36950666  1
  O  O290  1  0.61492164  0.87463767  0.86901535  1
  O  O291  1  0.37330449  0.13435053  0.13747810  1
  O  O292  1  0.38517960  0.12288916  0.62939807  1
  O  O293  1  0.38035071  0.63344877  0.12404840  1
  O  O294  1  0.38433569  0.63275445  0.62693422  1
  O  O295  1  0.88483740  0.12921942  0.13014815  1
  O  O296  1  0.87529177  0.13012915  0.63393538  1
  O  O297  1  0.88399237  0.63344997  0.13642834  1
  O  O298  1  0.87024358  0.64200371  0.63335585  1
  O  O299  1  0.26111246  0.25961071  0.12937676  1
  O  O300  1  0.24515182  0.26745246  0.62484550  1
  O  O301  1  0.25712107  0.74850741  0.12125544  1
  O  O302  1  0.26685557  0.74757644  0.62777557  1
  O  O303  1  0.75646183  0.23889899  0.11133164  1
  O  O304  1  0.76378724  0.24803785  0.62137012  1
  O  O305  1  0.76214280  0.74921277  0.11429729  1
  O  O306  1  0.75600584  0.76650132  0.63027143  1
  O  O307  1  0.24116198  0.24397628  0.37636970  1
  O  O308  1  0.23530001  0.25476542  0.87460981  1
  O  O309  1  0.25870359  0.73179110  0.37878874  1
  O  O310  1  0.24787040  0.74135660  0.88436931  1
  O  O311  1  0.74276700  0.23919536  0.37469333  1
  O  O312  1  0.74774595  0.23865971  0.88298470  1
  O  O313  1  0.73842518  0.75133056  0.37363605  1
  O  O314  1  0.74093805  0.75974487  0.88560551  1
  O  O315  1  0.01024594  0.12483699  0.01218205  1
  O  O316  1  0.00596739  0.11519039  0.50155346  1
  O  O317  1  -0.00306764  0.61808115  0.01065409  1
  O  O318  1  -0.00821334  0.61238818  0.50039384  1
  O  O319  1  0.42845357  0.09956498  -0.01035131  1
  O  O320  1  0.50281741  0.11826903  0.50579156  1
  O  O321  1  0.49903596  0.62532708  0.00957038  1
  O  O322  1  0.50427426  0.62401464  0.51034165  1
  O  O323  1  0.49554539  0.37899930  0.49389622  1
  O  O324  1  0.49074746  0.37223283  1.00132158  1
  O  O325  1  0.49325290  0.88055360  0.49308615  1
  O  O326  1  0.49087595  0.86679489  0.99350650  1
  O  O327  1  0.98922989  0.38248616  0.50417201  1
  O  O328  1  0.99979298  0.38448647  1.00137019  1
  O  O329  1  0.98800836  0.88769805  0.50429515  1
  O  O330  1  0.99295735  0.87392165  0.99041381  1
  O  O331  1  0.49446172  0.49451580  0.37270204  1
  O  O332  1  0.47282716  0.49548755  0.81476779  1
  O  O333  1  0.49550870  0.99318275  0.38002936  1
  O  O334  1  0.48331537  0.99201471  0.87299192  1
  O  O335  1  1.00042942  0.50085342  0.38984871  1
  O  O336  1  0.98362514  0.49899100  0.87412334  1
  O  O337  1  1.00498912  1.00370697  0.39133292  1
  O  O338  1  0.99005179  0.99324859  0.87937084  1
  O  O339  1  0.01039931  0.00785579  0.12313775  1
  O  O340  1  0.00715826  0.00360658  0.61549009  1
  O  O341  1  0.00517614  0.50801257  0.12895828  1
  O  O342  1  0.01047953  0.49616113  0.61708775  1
  O  O343  1  0.51238143  0.00008686  0.12688025  1
  O  O344  1  0.51033420  0.00855801  0.62037635  1
  O  O345  1  0.50047074  0.51750207  0.13082810  1
  O  O346  1  0.51462997  0.51094944  0.62600916  1
  O  O347  1  0.24565016  0.38419201  0.24132323  1
  O  O348  1  0.24494503  0.38484637  0.74504937  1
  O  O349  1  0.24429244  0.87735182  0.24506095  1
  O  O350  1  0.24302503  0.88488580  0.76184732  1
  O  O351  1  0.74206252  0.37915799  0.25353132  1
  O  O352  1  0.74265321  0.38071578  0.74201634  1
  O  O353  1  0.73366513  0.87610808  0.25139137  1
  O  O354  1  0.73952991  0.87692006  0.74476325  1
  O  O355  1  0.25645321  0.11945384  0.25728486  1
  O  O356  1  0.26049249  0.12155287  0.74422901  1
  O  O357  1  0.24838239  0.61346044  0.25976156  1
  O  O358  1  0.25002914  0.62304382  0.75765158  1
  O  O359  1  0.75963531  0.12360699  0.25492677  1
  O  O360  1  0.76322686  0.12915135  0.75980288  1
  O  O361  1  0.75491671  0.61201882  0.24500136  1
  O  O362  1  0.75858000  0.61689276  0.74403127  1
  O  O363  1  0.37048458  0.12048010  0.37249835  1
  O  O364  1  0.37299010  0.12792870  0.85665798  1
  O  O365  1  0.36876208  0.61139117  0.37866649  1
  O  O366  1  0.36447468  0.62370549  0.86855123  1
  O  O367  1  0.86664301  0.12966044  0.36372244  1
  O  O368  1  0.87061802  0.11661733  0.86958783  1
  O  O369  1  0.86946182  0.62322198  0.36262666  1
  O  O370  1  0.87606699  0.61560101  0.86111016  1
  O  O371  1  0.13315631  0.38113513  0.13275917  1
  O  O372  1  0.12983932  0.38189194  0.63318579  1
  O  O373  1  0.13226041  0.88083271  0.13001331  1
  O  O374  1  0.12075651  0.87991732  0.64680098  1
  O  O375  1  0.62229540  0.35936038  0.14110220  1
  O  O376  1  0.62940970  0.38480404  0.62750701  1
  O  O377  1  0.61947607  0.87983194  0.13563497  1
  O  O378  1  0.63128539  0.88003573  0.63170838  1
  O  O379  1  0.11867335  0.25422065  0.25675837  1
  O  O380  1  0.11654334  0.25136229  0.75710772  1
  O  O381  1  0.12480376  0.76353819  0.24779642  1
  O  O382  1  0.11715818  0.75808478  0.75418490  1
  O  O383  1  0.62190630  0.25103379  0.25894948  1
  O  O384  1  0.62004563  0.25577663  0.74897672  1
  O  O385  1  0.62100982  0.75870195  0.25438871  1
  O  O386  1  0.62235027  0.76056580  0.75740018  1
  O  O387  1  0.37960807  0.24790808  0.24570936  1
  O  O388  1  0.38232846  0.24501798  0.74874671  1
  O  O389  1  0.38757955  0.75404746  0.24182305  1
  O  O390  1  0.38176102  0.74503288  0.74437715  1
  O  O391  1  0.88284615  0.23979837  0.24312030  1
  O  O392  1  0.87988136  0.24505125  0.74533591  1
  O  O393  1  0.87467155  0.74528758  0.24329534  1
  O  O394  1  0.87885897  0.74508923  0.74881017  1
  O  O395  1  0.37992207  0.49088896  0.49258773  1
  O  O396  1  0.37461917  0.48463159  1.00137753  1
  O  O397  1  0.38128011  0.99415177  0.49683084  1
  O  O398  1  0.35527666  0.97346969  1.00049407  1
  O  O399  1  0.88687150  0.49031912  0.50074732  1
  O  O400  1  0.86303479  0.50633359  0.98092222  1
  O  O401  1  0.88670619  0.99130737  0.50365451  1
  O  O402  1  0.87827447  0.99392246  0.99575102  1
  O  O403  1  0.12815391  0.00634720  0.00467794  1
  O  O404  1  0.11778786  0.00642319  0.50271185  1
  O  O405  1  0.12884122  0.50320747  0.01642090  1
  O  O406  1  0.11179986  0.49555567  0.51004049  1
  O  O407  1  0.62348670  -0.00646415  0.01089071  1
  O  O408  1  0.61825594  -0.00161703  0.50833644  1
  O  O409  1  0.67271860  0.49116314  0.01990248  1
  O  O410  1  0.62723477  0.50719997  0.50489121  1
  O  O411  1  0.37154742  0.37031184  0.12033182  1
  O  O412  1  0.36632279  0.38885676  0.61771519  1
  O  O413  1  0.37060055  0.86252406  0.12040396  1
  O  O414  1  0.38566732  0.86770358  0.61614314  1
  O  O415  1  0.87499549  0.35711643  0.12979551  1
  O  O416  1  0.87525556  0.36522660  0.61726996  1
  O  O417  1  0.88269612  0.86767404  0.11757112  1
  O  O418  1  0.86658910  0.87109046  0.62828453  1
  O  O419  1  0.13030741  0.13207183  0.38537137  1
  O  O420  1  0.11903860  0.13330717  0.88715910  1
  O  O421  1  0.14188529  0.61756695  0.37631515  1
  O  O422  1  0.13535106  0.62417066  0.87783549  1
  O  O423  1  0.63224455  0.13149714  0.37533265  1
  O  O424  1  0.63688380  0.11958207  0.86567364  1
  O  O425  1  0.62113994  0.63462478  0.38531433  1
  O  O426  1  0.62142146  0.63645523  0.86767232  1
