# generated using pymatgen
data_V85Zn86O256
_symmetry_space_group_name_H-M   'P 1'
_cell_length_a   16.96533751
_cell_length_b   16.96153755
_cell_length_c   16.96350379
_cell_angle_alpha   89.91074122
_cell_angle_beta   89.87666068
_cell_angle_gamma   90.08557026
_symmetry_Int_Tables_number   1
_chemical_formula_structural   V85Zn86O256
_chemical_formula_sum   'V85 Zn86 O256'
_cell_volume   4881.36477052
_cell_formula_units_Z   1
loop_
 _symmetry_equiv_pos_site_id
 _symmetry_equiv_pos_as_xyz
  1  'x, y, z'
loop_
 _atom_site_type_symbol
 _atom_site_label
 _atom_site_symmetry_multiplicity
 _atom_site_fract_x
 _atom_site_fract_y
 _atom_site_fract_z
 _atom_site_occupancy
  V  V0  1  0.75127576  0.86867360  0.62806587  1
  V  V1  1  0.25004256  0.37608791  0.12747272  1
  V  V2  1  0.87004652  0.37079538  0.50292465  1
  V  V3  1  0.24970880  0.11988982  0.88057810  1
  V  V4  1  0.37011751  0.62202870  0.24708054  1
  V  V5  1  0.25027397  -0.00167066  0.25111335  1
  V  V6  1  0.62339148  0.23811520  0.37599575  1
  V  V7  1  0.25394352  -0.00236907  0.75383177  1
  V  V8  1  0.37768644  0.73721827  0.62965025  1
  V  V9  1  0.12308374  0.75039083  0.86619740  1
  V  V10  1  0.00036609  0.62373396  0.63226533  1
  V  V11  1  0.12757399  0.37896262  0.25203155  1
  V  V12  1  0.37095973  0.37556961  0.49891243  1
  V  V13  1  0.87705562  0.37066534  0.00269503  1
  V  V14  1  0.75262711  0.37537577  0.12519459  1
  V  V15  1  0.51175996  0.12661420  0.61936828  1
  V  V16  1  0.87779466  0.87676431  0.00605429  1
  V  V17  1  0.24767854  0.37642525  0.64217252  1
  V  V18  1  0.50216156  0.62784791  0.12470218  1
  V  V19  1  0.24222927  0.24605749  0.00200401  1
  V  V20  1  0.50056736  0.25065917  0.24488632  1
  V  V21  1  -0.00567753  0.87050964  0.86327108  1
  V  V22  1  0.50525673  0.00262491  -0.00537652  1
  V  V23  1  0.12854877  0.49550794  0.63656873  1
  V  V24  1  0.73262293  0.12536325  0.87209600  1
  V  V25  1  0.37664574  0.24899402  0.62577820  1
  V  V26  1  0.31322821  0.56162018  0.81550431  1
  V  V27  1  0.87904517  0.75444405  0.62266287  1
  V  V28  1  0.36961602  0.50043252  0.37080401  1
  V  V29  1  0.37664096  0.87537456  0.49945264  1
  V  V30  1  0.12223278  0.62838216  0.49915921  1
  V  V31  1  0.12197807  0.86632110  0.25899351  1
  V  V32  1  0.51476209  0.25370048  0.75514644  1
  V  V33  1  0.25122737  0.87419631  0.12422519  1
  V  V34  1  0.50473833  0.73532230  0.74608052  1
  V  V35  1  -0.01448678  -0.00641272  0.50689043  1
  V  V36  1  0.24893311  0.74928143  0.49651620  1
  V  V37  1  0.50354981  0.88282400  0.86053647  1
  V  V38  1  0.24860886  0.25086911  0.50163753  1
  V  V39  1  0.49219974  0.50351617  -0.00696289  1
  V  V40  1  0.49673582  0.50327092  0.50766617  1
  V  V41  1  0.11594476  0.12243745  0.50789598  1
  V  V42  1  0.00692859  0.37445729  0.86987590  1
  V  V43  1  0.62452968  0.37525409  0.24760874  1
  V  V44  1  0.25200398  0.74893078  -0.00844460  1
  V  V45  1  0.62275797  -0.01538550  0.62598488  1
  V  V46  1  0.51166859  0.12655944  0.11846722  1
  V  V47  1  0.75096548  0.75767550  0.00275098  1
  V  V48  1  0.37721597  0.12419868  0.24826195  1
  V  V49  1  0.12609543  0.00611339  0.11916814  1
  V  V50  1  0.12715896  0.25037210  0.86494991  1
  V  V51  1  0.49903536  0.75488965  0.24975042  1
  V  V52  1  0.74982139  0.62003428  0.37849550  1
  V  V53  1  0.37538537  0.88131430  -0.01034513  1
  V  V54  1  0.37640994  0.12373249  0.75330176  1
  V  V55  1  0.12875265  0.62543932  -0.00699215  1
  V  V56  1  -0.00068369  0.37488017  0.37596914  1
  V  V57  1  0.37485165  0.37793372  -0.00840373  1
  V  V58  1  0.62886529  0.74959208  0.37089205  1
  V  V59  1  0.37728706  0.24910926  0.12209618  1
  V  V60  1  -0.00025407  0.49965352  0.00353608  1
  V  V61  1  0.62412546  0.63041248  -0.00073170  1
  V  V62  1  -0.00281267  0.23801307  0.25224444  1
  V  V63  1  0.62073711  0.62307767  0.50842953  1
  V  V64  1  0.24429641  0.62490823  0.37080210  1
  V  V65  1  0.12422171  0.24855442  0.37596107  1
  V  V66  1  0.75002812  0.62751577  0.87573056  1
  V  V67  1  0.74211628  0.24035257  -0.00033520  1
  V  V68  1  0.75175748  0.50449833  0.25039866  1
  V  V69  1  0.49924534  0.37590163  0.37239429  1
  V  V70  1  0.88061454  0.01623369  0.86875440  1
  V  V71  1  0.62911906  -0.01665577  0.12911855  1
  V  V72  1  0.13129187  0.50247780  0.12853641  1
  V  V73  1  0.25005160  0.87605895  0.62639890  1
  V  V74  1  0.87640099  0.62328874  0.75105042  1
  V  V75  1  0.25133385  0.12399774  0.37798648  1
  V  V76  1  -0.00192598  0.49841799  0.50457508  1
  V  V77  1  0.62428310  0.50363211  0.12544176  1
  V  V78  1  0.74507200  0.24214398  0.50027867  1
  V  V79  1  0.50680877  0.87505357  0.37457730  1
  V  V80  1  0.87606810  0.23698043  0.12887271  1
  V  V81  1  0.37795027  -0.00142882  0.37488972  1
  V  V82  1  0.74213629  0.49080690  0.75154220  1
  V  V83  1  0.76091978  0.11779084  0.36309917  1
  V  V84  1  0.00036515  0.63585343  0.12514312  1
  Zn  Zn85  1  0.50717739  0.00676052  0.49519376  1
  Zn  Zn86  1  0.00241934  0.12246983  0.12238175  1
  Zn  Zn87  1  0.87713718  0.62500180  0.24920456  1
  Zn  Zn88  1  0.12311867  0.87330654  0.74797307  1
  Zn  Zn89  1  0.87638234  0.23323294  0.62964612  1
  Zn  Zn90  1  0.74968440  -0.00180919  0.74886960  1
  Zn  Zn91  1  0.75326008  0.75257219  0.49886011  1
  Zn  Zn92  1  0.63057248  0.75965663  0.86577911  1
  Zn  Zn93  1  0.00121157  0.74378140  0.26713804  1
  Zn  Zn94  1  0.88125131  -0.00984964  0.36418262  1
  Zn  Zn95  1  0.00545343  0.00383958  -0.00380796  1
  Zn  Zn96  1  0.51177244  0.37964702  0.86326601  1
  Zn  Zn97  1  -0.00483129  0.23425549  0.74326418  1
  Zn  Zn98  1  -0.00624094  0.86080822  0.39254543  1
  Zn  Zn99  1  0.37496227  0.75071075  0.12124909  1
  Zn  Zn100  1  0.76031929  -0.02463631  0.23694447  1
  Zn  Zn101  1  0.12030971  0.00341469  0.63022025  1
  Zn  Zn102  1  0.87452943  0.49877428  0.87761571  1
  Zn  Zn103  1  0.73862738  0.36820001  0.63053205  1
  Zn  Zn104  1  0.86835792  0.75435172  0.13223343  1
  Zn  Zn105  1  0.87471248  0.49921305  0.37515359  1
  Zn  Zn106  1  0.61288580  0.49712658  0.63725374  1
  Zn  Zn107  1  0.18881225  0.18846549  0.19163766  1
  Zn  Zn108  1  0.18943105  0.18762923  0.68904449  1
  Zn  Zn109  1  0.18906685  0.68862016  0.18238339  1
  Zn  Zn110  1  0.19251825  0.68178548  0.68763215  1
  Zn  Zn111  1  0.68665179  0.18632131  0.18495608  1
  Zn  Zn112  1  0.69305186  0.18183295  0.68463839  1
  Zn  Zn113  1  0.68462900  0.80037637  0.18595216  1
  Zn  Zn114  1  0.68835645  0.68359839  0.68768696  1
  Zn  Zn115  1  0.31101334  0.31159424  0.31097041  1
  Zn  Zn116  1  0.31935418  0.30932053  0.81546671  1
  Zn  Zn117  1  0.31395707  0.81014767  0.31255423  1
  Zn  Zn118  1  0.31694605  0.80917768  0.81110435  1
  Zn  Zn119  1  0.81205915  0.31176162  0.31411017  1
  Zn  Zn120  1  0.81262459  0.30633245  0.82008154  1
  Zn  Zn121  1  0.82182908  0.81298096  0.31493410  1
  Zn  Zn122  1  0.81609920  0.81233215  0.80702107  1
  Zn  Zn123  1  0.18638194  0.44045813  0.44152268  1
  Zn  Zn124  1  0.19029311  0.43668202  0.93608962  1
  Zn  Zn125  1  0.18617303  0.93886085  0.43933621  1
  Zn  Zn126  1  0.18753021  0.93492944  0.93407545  1
  Zn  Zn127  1  0.68194352  0.43313808  0.44070990  1
  Zn  Zn128  1  0.68579981  0.43909278  0.93572637  1
  Zn  Zn129  1  0.69043809  0.93739943  0.44441637  1
  Zn  Zn130  1  0.68736727  0.93989651  0.93685067  1
  Zn  Zn131  1  0.31712115  0.06085612  0.06203264  1
  Zn  Zn132  1  0.31487065  0.06223207  0.56414411  1
  Zn  Zn133  1  0.31134090  0.56478442  0.05803468  1
  Zn  Zn134  1  0.30939897  0.55989776  0.56357612  1
  Zn  Zn135  1  0.81387401  0.05851409  0.05885482  1
  Zn  Zn136  1  0.79935225  0.06126257  0.55696793  1
  Zn  Zn137  1  0.81395487  0.56592117  0.06286051  1
  Zn  Zn138  1  0.81165935  0.55942330  0.56553502  1
  Zn  Zn139  1  0.43605511  0.43918731  0.18265556  1
  Zn  Zn140  1  0.43112903  0.43608189  0.69069393  1
  Zn  Zn141  1  0.43864988  0.93739468  0.18370265  1
  Zn  Zn142  1  0.43394994  0.93962060  0.68370798  1
  Zn  Zn143  1  0.94014699  0.43668006  0.18829000  1
  Zn  Zn144  1  0.91385262  0.40256988  0.70598150  1
  Zn  Zn145  1  0.93991531  0.93718534  0.19209207  1
  Zn  Zn146  1  0.93502147  1.06654836  0.68639702  1
  Zn  Zn147  1  0.06351202  0.05521091  0.31761164  1
  Zn  Zn148  1  0.07095770  0.06080790  0.81715483  1
  Zn  Zn149  1  0.06250272  0.56215962  0.31350404  1
  Zn  Zn150  1  0.06438700  0.55894798  0.81494445  1
  Zn  Zn151  1  0.56577982  0.05947647  0.30454829  1
  Zn  Zn152  1  0.56240663  0.06150061  0.80578531  1
  Zn  Zn153  1  0.56140780  0.56467468  0.31370594  1
  Zn  Zn154  1  0.56273082  0.56695873  0.81636641  1
  Zn  Zn155  1  0.43831865  0.18859911  0.43739800  1
  Zn  Zn156  1  0.43637255  0.18758952  0.93549105  1
  Zn  Zn157  1  0.43567813  0.68690184  0.43800808  1
  Zn  Zn158  1  0.43617451  0.69228889  0.92999796  1
  Zn  Zn159  1  0.93450286  0.18540140  0.44095005  1
  Zn  Zn160  1  0.94681200  0.18613208  0.94173556  1
  Zn  Zn161  1  0.93576394  0.68860399  0.43793376  1
  Zn  Zn162  1  0.93717646  0.68982218  0.93806790  1
  Zn  Zn163  1  0.06259577  0.31030382  0.06418488  1
  Zn  Zn164  1  0.06092097  0.31170904  0.56927949  1
  Zn  Zn165  1  0.06515453  0.81895330  0.05711717  1
  Zn  Zn166  1  0.06196693  0.81004740  0.56799247  1
  Zn  Zn167  1  0.57831628  0.33004190  0.02982799  1
  Zn  Zn168  1  0.56336176  0.31499058  0.56238190  1
  Zn  Zn169  1  0.55716483  0.81163071  0.05219345  1
  Zn  Zn170  1  0.56219221  0.81024854  0.55980885  1
  O  O171  1  0.13190787  0.10815691  0.13218844  1
  O  O172  1  0.13256430  0.12634370  0.60997465  1
  O  O173  1  0.12098793  0.61868495  0.11623315  1
  O  O174  1  0.11862111  0.61964705  0.61925761  1
  O  O175  1  0.61347298  0.11514459  0.12755387  1
  O  O176  1  0.61397745  0.11960254  0.62459347  1
  O  O177  1  0.60962976  0.62377428  0.11902808  1
  O  O178  1  0.62560553  0.61877139  0.61167551  1
  O  O179  1  0.37715686  0.38295917  0.37586689  1
  O  O180  1  0.38627375  0.36761156  0.88998268  1
  O  O181  1  0.38466446  0.87792301  0.37916160  1
  O  O182  1  0.38660980  0.87301181  0.88095452  1
  O  O183  1  0.88257814  0.37584436  0.38416615  1
  O  O184  1  0.88470714  0.37522645  0.89126268  1
  O  O185  1  0.88093322  0.87673595  0.38310465  1
  O  O186  1  0.88593312  0.87518144  0.87899418  1
  O  O187  1  0.25752841  0.00395920  0.36994275  1
  O  O188  1  0.24883411  0.00763051  0.86842547  1
  O  O189  1  0.26181726  0.50797734  0.37918065  1
  O  O190  1  0.24766976  0.50762648  0.87365233  1
  O  O191  1  0.74385558  0.01375246  0.37560905  1
  O  O192  1  0.75762795  0.01381018  0.87734872  1
  O  O193  1  0.74738174  0.50298019  0.36852640  1
  O  O194  1  0.75058040  0.50778207  0.87040918  1
  O  O195  1  0.23719684  0.49638037  0.12044794  1
  O  O196  1  0.24160794  0.48771278  0.61873691  1
  O  O197  1  0.24578157  0.99352456  0.13069003  1
  O  O198  1  0.24980004  0.99055726  0.63139165  1
  O  O199  1  0.74504259  0.49796574  0.13158294  1
  O  O200  1  0.74781009  0.50246898  0.64523735  1
  O  O201  1  0.73170562  1.00181220  0.11909712  1
  O  O202  1  0.73797815  0.98819292  0.62536529  1
  O  O203  1  0.01091135  0.36885535  0.25585708  1
  O  O204  1  0.00777650  0.39265963  0.77134114  1
  O  O205  1  0.01764500  0.87012939  0.24810325  1
  O  O206  1  0.00285875  0.87391131  0.76509674  1
  O  O207  1  0.50308076  0.37039128  0.25183733  1
  O  O208  1  0.49797130  0.35917084  0.74841117  1
  O  O209  1  0.49146337  0.86206735  0.25685813  1
  O  O210  1  0.49326864  0.87468454  0.75937360  1
  O  O211  1  0.49518558  0.12989850  0.24024870  1
  O  O212  1  0.49286312  0.13183480  0.74125472  1
  O  O213  1  0.49278392  0.63384848  0.24366964  1
  O  O214  1  0.49739777  0.63692219  0.75214454  1
  O  O215  1  1.00917286  0.13581148  0.24929004  1
  O  O216  1  1.00066329  0.12181556  0.75803283  1
  O  O217  1  1.00329060  0.62455485  0.23886333  1
  O  O218  1  0.99230283  0.61413461  0.73981286  1
  O  O219  1  0.36913904  0.25744830  0.00683349  1
  O  O220  1  0.36898240  0.25556633  0.50554733  1
  O  O221  1  0.36879701  0.76126569  -0.00088936  1
  O  O222  1  0.37026496  0.75564283  0.50843232  1
  O  O223  1  0.87174374  0.25575875  0.01025898  1
  O  O224  1  0.86509467  0.25605917  0.49986422  1
  O  O225  1  0.86792301  0.75841372  0.00144360  1
  O  O226  1  0.86943001  0.73492642  0.51995151  1
  O  O227  1  0.12785464  0.24002885  0.49455976  1
  O  O228  1  0.13930741  0.25126923  0.99949025  1
  O  O229  1  0.13496282  0.73603315  0.50953332  1
  O  O230  1  0.13251925  0.74467746  0.99188675  1
  O  O231  1  0.63106908  0.25523266  0.48535973  1
  O  O232  1  0.64524281  0.23784416  1.01891820  1
  O  O233  1  0.62099749  0.73856716  0.48841892  1
  O  O234  1  0.63196637  0.74668454  0.99294626  1
  O  O235  1  0.49519416  0.24151248  0.12609246  1
  O  O236  1  0.49589519  0.24258960  0.62948347  1
  O  O237  1  0.49728790  0.74553968  0.13121895  1
  O  O238  1  0.48879864  0.75549557  0.63531572  1
  O  O239  1  0.99394516  0.24835999  0.13485670  1
  O  O240  1  0.99102433  0.25357966  0.62885718  1
  O  O241  1  1.00699868  0.73891931  0.12062350  1
  O  O242  1  0.98973669  0.73799522  0.62430903  1
  O  O243  1  0.00417861  0.25389551  0.37024736  1
  O  O244  1  0.01043122  0.25831366  0.87498948  1
  O  O245  1  0.00902935  0.74789824  0.38103389  1
  O  O246  1  0.00786528  0.76208670  0.88028364  1
  O  O247  1  0.50518903  0.25467232  0.36704373  1
  O  O248  1  0.49842981  0.24515470  0.85713138  1
  O  O249  1  0.50315582  0.75513070  0.36781656  1
  O  O250  1  0.49996071  0.76068475  0.85827476  1
  O  O251  1  0.24585720  0.13175548  0.49533616  1
  O  O252  1  0.26245394  0.13366122  0.99169665  1
  O  O253  1  0.24322786  0.63034872  0.49364917  1
  O  O254  1  0.23987779  0.63694661  1.00521572  1
  O  O255  1  0.74719888  0.13707882  0.48344596  1
  O  O256  1  0.75762325  0.13541226  0.99115765  1
  O  O257  1  0.73875343  0.61973627  0.49342351  1
  O  O258  1  0.74747469  0.63015342  0.98973273  1
  O  O259  1  0.25770757  0.36751167  0.00708515  1
  O  O260  1  0.25527692  0.36644259  0.49988316  1
  O  O261  1  0.25747890  0.87153338  0.00446949  1
  O  O262  1  0.25385857  0.86654371  0.50465616  1
  O  O263  1  0.75992237  0.36374953  0.00552834  1
  O  O264  1  0.75697000  0.36070974  0.48878938  1
  O  O265  1  0.76172061  0.86724074  -0.01127261  1
  O  O266  1  0.74178275  0.86722984  0.51912321  1
  O  O267  1  0.12087776  0.49079194  0.24101963  1
  O  O268  1  0.12505331  0.50507668  0.73544764  1
  O  O269  1  0.13368128  0.98913391  0.24329358  1
  O  O270  1  0.14046288  0.99580454  0.74793065  1
  O  O271  1  0.62939564  0.49544028  0.24443974  1
  O  O272  1  0.63659749  0.50573936  0.75399607  1
  O  O273  1  0.62513637  0.99456792  0.23119554  1
  O  O274  1  0.62915049  1.00627605  0.73131420  1
  O  O275  1  0.37057604  0.00355447  0.25439111  1
  O  O276  1  0.36387955  0.00958545  0.74421673  1
  O  O277  1  0.37852934  0.51337538  0.25544829  1
  O  O278  1  0.37539395  0.49887484  0.76347479  1
  O  O279  1  0.87026788  -0.00084532  0.24977850  1
  O  O280  1  0.86967248  -0.00249447  0.76837966  1
  O  O281  1  0.86721886  0.50063762  0.25270477  1
  O  O282  1  0.86236718  0.50520686  0.75596104  1
  O  O283  1  0.12063515  0.37087623  0.37004252  1
  O  O284  1  0.11775354  0.36269055  0.88772381  1
  O  O285  1  0.12894607  0.87831686  0.36034282  1
  O  O286  1  0.11397579  0.86780595  0.87466519  1
  O  O287  1  0.61638556  0.36758053  0.36509799  1
  O  O288  1  0.60714329  0.36410046  0.92061549  1
  O  O289  1  0.61309750  0.86579768  0.38296453  1
  O  O290  1  0.60829144  0.87576626  0.87630038  1
  O  O291  1  0.38263149  0.12975458  0.13118796  1
  O  O292  1  0.38027913  0.13019231  0.63456559  1
  O  O293  1  0.38264474  0.62644553  0.13123925  1
  O  O294  1  0.37396536  0.63939546  0.61592170  1
  O  O295  1  0.87413616  0.13462588  0.12483450  1
  O  O296  1  0.85468063  0.12147997  0.63224706  1
  O  O297  1  0.88799857  0.62699598  0.12456114  1
  O  O298  1  0.88325791  0.62411932  0.63337748  1
  O  O299  1  0.25569886  0.25279615  0.11937458  1
  O  O300  1  0.25500442  0.25704468  0.61940918  1
  O  O301  1  0.25135974  0.75863828  0.11147314  1
  O  O302  1  0.26097359  0.75373274  0.61798063  1
  O  O303  1  0.75958420  0.25330818  0.12043634  1
  O  O304  1  0.74864291  0.25111785  0.61290034  1
  O  O305  1  0.74908375  0.74517480  0.10698146  1
  O  O306  1  0.75860780  0.75034376  0.62571912  1
  O  O307  1  0.24427017  0.24418174  0.38079017  1
  O  O308  1  0.24562416  0.24557310  0.88344182  1
  O  O309  1  0.25736230  0.74114226  0.38892800  1
  O  O310  1  0.24169464  0.76011174  0.88581650  1
  O  O311  1  0.74139797  0.24018030  0.37520947  1
  O  O312  1  0.75192561  0.23875315  0.88923775  1
  O  O313  1  0.74110595  0.73834891  0.37871274  1
  O  O314  1  0.75055394  0.74289719  0.87974726  1
  O  O315  1  0.00076961  0.11673297  0.00859541  1
  O  O316  1  0.01256958  0.11751400  0.49456110  1
  O  O317  1  0.00670599  0.61812737  0.00633377  1
  O  O318  1  0.00646831  0.61728055  0.50880957  1
  O  O319  1  0.49085378  0.11459362  0.00663170  1
  O  O320  1  0.49061938  0.12343468  0.51426180  1
  O  O321  1  0.49998462  0.62334238  0.00604508  1
  O  O322  1  0.50674913  0.61469735  0.49144374  1
  O  O323  1  0.48980948  0.38150166  0.48971745  1
  O  O324  1  0.48301918  0.39177097  1.02034314  1
  O  O325  1  0.49271692  0.87575481  0.49067127  1
  O  O326  1  0.49158027  0.88045243  0.98740991  1
  O  O327  1  0.99303104  0.38145557  0.49552745  1
  O  O328  1  0.99482058  0.38157943  1.00051820  1
  O  O329  1  1.01051576  0.89124599  0.50612596  1
  O  O330  1  0.99384707  0.88125721  0.99040003  1
  O  O331  1  0.48674084  0.49645975  0.37774085  1
  O  O332  1  0.50479043  0.49958496  0.89035519  1
  O  O333  1  0.49849112  0.99135422  0.37318355  1
  O  O334  1  0.50196086  0.99159673  0.87834752  1
  O  O335  1  1.00113575  0.49498456  0.38772619  1
  O  O336  1  1.00162510  0.49543494  0.89199946  1
  O  O337  1  1.00193668  0.99643932  0.39294535  1
  O  O338  1  0.99223945  0.98973248  0.87555706  1
  O  O339  1  0.01943145  -0.00189547  0.12735863  1
  O  O340  1  0.00455888  0.00603216  0.61094046  1
  O  O341  1  0.01030684  0.50460275  0.11700568  1
  O  O342  1  0.00784994  0.50466397  0.61338357  1
  O  O343  1  0.50853451  0.00442136  0.11750916  1
  O  O344  1  0.50839931  0.00629581  0.62454706  1
  O  O345  1  0.50396097  0.51165875  0.12118162  1
  O  O346  1  0.49319421  0.49612209  0.61093136  1
  O  O347  1  0.23527786  0.36871309  0.24488196  1
  O  O348  1  0.25487487  0.36845675  0.74089732  1
  O  O349  1  0.24703541  0.87708145  0.24230938  1
  O  O350  1  0.25357190  0.88111697  0.74329487  1
  O  O351  1  0.74542988  0.38369039  0.24498885  1
  O  O352  1  0.74866403  0.38838945  0.75732999  1
  O  O353  1  0.74296579  0.86462324  0.25381441  1
  O  O354  1  0.75091455  0.87474384  0.73632442  1
  O  O355  1  0.25725110  0.11981530  0.25796024  1
  O  O356  1  0.25716882  0.11816769  0.75576994  1
  O  O357  1  0.25712101  0.63185539  0.25790011  1
  O  O358  1  0.26123311  0.62054270  0.74991369  1
  O  O359  1  0.74476388  0.12555090  0.26330494  1
  O  O360  1  0.74726345  0.12736794  0.76955327  1
  O  O361  1  0.74912930  0.60890351  0.25908099  1
  O  O362  1  0.75485542  0.61818390  0.76171642  1
  O  O363  1  0.37208374  0.11931837  0.36845929  1
  O  O364  1  0.36500373  0.13162249  0.86088703  1
  O  O365  1  0.36603350  0.61917903  0.36803674  1
  O  O366  1  0.36766229  0.62180564  0.87796729  1
  O  O367  1  0.86279305  0.12154866  0.37405956  1
  O  O368  1  0.87367724  0.11658290  0.87916660  1
  O  O369  1  0.85965912  0.62094843  0.37678731  1
  O  O370  1  0.86989302  0.62284705  0.86946070  1
  O  O371  1  0.12909078  0.38206734  0.13217040  1
  O  O372  1  0.13704412  0.38375422  0.61745535  1
  O  O373  1  0.13753016  0.88191892  0.13083917  1
  O  O374  1  0.14008996  0.87139056  0.62862078  1
  O  O375  1  0.63371767  0.38275154  0.12730706  1
  O  O376  1  0.62979581  0.38843858  0.61035074  1
  O  O377  1  0.61965320  0.87942097  0.12247926  1
  O  O378  1  0.62559677  0.88018613  0.62796649  1
  O  O379  1  0.11795589  0.25662778  0.25684823  1
  O  O380  1  0.12653694  0.24955227  0.76264576  1
  O  O381  1  0.12937162  0.76418911  0.24508117  1
  O  O382  1  0.13304496  0.74856352  0.76339402  1
  O  O383  1  0.61864021  0.25642776  0.25262380  1
  O  O384  1  0.61242604  0.24544457  0.74446824  1
  O  O385  1  0.61251727  0.74539793  0.26318486  1
  O  O386  1  0.60940378  0.74551190  0.74655682  1
  O  O387  1  0.38105427  0.24544300  0.24264569  1
  O  O388  1  0.38027262  0.24187112  0.74116869  1
  O  O389  1  0.38113495  0.73834576  0.24796629  1
  O  O390  1  0.38344265  0.75231182  0.73567847  1
  O  O391  1  0.88621628  0.25838581  0.24108239  1
  O  O392  1  0.88621260  0.28808949  0.73887760  1
  O  O393  1  0.88368397  0.74257545  0.24581151  1
  O  O394  1  0.87115219  0.73084591  0.73944136  1
  O  O395  1  0.37888143  0.49650568  0.49070909  1
  O  O396  1  0.38072289  0.49211587  1.00578499  1
  O  O397  1  0.37691356  0.99263316  0.49165655  1
  O  O398  1  0.38715688  0.98765758  1.00543752  1
  O  O399  1  0.88288733  0.49477989  0.49746153  1
  O  O400  1  0.88357171  0.49164077  1.00243873  1
  O  O401  1  0.88529901  1.00308053  0.50035139  1
  O  O402  1  0.87473893  0.99079086  0.98668220  1
  O  O403  1  0.13085579  -0.00640753  0.01656989  1
  O  O404  1  0.12807606  0.01465248  0.50316399  1
  O  O405  1  0.12012400  0.50794395  0.00651655  1
  O  O406  1  0.11920004  0.51116366  0.50601343  1
  O  O407  1  0.61110838  -0.00659656  0.00909656  1
  O  O408  1  0.62212570  -0.00154584  0.51849659  1
  O  O409  1  0.61786626  0.51238038  0.00962873  1
  O  O410  1  0.61027493  0.50865984  0.49149585  1
  O  O411  1  0.36489215  0.36809194  0.12441076  1
  O  O412  1  0.36609785  0.36941656  0.61783112  1
  O  O413  1  0.36388516  0.87404885  0.11816118  1
  O  O414  1  0.36565797  0.86864678  0.61791076  1
  O  O415  1  0.87194782  0.36946479  0.11764334  1
  O  O416  1  0.85999605  0.38354325  0.60666509  1
  O  O417  1  0.88449149  0.87333261  0.10960893  1
  O  O418  1  0.87019026  0.85410628  0.62827282  1
  O  O419  1  0.13264871  0.12882892  0.38395584  1
  O  O420  1  0.14221277  0.13354030  0.87701001  1
  O  O421  1  0.13802104  0.61774673  0.38252987  1
  O  O422  1  0.11566246  0.63379007  0.88677602  1
  O  O423  1  0.62336445  0.13570088  0.36896738  1
  O  O424  1  0.63446697  0.11821697  0.87914870  1
  O  O425  1  0.63285552  0.63008831  0.37946886  1
  O  O426  1  0.63408395  0.63165079  0.88182951  1
