# generated using pymatgen
data_V85Zn86O256
_symmetry_space_group_name_H-M   'P 1'
_cell_length_a   16.92687144
_cell_length_b   16.93468405
_cell_length_c   16.92820061
_cell_angle_alpha   89.96380256
_cell_angle_beta   89.98568882
_cell_angle_gamma   90.01763135
_symmetry_Int_Tables_number   1
_chemical_formula_structural   V85Zn86O256
_chemical_formula_sum   'V85 Zn86 O256'
_cell_volume   4852.48800250
_cell_formula_units_Z   1
loop_
 _symmetry_equiv_pos_site_id
 _symmetry_equiv_pos_as_xyz
  1  'x, y, z'
loop_
 _atom_site_type_symbol
 _atom_site_label
 _atom_site_symmetry_multiplicity
 _atom_site_fract_x
 _atom_site_fract_y
 _atom_site_fract_z
 _atom_site_occupancy
  V  V0  1  0.49965849  0.50024806  -0.00041987  1
  V  V1  1  0.87740403  0.74661604  0.62790884  1
  V  V2  1  0.87392920  0.61590977  0.75686040  1
  V  V3  1  0.49956535  0.00005095  -0.00164636  1
  V  V4  1  0.86972144  0.75643752  0.12902423  1
  V  V5  1  0.62419530  0.25202000  0.87460239  1
  V  V6  1  0.74964451  0.74581029  0.49849427  1
  V  V7  1  0.50382412  0.25306329  0.74601046  1
  V  V8  1  0.62077056  0.75256458  0.37342487  1
  V  V9  1  -0.00156553  0.37832341  0.87653249  1
  V  V10  1  0.87547038  0.12541148  0.74956633  1
  V  V11  1  0.37553878  0.01348197  0.37169214  1
  V  V12  1  -0.00033330  0.12647439  0.62408047  1
  V  V13  1  0.00459380  0.87569328  0.37044616  1
  V  V14  1  0.74988545  0.12481844  0.87571597  1
  V  V15  1  0.74672273  0.61628988  0.37534380  1
  V  V16  1  0.74928763  0.00051683  0.74831500  1
  V  V17  1  0.37421469  0.37551556  0.00142528  1
  V  V18  1  0.87872891  0.00017087  0.88181817  1
  V  V19  1  0.48487397  0.73454577  0.73531985  1
  V  V20  1  0.74082736  0.25037397  0.50636961  1
  V  V21  1  0.62651405  0.62219586  0.00034769  1
  V  V22  1  0.11158171  0.12067206  -0.00118814  1
  V  V23  1  0.50420349  0.12632871  0.61642963  1
  V  V24  1  0.75022851  0.25222161  0.00456787  1
  V  V25  1  0.12664419  0.75069336  0.87805042  1
  V  V26  1  0.12437600  0.87196121  0.74883591  1
  V  V27  1  0.13388587  0.50255493  0.62730825  1
  V  V28  1  -0.00545279  0.36518312  0.36462778  1
  V  V29  1  0.37395350  0.86674282  0.49625728  1
  V  V30  1  0.00063223  0.25216879  0.75043201  1
  V  V31  1  0.24994893  0.62013036  0.86768479  1
  V  V32  1  0.12067831  -0.00689758  0.12490755  1
  V  V33  1  -0.00593766  0.50145349  -0.00280570  1
  V  V34  1  0.37052449  0.50185482  0.86244018  1
  V  V35  1  0.62553060  0.74529282  0.86894068  1
  V  V36  1  0.87221519  0.26188865  0.62484270  1
  V  V37  1  0.37685497  0.24002245  0.12519722  1
  V  V38  1  0.00449188  0.00164554  0.50031340  1
  V  V39  1  0.25304215  0.86590824  0.61889766  1
  V  V40  1  0.37595579  -0.00183250  0.87291704  1
  V  V41  1  0.87054220  0.61837258  0.25170201  1
  V  V42  1  0.87643412  0.24789057  0.13923167  1
  V  V43  1  0.87132540  0.37870726  -0.00016286  1
  V  V44  1  0.37653015  0.12518060  0.74711460  1
  V  V45  1  0.37193531  0.86872994  0.00859125  1
  V  V46  1  0.87806590  0.87525599  0.50020369  1
  V  V47  1  0.50497411  0.24530209  0.24759287  1
  V  V48  1  0.49815163  0.87277908  0.86986283  1
  V  V49  1  0.75691254  -0.00006368  0.24308131  1
  V  V50  1  0.75130471  0.87530236  0.62451535  1
  V  V51  1  0.62481250  0.24142267  0.37245285  1
  V  V52  1  0.17128425  0.31586472  0.30740981  1
  V  V53  1  0.62773615  -0.01141654  0.12383155  1
  V  V54  1  0.74481080  0.48187015  0.74863584  1
  V  V55  1  0.12227453  0.49060975  0.12894454  1
  V  V56  1  0.12521363  0.24996813  0.87485046  1
  V  V57  1  0.74902138  0.75675579  0.00357579  1
  V  V58  1  0.25193453  0.36731243  0.62027246  1
  V  V59  1  0.50438911  0.37621516  0.87092384  1
  V  V60  1  0.24512985  0.00198902  0.25127306  1
  V  V61  1  0.12495384  0.62397748  0.00373560  1
  V  V62  1  0.13047612  0.62985025  0.50151738  1
  V  V63  1  0.13105444  0.75257107  0.37566177  1
  V  V64  1  0.37093046  0.37389631  0.48877473  1
  V  V65  1  0.62095949  0.49058713  0.62314153  1
  V  V66  1  0.62691838  0.00388824  0.61269459  1
  V  V67  1  -0.00134086  0.50044278  0.49743395  1
  V  V68  1  0.49351107  0.63140980  0.12355626  1
  V  V69  1  0.25144759  -0.00065782  0.74636564  1
  V  V70  1  0.50898618  0.38403274  0.36883430  1
  V  V71  1  0.25546244  0.62303181  0.37923840  1
  V  V72  1  -0.00387405  0.12480969  0.14315477  1
  V  V73  1  0.62273762  0.87303904  0.74650182  1
  V  V74  1  0.13232057  0.14157419  0.49627761  1
  V  V75  1  0.62664277  0.49980989  0.14148873  1
  V  V76  1  0.36986699  0.63673097  0.24439733  1
  V  V77  1  0.00215779  0.74965397  0.25137888  1
  V  V78  1  0.24901959  0.24649666  -0.00107016  1
  V  V79  1  0.62456314  0.12471518  0.00317710  1
  V  V80  1  0.00053048  0.87860623  0.88348350  1
  V  V81  1  0.74598190  0.38022709  0.13907275  1
  V  V82  1  0.87674609  0.00976564  0.37207398  1
  V  V83  1  0.13382952  0.37983222  0.75103964  1
  V  V84  1  0.25158571  0.50221628  0.25139363  1
  Zn  Zn85  1  0.24588228  0.37060618  0.12830239  1
  Zn  Zn86  1  0.50025936  0.00255669  0.49539629  1
  Zn  Zn87  1  0.24729202  0.13726977  0.37120090  1
  Zn  Zn88  1  0.37288488  0.24793547  0.61788869  1
  Zn  Zn89  1  0.12637065  0.00147595  0.62298702  1
  Zn  Zn90  1  -0.00137862  0.74805604  0.75177122  1
  Zn  Zn91  1  0.25789920  0.74235031  0.00913585  1
  Zn  Zn92  1  0.24879228  0.12365767  0.87326482  1
  Zn  Zn93  1  0.87380027  0.87942648  0.00678979  1
  Zn  Zn94  1  0.00493593  0.62518336  0.62718057  1
  Zn  Zn95  1  0.49637242  0.75673580  0.24584405  1
  Zn  Zn96  1  0.49774593  0.12097509  0.12852279  1
  Zn  Zn97  1  0.49634771  0.50325666  0.50188261  1
  Zn  Zn98  1  0.62655743  0.87289550  0.24736194  1
  Zn  Zn99  1  0.87097855  0.37976986  0.50188629  1
  Zn  Zn100  1  0.74922861  0.12495610  0.37529461  1
  Zn  Zn101  1  0.24684186  0.86700335  0.13604888  1
  Zn  Zn102  1  0.87128983  0.49951268  0.37570487  1
  Zn  Zn103  1  0.75504872  0.61732936  0.87693024  1
  Zn  Zn104  1  0.49800559  0.87791977  0.37044442  1
  Zn  Zn105  1  0.60580699  0.63259150  0.51658801  1
  Zn  Zn106  1  -0.00344736  0.62365833  0.12747447  1
  Zn  Zn107  1  0.19009726  0.17866058  0.18235148  1
  Zn  Zn108  1  0.18577096  0.18663905  0.68509435  1
  Zn  Zn109  1  0.18393491  0.68809254  0.18618866  1
  Zn  Zn110  1  0.24319461  0.65904622  0.66189740  1
  Zn  Zn111  1  0.68905273  0.18447671  0.19097927  1
  Zn  Zn112  1  0.68592217  0.19031125  0.68661633  1
  Zn  Zn113  1  0.68686937  0.68651365  0.18903231  1
  Zn  Zn114  1  0.68815786  0.68137268  0.68722102  1
  Zn  Zn115  1  0.33321068  0.31267794  0.30814388  1
  Zn  Zn116  1  0.31547651  0.31274236  0.81177698  1
  Zn  Zn117  1  0.31042060  0.81695518  0.31361112  1
  Zn  Zn118  1  0.30981642  0.80971259  0.81383278  1
  Zn  Zn119  1  0.80942717  0.31391613  0.31817811  1
  Zn  Zn120  1  0.81532098  0.31131074  0.81761699  1
  Zn  Zn121  1  0.81176964  0.81631649  0.31320539  1
  Zn  Zn122  1  0.81192893  0.81065782  0.81341973  1
  Zn  Zn123  1  0.18983086  0.44342217  0.44264216  1
  Zn  Zn124  1  0.18725026  0.43790496  0.93991257  1
  Zn  Zn125  1  0.18862387  0.94058068  0.43557991  1
  Zn  Zn126  1  0.18963668  0.93947594  0.93858970  1
  Zn  Zn127  1  0.68400977  0.43284386  0.44345046  1
  Zn  Zn128  1  0.68988353  0.44013959  0.93569628  1
  Zn  Zn129  1  0.69218827  0.93513089  0.43369908  1
  Zn  Zn130  1  0.68752984  0.93585972  0.93449017  1
  Zn  Zn131  1  0.30762858  0.05851125  0.06130931  1
  Zn  Zn132  1  0.31333695  0.06113653  0.55959399  1
  Zn  Zn133  1  0.30949585  0.55937136  0.06194772  1
  Zn  Zn134  1  0.33260361  0.55995053  0.56088593  1
  Zn  Zn135  1  0.81440461  0.06462015  0.06529043  1
  Zn  Zn136  1  0.81361141  0.06900269  0.55902080  1
  Zn  Zn137  1  0.81008488  0.56549137  0.06671204  1
  Zn  Zn138  1  0.80830983  0.56155060  0.56888319  1
  Zn  Zn139  1  0.43699835  0.43946445  0.18858390  1
  Zn  Zn140  1  0.43670021  0.43663145  0.68377566  1
  Zn  Zn141  1  0.43860419  0.94111498  0.19106377  1
  Zn  Zn142  1  0.43842964  0.93384399  0.68188098  1
  Zn  Zn143  1  0.93546961  0.43659716  0.18652284  1
  Zn  Zn144  1  0.94414009  0.44286975  0.68809642  1
  Zn  Zn145  1  0.94007933  0.93809942  0.18823784  1
  Zn  Zn146  1  0.93900248  0.93747243  0.69070307  1
  Zn  Zn147  1  0.06886000  0.06444006  0.31527612  1
  Zn  Zn148  1  0.06315121  0.06106601  0.81246404  1
  Zn  Zn149  1  0.06348047  0.56205126  0.31376618  1
  Zn  Zn150  1  0.06288390  0.56366952  0.81261273  1
  Zn  Zn151  1  0.56351224  0.06265920  0.30878228  1
  Zn  Zn152  1  0.56347081  0.06327546  0.80801904  1
  Zn  Zn153  1  0.55893661  0.57385962  0.31636020  1
  Zn  Zn154  1  0.56536893  0.55954010  0.80665648  1
  Zn  Zn155  1  0.43845342  0.19235643  0.43675421  1
  Zn  Zn156  1  0.43721943  0.18609380  0.93563465  1
  Zn  Zn157  1  0.43525681  0.68687132  0.43591053  1
  Zn  Zn158  1  0.43841040  0.68590388  0.92955448  1
  Zn  Zn159  1  0.93745761  0.19092368  0.44059549  1
  Zn  Zn160  1  0.93497972  0.19182570  0.94075277  1
  Zn  Zn161  1  0.93858176  0.68479261  0.43850206  1
  Zn  Zn162  1  0.93891832  0.69048368  0.93888982  1
  Zn  Zn163  1  0.05890396  0.30859681  0.06638982  1
  Zn  Zn164  1  0.05759073  0.31812634  0.56207144  1
  Zn  Zn165  1  0.06052809  0.80933095  0.06388256  1
  Zn  Zn166  1  0.06566147  0.81190014  0.56284917  1
  Zn  Zn167  1  0.56386126  0.31561666  0.06442959  1
  Zn  Zn168  1  0.56295216  0.31978651  0.56014366  1
  Zn  Zn169  1  0.55949622  0.81111897  0.05755292  1
  Zn  Zn170  1  0.55939533  0.81440421  0.56043306  1
  O  O171  1  0.11221321  0.11899950  0.11801152  1
  O  O172  1  0.11728001  0.12243220  0.61615361  1
  O  O173  1  0.12083818  0.61502321  0.11477578  1
  O  O174  1  0.13453262  0.61920656  0.61851272  1
  O  O175  1  0.62667370  0.11751635  0.11231035  1
  O  O176  1  0.61741151  0.11450938  0.63143816  1
  O  O177  1  0.61939861  0.61841734  0.11687617  1
  O  O178  1  0.63682612  0.60555838  0.62408250  1
  O  O179  1  0.38811926  0.37559807  0.38232926  1
  O  O180  1  0.38216411  0.37849771  0.88504099  1
  O  O181  1  0.37232188  0.88649774  0.38500870  1
  O  O182  1  0.37960928  0.88146315  0.87947737  1
  O  O183  1  0.88408023  0.38080741  0.37661798  1
  O  O184  1  0.88176542  0.36994017  0.89169539  1
  O  O185  1  0.88423821  0.88313707  0.38277794  1
  O  O186  1  0.88286751  0.88271843  0.87321089  1
  O  O187  1  0.25597103  0.00527742  0.36707534  1
  O  O188  1  0.25649131  -0.00021499  0.86189280  1
  O  O189  1  0.24076452  0.51109172  0.36391560  1
  O  O190  1  0.25879570  0.50625645  0.88154914  1
  O  O191  1  0.76068033  0.00313153  0.37019382  1
  O  O192  1  0.75514182  0.00543255  0.86776835  1
  O  O193  1  0.74801004  0.51313331  0.38377624  1
  O  O194  1  0.74584338  0.50172290  0.85764688  1
  O  O195  1  0.24032129  0.49288403  0.13022741  1
  O  O196  1  0.23709029  0.48453692  0.61965623  1
  O  O197  1  0.24092853  0.99855535  0.13429813  1
  O  O198  1  0.24917476  0.99408146  0.63539863  1
  O  O199  1  0.73863856  0.49296089  0.12100265  1
  O  O200  1  0.74643383  0.49730435  0.64077224  1
  O  O201  1  0.74615323  1.00189897  0.13461391  1
  O  O202  1  0.74590007  0.99800779  0.62744815  1
  O  O203  1  -0.00032899  0.38265739  0.26565715  1
  O  O204  1  0.00796889  0.37116149  0.75683524  1
  O  O205  1  -0.00380877  0.86742851  0.26342204  1
  O  O206  1  0.00887140  0.87467523  0.75974011  1
  O  O207  1  0.49244274  0.36649947  0.26223656  1
  O  O208  1  0.49426174  0.36531138  0.76010755  1
  O  O209  1  0.50579572  0.87368879  0.25153487  1
  O  O210  1  0.50569069  0.86909771  0.75321926  1
  O  O211  1  0.50354721  0.13875921  0.24543318  1
  O  O212  1  0.49455718  0.13106706  0.74127460  1
  O  O213  1  0.48671238  0.62647838  0.24137338  1
  O  O214  1  0.50097377  0.63691433  0.75390123  1
  O  O215  1  1.00246366  0.12536365  0.24143046  1
  O  O216  1  0.99653118  0.13123102  0.74456892  1
  O  O217  1  0.98978291  0.63315628  0.25304976  1
  O  O218  1  0.98966834  0.62511676  0.74681855  1
  O  O219  1  0.36810016  0.25578048  0.00084459  1
  O  O220  1  0.37935460  0.26691183  0.50123673  1
  O  O221  1  0.37777130  0.76532404  -0.00717976  1
  O  O222  1  0.36991799  0.76814298  0.48870113  1
  O  O223  1  0.86754293  0.25775698  0.00926309  1
  O  O224  1  0.86884457  0.25329262  0.51114162  1
  O  O225  1  0.86625748  0.74939410  0.00899149  1
  O  O226  1  0.87085066  0.75420941  0.50739417  1
  O  O227  1  0.12082880  0.23942951  0.50563077  1
  O  O228  1  0.13148908  0.24415369  0.99615510  1
  O  O229  1  0.12025085  0.73794170  0.49226563  1
  O  O230  1  0.12152137  0.73986852  0.99389232  1
  O  O231  1  0.63523077  0.25223902  0.49531803  1
  O  O232  1  0.62911572  0.24219258  0.99636503  1
  O  O233  1  0.63380012  0.74941548  0.49628461  1
  O  O234  1  0.62910400  0.74059751  0.99294580  1
  O  O235  1  0.49504369  0.24965752  0.12968539  1
  O  O236  1  0.50263607  0.24478985  0.63146651  1
  O  O237  1  0.50552539  0.73502831  0.12435999  1
  O  O238  1  0.50394023  0.75126985  0.63746524  1
  O  O239  1  0.99103693  0.23582301  0.12268722  1
  O  O240  1  0.99223629  0.24612135  0.63098579  1
  O  O241  1  0.99383130  0.74648697  0.13565444  1
  O  O242  1  0.98870850  0.75046399  0.62691009  1
  O  O243  1  -0.00400217  0.26592747  0.37594282  1
  O  O244  1  0.00559322  0.25706093  0.87111149  1
  O  O245  1  0.00591737  0.75685527  0.37127443  1
  O  O246  1  0.01068234  0.75732640  0.87328262  1
  O  O247  1  0.50568419  0.25615950  0.36638368  1
  O  O248  1  0.50361799  0.25679009  0.86889785  1
  O  O249  1  0.50847970  0.75266554  0.37042939  1
  O  O250  1  0.51108181  0.75398315  0.86739186  1
  O  O251  1  0.23532501  0.12540844  0.50127938  1
  O  O252  1  0.24232978  0.13562753  0.99816655  1
  O  O253  1  0.24282574  0.61720304  0.48833518  1
  O  O254  1  0.23926014  0.62359694  0.99350777  1
  O  O255  1  0.75617800  0.14361002  0.49428584  1
  O  O256  1  0.74385135  0.13033576  0.99519605  1
  O  O257  1  0.75440239  0.63765000  0.49453284  1
  O  O258  1  0.74206249  0.63244548  0.99650795  1
  O  O259  1  0.25637705  0.36270308  -0.00021838  1
  O  O260  1  0.26063583  0.37481578  0.50305471  1
  O  O261  1  0.26587190  0.87595515  -0.00101172  1
  O  O262  1  0.25667657  0.88367448  0.51154700  1
  O  O263  1  0.75623580  0.37167272  0.00562205  1
  O  O264  1  0.75574349  0.35650695  0.49345402  1
  O  O265  1  0.75167955  0.86060897  -0.00630604  1
  O  O266  1  0.75815350  0.86517644  0.50500783  1
  O  O267  1  0.13406690  0.50826200  0.23831724  1
  O  O268  1  0.11798875  0.49044954  0.74123088  1
  O  O269  1  0.13402078  1.00271747  0.24185017  1
  O  O270  1  0.13377968  0.99006895  0.75048435  1
  O  O271  1  0.62135495  0.50988586  0.23977025  1
  O  O272  1  0.63739654  0.49716964  0.74252760  1
  O  O273  1  0.63293687  0.99820268  0.23892237  1
  O  O274  1  0.63186597  0.99298971  0.74232640  1
  O  O275  1  0.36767475  0.00100741  0.26420515  1
  O  O276  1  0.37004637  0.00322933  0.75235441  1
  O  O277  1  0.35756276  0.50624297  0.24172481  1
  O  O278  1  0.37439891  0.48958443  0.76410371  1
  O  O279  1  0.86551236  -0.00406656  0.25656963  1
  O  O280  1  0.86864610  0.00600529  0.75761827  1
  O  O281  1  0.87764077  0.51507980  0.25029369  1
  O  O282  1  0.86809754  0.51008942  0.74540641  1
  O  O283  1  0.11709072  0.37402024  0.37512519  1
  O  O284  1  0.12094529  0.37077230  0.86895772  1
  O  O285  1  0.11663210  0.86574515  0.38320731  1
  O  O286  1  0.12072094  0.87072068  0.87253012  1
  O  O287  1  0.61289508  0.36402417  0.37840624  1
  O  O288  1  0.61133092  0.36894559  0.88395791  1
  O  O289  1  0.62298310  0.86322489  0.37790357  1
  O  O290  1  0.61863999  0.86643494  0.86841029  1
  O  O291  1  0.37812800  0.13653802  0.11128243  1
  O  O292  1  0.38231422  0.12645781  0.63062834  1
  O  O293  1  0.38216977  0.61978972  0.12992354  1
  O  O294  1  0.34724802  0.63096141  0.63763825  1
  O  O295  1  0.88837189  0.13120141  0.12240636  1
  O  O296  1  0.88185733  0.13288578  0.63158477  1
  O  O297  1  0.87449956  0.63633612  0.13489596  1
  O  O298  1  0.87716090  0.63242008  0.63574772  1
  O  O299  1  0.25787793  0.25091467  0.11720784  1
  O  O300  1  0.25028039  0.26286066  0.62906636  1
  O  O301  1  0.24055967  0.75601520  0.12006264  1
  O  O302  1  0.23874712  0.76925047  0.62497860  1
  O  O303  1  0.75386109  0.25609863  0.12123905  1
  O  O304  1  0.75640624  0.24660563  0.61572444  1
  O  O305  1  0.75659866  0.74589938  0.11646259  1
  O  O306  1  0.76037879  0.75346385  0.61936274  1
  O  O307  1  0.24054113  0.25828424  0.35826833  1
  O  O308  1  0.24432439  0.24785529  0.88128807  1
  O  O309  1  0.23638947  0.74325423  0.36734342  1
  O  O310  1  0.23898905  0.74489307  0.88256798  1
  O  O311  1  0.74145386  0.24690006  0.38144412  1
  O  O312  1  0.74434171  0.24451564  0.88245013  1
  O  O313  1  0.74542992  0.74613755  0.38363942  1
  O  O314  1  0.73813502  0.74685551  0.88003572  1
  O  O315  1  0.00952780  0.12789132  0.00146909  1
  O  O316  1  0.00675129  0.11959727  0.50498298  1
  O  O317  1  0.00440015  0.61721558  0.00201396  1
  O  O318  1  0.00966428  0.61863663  0.50379315  1
  O  O319  1  0.50935636  0.11836097  -0.00157306  1
  O  O320  1  0.49636264  0.12499020  0.51302102  1
  O  O321  1  0.50561078  0.62102380  0.00444457  1
  O  O322  1  0.49696691  0.61589938  0.49153445  1
  O  O323  1  0.49312714  0.37792982  0.48576552  1
  O  O324  1  0.49214016  0.37851992  0.99304341  1
  O  O325  1  0.48477703  0.88020490  0.49886160  1
  O  O326  1  0.49085588  0.88003812  0.99146529  1
  O  O327  1  0.99751451  0.38473480  0.49048345  1
  O  O328  1  0.99198887  0.38119383  0.99819934  1
  O  O329  1  0.99729324  0.88287722  0.49428507  1
  O  O330  1  0.99610990  0.87131701  0.98703443  1
  O  O331  1  0.50810409  0.48573545  0.37006025  1
  O  O332  1  0.49462137  0.49296263  0.87886334  1
  O  O333  1  0.48810572  1.00232517  0.37472925  1
  O  O334  1  0.49663700  0.99355893  0.87759211  1
  O  O335  1  1.00045011  0.49585206  0.38643591  1
  O  O336  1  1.00505723  0.49406299  0.88929505  1
  O  O337  1  0.99731241  0.99343526  0.37922376  1
  O  O338  1  0.98985721  0.99272271  0.87012810  1
  O  O339  1  0.00487695  0.01331303  0.12895638  1
  O  O340  1  -0.00040202  0.00640423  0.61691986  1
  O  O341  1  0.00499176  0.50117513  0.11621226  1
  O  O342  1  0.01335508  0.50076843  0.61414921  1
  O  O343  1  0.50935847  0.00260533  0.11694053  1
  O  O344  1  0.51005768  0.00759896  0.62377701  1
  O  O345  1  0.50671429  0.50700276  0.11837777  1
  O  O346  1  0.51501398  0.49477382  0.62692515  1
  O  O347  1  0.24280949  0.37815389  0.25443163  1
  O  O348  1  0.23883998  0.37128521  0.74476496  1
  O  O349  1  0.25368236  0.89374401  0.25001216  1
  O  O350  1  0.24607939  0.88060053  0.74134191  1
  O  O351  1  0.75477488  0.37717130  0.23807222  1
  O  O352  1  0.75557951  0.38339616  0.75328612  1
  O  O353  1  0.74527124  0.89309114  0.25684042  1
  O  O354  1  0.74477792  0.87970235  0.74334725  1
  O  O355  1  0.24868892  0.11070808  0.25249260  1
  O  O356  1  0.25618662  0.11685423  0.74871294  1
  O  O357  1  0.25359013  0.61921933  0.25326197  1
  O  O358  1  0.22953111  0.62575591  0.77099538  1
  O  O359  1  0.74610569  0.10661557  0.25582214  1
  O  O360  1  0.75516435  0.12181546  0.75664840  1
  O  O361  1  0.75884204  0.63239029  0.26275011  1
  O  O362  1  0.76457114  0.62108433  0.75358862  1
  O  O363  1  0.36803345  0.11686844  0.38186103  1
  O  O364  1  0.37421630  0.11604081  0.86610556  1
  O  O365  1  0.36097827  0.62888576  0.36318513  1
  O  O366  1  0.36393927  0.61399830  0.88059801  1
  O  O367  1  0.88064686  0.11200211  0.37774367  1
  O  O368  1  0.87155265  0.11929454  0.87065290  1
  O  O369  1  0.86620347  0.62499551  0.36885281  1
  O  O370  1  0.87671199  0.63088920  0.86032823  1
  O  O371  1  0.12494919  0.38630344  0.11858239  1
  O  O372  1  0.12966041  0.37941409  0.63193172  1
  O  O373  1  0.12026447  0.89013380  0.11846891  1
  O  O374  1  0.13223309  0.88014170  0.63174920  1
  O  O375  1  0.63337551  0.38775062  0.12005396  1
  O  O376  1  0.63006200  0.38872264  0.62266642  1
  O  O377  1  0.62445359  0.88595133  0.11806985  1
  O  O378  1  0.63197488  0.88269694  0.62741864  1
  O  O379  1  0.12521127  0.25736382  0.24185152  1
  O  O380  1  0.11919395  0.25660224  0.75525608  1
  O  O381  1  0.10948602  0.74252734  0.26016437  1
  O  O382  1  0.12358357  0.76531605  0.76078139  1
  O  O383  1  0.61934168  0.25048568  0.25733858  1
  O  O384  1  0.61237975  0.24419669  0.75867680  1
  O  O385  1  0.62396214  0.75232881  0.25884296  1
  O  O386  1  0.62428024  0.75401223  0.75542823  1
  O  O387  1  0.38625635  0.24885827  0.23482581  1
  O  O388  1  0.38630949  0.24277472  0.74855440  1
  O  O389  1  0.37220908  0.74024092  0.24946280  1
  O  O390  1  0.38678449  0.75274856  0.75335289  1
  O  O391  1  0.86884519  0.25259665  0.23832391  1
  O  O392  1  0.87988401  0.24458036  0.74567267  1
  O  O393  1  0.88173728  0.74572713  0.24727909  1
  O  O394  1  0.87560334  0.74191304  0.74301086  1
  O  O395  1  0.37790715  0.48053935  0.50004826  1
  O  O396  1  0.38034093  0.49020167  0.99586721  1
  O  O397  1  0.37437411  0.99544867  0.48640444  1
  O  O398  1  0.37917520  0.99346657  0.99203234  1
  O  O399  1  0.88399986  0.50101293  0.50203112  1
  O  O400  1  0.88223017  0.49292246  1.00766719  1
  O  O401  1  0.88613886  0.99732767  0.49418089  1
  O  O402  1  0.86627983  0.99797434  0.98601061  1
  O  O403  1  0.13298713  0.01172021  0.00860413  1
  O  O404  1  0.11342181  0.00537973  0.50011540  1
  O  O405  1  0.11727257  0.50593688  0.00664896  1
  O  O406  1  0.11909760  0.51018310  0.50617355  1
  O  O407  1  0.62283817  0.00601990  0.00333783  1
  O  O408  1  0.62546675  -0.00440502  0.50943988  1
  O  O409  1  0.61971665  0.51163691  0.00047164  1
  O  O410  1  0.62459526  0.50154543  0.51263116  1
  O  O411  1  0.37458678  0.36674291  0.11255460  1
  O  O412  1  0.36708411  0.37199694  0.61610553  1
  O  O413  1  0.37600028  0.88210255  0.11016384  1
  O  O414  1  0.36303650  0.87967193  0.61171545  1
  O  O415  1  0.86915800  0.36862708  0.11751701  1
  O  O416  1  0.88215639  0.36412168  0.62735890  1
  O  O417  1  0.88042286  0.86168412  0.12468071  1
  O  O418  1  0.87061723  0.86885611  0.62181928  1
  O  O419  1  0.12638072  0.12766553  0.39103025  1
  O  O420  1  0.12597762  0.13031201  0.88151752  1
  O  O421  1  0.13132027  0.63257642  0.38235071  1
  O  O422  1  0.12513345  0.63155287  0.88629073  1
  O  O423  1  0.62233122  0.13739374  0.37622533  1
  O  O424  1  0.62915954  0.12853963  0.88472640  1
  O  O425  1  0.63260596  0.63796782  0.37843513  1
  O  O426  1  0.62495998  0.63097730  0.88219026  1
