# generated using pymatgen
data_V85Zn86O256
_symmetry_space_group_name_H-M   'P 1'
_cell_length_a   16.94158138
_cell_length_b   16.92442088
_cell_length_c   16.93705484
_cell_angle_alpha   90.04214962
_cell_angle_beta   90.00376275
_cell_angle_gamma   90.07612031
_symmetry_Int_Tables_number   1
_chemical_formula_structural   V85Zn86O256
_chemical_formula_sum   'V85 Zn86 O256'
_cell_volume   4856.29605929
_cell_formula_units_Z   1
loop_
 _symmetry_equiv_pos_site_id
 _symmetry_equiv_pos_as_xyz
  1  'x, y, z'
loop_
 _atom_site_type_symbol
 _atom_site_label
 _atom_site_symmetry_multiplicity
 _atom_site_fract_x
 _atom_site_fract_y
 _atom_site_fract_z
 _atom_site_occupancy
  V  V0  1  0.25037850  0.62110673  0.86771847  1
  V  V1  1  0.00080805  0.49822203  0.50102922  1
  V  V2  1  0.00228319  0.74930862  0.24784809  1
  V  V3  1  0.37665805  0.75580917  0.63092118  1
  V  V4  1  0.49669393  0.37433825  0.37652225  1
  V  V5  1  0.13463217  0.87950555  0.24861378  1
  V  V6  1  0.00063486  0.87733832  0.37687538  1
  V  V7  1  0.25316649  0.12640222  0.37152797  1
  V  V8  1  0.86762295  0.62569129  0.25451568  1
  V  V9  1  0.86512826  -0.00112934  0.37307873  1
  V  V10  1  0.50410672  0.12661066  0.63660754  1
  V  V11  1  0.86834001  0.74794658  0.61732014  1
  V  V12  1  0.37019243  0.49533139  0.87077696  1
  V  V13  1  0.88361575  0.87549765  0.00048800  1
  V  V14  1  0.37704047  0.37777926  0.00413646  1
  V  V15  1  0.75375146  0.62918759  0.87057617  1
  V  V16  1  0.50380551  0.37447843  0.87405658  1
  V  V17  1  0.25235026  0.37428978  0.12308952  1
  V  V18  1  0.87282945  0.12089486  0.74699428  1
  V  V19  1  0.50077393  0.86967538  0.37697209  1
  V  V20  1  0.63636586  0.62921533  0.49718316  1
  V  V21  1  0.62021692  0.75372441  0.86967464  1
  V  V22  1  0.87430891  -0.00132837  0.86870999  1
  V  V23  1  0.74879424  0.88755449  0.12764956  1
  V  V24  1  -0.00157138  0.62474694  0.62867682  1
  V  V25  1  0.12052671  0.24211108  0.37979634  1
  V  V26  1  0.25095758  0.75457261  0.50640249  1
  V  V27  1  0.48631907  0.87680167  0.87266972  1
  V  V28  1  -0.00163055  0.61907340  0.11979292  1
  V  V29  1  0.62188333  0.37254476  0.74952794  1
  V  V30  1  0.12431886  0.00513979  0.12949307  1
  V  V31  1  0.64266079  0.74732094  0.37524307  1
  V  V32  1  0.87672687  0.75078266  0.12529829  1
  V  V33  1  0.12663534  0.24843767  0.87645833  1
  V  V34  1  0.50121466  0.63062221  0.62477009  1
  V  V35  1  0.38053111  0.62318873  0.75010794  1
  V  V36  1  -0.00176610  0.01335405  0.00276578  1
  V  V37  1  0.62591175  0.11111257  0.00348209  1
  V  V38  1  0.24657805  0.50073395  0.24843753  1
  V  V39  1  0.00166999  0.00953232  0.49908971  1
  V  V40  1  0.63454254  0.00407181  0.62593894  1
  V  V41  1  0.13001847  0.49590630  0.63194827  1
  V  V42  1  0.37465196  0.23828712  0.12918474  1
  V  V43  1  0.74940538  0.75298699  0.00088257  1
  V  V44  1  0.37308824  0.87934033  0.50458024  1
  V  V45  1  0.49894045  0.24687440  0.25133483  1
  V  V46  1  0.75067913  0.24880970  0.00549299  1
  V  V47  1  0.62597090  0.50026044  0.12660722  1
  V  V48  1  0.12727059  0.75121469  0.37613577  1
  V  V49  1  0.12208675  0.36668627  0.24936322  1
  V  V50  1  0.12596282  0.75004859  0.87055705  1
  V  V51  1  0.37173375  0.49733427  0.38093965  1
  V  V52  1  0.50529525  0.00996512  0.50152396  1
  V  V53  1  0.11953590  0.61621349  -0.00542043  1
  V  V54  1  -0.00026432  0.37165215  0.37272813  1
  V  V55  1  0.37666153  0.00549799  0.36981808  1
  V  V56  1  0.38286576  0.24867544  0.62258026  1
  V  V57  1  0.26060068  0.37643608  0.63255453  1
  V  V58  1  0.50248113  0.11859011  0.13002731  1
  V  V59  1  -0.00640895  0.75204443  0.74742808  1
  V  V60  1  0.62867741  0.88602598  0.24660671  1
  V  V61  1  0.75351936  0.50409619  0.74982529  1
  V  V62  1  0.50068349  0.50095744  -0.00094934  1
  V  V63  1  0.00044880  0.25532501  0.75157264  1
  V  V64  1  0.74917758  0.37243836  0.12974835  1
  V  V65  1  0.74370674  0.24011092  0.49727797  1
  V  V66  1  0.13653901  0.00618875  0.61717759  1
  V  V67  1  0.12678948  0.62468267  0.50197335  1
  V  V68  1  0.25143531  0.25370318  0.49932079  1
  V  V69  1  0.62543973  0.24825065  0.87287646  1
  V  V70  1  0.87744928  0.11842216  0.24640671  1
  V  V71  1  0.86659488  0.50128202  0.37676556  1
  V  V72  1  0.75115512  0.12301205  0.87224129  1
  V  V73  1  0.13734021  0.12656836  0.00156554  1
  V  V74  1  0.13222121  0.87815314  0.74092916  1
  V  V75  1  0.75022195  0.37605176  0.62324165  1
  V  V76  1  0.62996938  0.88103380  0.75120067  1
  V  V77  1  0.88910007  0.24756365  0.13349918  1
  V  V78  1  0.47653118  -0.00498264  -0.00046786  1
  V  V79  1  0.24998406  0.62465542  0.37702204  1
  V  V80  1  0.25690644  0.00931168  0.76000009  1
  V  V81  1  0.49698056  0.62760965  0.12702897  1
  V  V82  1  0.49892263  0.49865221  0.50053792  1
  V  V83  1  0.87690345  0.24999658  0.62318332  1
  V  V84  1  0.87759115  0.50021263  0.88081612  1
  Zn  Zn85  1  0.00316996  0.38170688  0.88565225  1
  Zn  Zn86  1  0.88015067  0.37997381  0.00668708  1
  Zn  Zn87  1  0.62419986  0.37507373  0.25400087  1
  Zn  Zn88  1  0.73996875  0.11542518  0.36725463  1
  Zn  Zn89  1  0.61952411  0.24385500  0.37989493  1
  Zn  Zn90  1  0.37836647  0.12797085  0.76487222  1
  Zn  Zn91  1  0.11809652  0.49357724  0.11686761  1
  Zn  Zn92  1  0.00153275  0.87826312  0.87191518  1
  Zn  Zn93  1  0.86594860  0.87095345  0.49624592  1
  Zn  Zn94  1  0.37472528  0.62953026  0.25109300  1
  Zn  Zn95  1  0.74987924  0.87539185  0.62411506  1
  Zn  Zn96  1  0.36830410  0.76705981  0.12276124  1
  Zn  Zn97  1  0.62495071  0.62794447  -0.00093716  1
  Zn  Zn98  1  0.00478055  0.12738329  0.62105695  1
  Zn  Zn99  1  0.62539364  0.50373823  0.62473601  1
  Zn  Zn100  1  0.74619370  0.50358009  0.25517009  1
  Zn  Zn101  1  0.25844857  0.75897318  -0.00322097  1
  Zn  Zn102  1  0.49852306  0.75062814  0.24742684  1
  Zn  Zn103  1  0.13212898  0.37522266  0.75408508  1
  Zn  Zn104  1  0.26275759  0.00606655  0.23879144  1
  Zn  Zn105  1  0.87465227  0.37426272  0.49840828  1
  Zn  Zn106  1  0.26295725  0.24063628  -0.00911376  1
  Zn  Zn107  1  0.18649742  0.18611212  0.18633273  1
  Zn  Zn108  1  0.18822301  0.18790976  0.68581612  1
  Zn  Zn109  1  0.18412036  0.68852743  0.18590864  1
  Zn  Zn110  1  0.19035728  0.68623342  0.68797308  1
  Zn  Zn111  1  0.68547159  0.18294503  0.19314941  1
  Zn  Zn112  1  0.68849059  0.18647449  0.68689800  1
  Zn  Zn113  1  0.68465946  0.69156745  0.18760189  1
  Zn  Zn114  1  0.68356331  0.68884702  0.69130057  1
  Zn  Zn115  1  0.31428484  0.31261758  0.31178879  1
  Zn  Zn116  1  0.32892610  0.28471878  0.82430345  1
  Zn  Zn117  1  0.31719545  0.81338256  0.30987700  1
  Zn  Zn118  1  0.30751704  0.81351864  0.80658541  1
  Zn  Zn119  1  0.81359010  0.31198229  0.31102705  1
  Zn  Zn120  1  0.81138758  0.31415043  0.81192688  1
  Zn  Zn121  1  0.81337243  0.81564463  0.30964218  1
  Zn  Zn122  1  0.81248618  0.81498101  0.80816832  1
  Zn  Zn123  1  0.18699981  0.43215407  0.44199988  1
  Zn  Zn124  1  0.18875536  0.43453912  0.93493873  1
  Zn  Zn125  1  0.19056780  0.93990261  0.43691546  1
  Zn  Zn126  1  0.18217961  0.94204272  0.92890490  1
  Zn  Zn127  1  0.68271090  0.43486059  0.44067222  1
  Zn  Zn128  1  0.69166260  0.43743854  0.94080453  1
  Zn  Zn129  1  0.68725856  0.93033601  0.44470454  1
  Zn  Zn130  1  0.69270845  0.93561051  0.93532006  1
  Zn  Zn131  1  0.29689987  -0.07051936  0.06339951  1
  Zn  Zn132  1  0.31302999  0.06985927  0.55838640  1
  Zn  Zn133  1  0.29441048  0.59671784  0.07557999  1
  Zn  Zn134  1  0.31333399  0.56136596  0.56420019  1
  Zn  Zn135  1  0.81653503  0.06582322  0.06182635  1
  Zn  Zn136  1  0.81644499  0.06039829  0.55938298  1
  Zn  Zn137  1  0.80943640  0.56608638  0.06276930  1
  Zn  Zn138  1  0.81546681  0.56376209  0.56412636  1
  Zn  Zn139  1  0.43601194  0.43972849  0.19191953  1
  Zn  Zn140  1  0.43823335  0.43758420  0.68708225  1
  Zn  Zn141  1  0.44348439  0.93779118  0.18855747  1
  Zn  Zn142  1  0.44057984  0.94078694  0.69048393  1
  Zn  Zn143  1  0.93648346  0.43683604  0.19005663  1
  Zn  Zn144  1  0.93562396  0.43830267  0.69132553  1
  Zn  Zn145  1  0.94297664  0.93864845  0.18684803  1
  Zn  Zn146  1  0.94204968  0.93590304  0.68316273  1
  Zn  Zn147  1  0.05623858  0.06694016  0.30991322  1
  Zn  Zn148  1  0.06190906  0.06636569  0.81077574  1
  Zn  Zn149  1  0.05992004  0.55956404  0.31114403  1
  Zn  Zn150  1  0.06007499  0.56302842  0.80791796  1
  Zn  Zn151  1  0.56275437  0.06406930  0.31597376  1
  Zn  Zn152  1  0.56163290  0.05703894  0.81473659  1
  Zn  Zn153  1  0.56335050  0.56462038  0.31277494  1
  Zn  Zn154  1  0.56500922  0.56384601  0.81145540  1
  Zn  Zn155  1  0.43444735  0.18863171  0.44189849  1
  Zn  Zn156  1  0.44229087  0.18556600  0.94214948  1
  Zn  Zn157  1  0.43738069  0.68630092  0.43988160  1
  Zn  Zn158  1  0.43567031  0.69056006  0.94188485  1
  Zn  Zn159  1  0.93198273  0.18651201  0.43278148  1
  Zn  Zn160  1  0.93703735  0.19191134  0.93703247  1
  Zn  Zn161  1  0.93942549  0.68532318  0.43735065  1
  Zn  Zn162  1  0.93746491  0.68686461  0.93535126  1
  Zn  Zn163  1  0.06165377  0.31449654  0.05816156  1
  Zn  Zn164  1  0.06577564  0.31338910  0.56130485  1
  Zn  Zn165  1  0.09765341  0.83390364  0.04206918  1
  Zn  Zn166  1  0.06143935  0.81807500  0.56258749  1
  Zn  Zn167  1  0.56484739  0.30994264  0.06368097  1
  Zn  Zn168  1  0.56278612  0.31507847  0.56252662  1
  Zn  Zn169  1  0.55992471  0.81588949  0.06020035  1
  Zn  Zn170  1  0.56444569  0.81479739  0.56075166  1
  O  O171  1  0.12229990  0.12255429  0.11214963  1
  O  O172  1  0.12190545  0.11060541  0.62707308  1
  O  O173  1  0.11485267  0.62247775  0.11200500  1
  O  O174  1  0.12279419  0.61722337  0.62006191  1
  O  O175  1  0.61356369  0.13033845  0.11553597  1
  O  O176  1  0.61731706  0.11759425  0.63005600  1
  O  O177  1  0.61757335  0.61752440  0.12252187  1
  O  O178  1  0.61622849  0.62744468  0.61876066  1
  O  O179  1  0.38546675  0.38356346  0.37362611  1
  O  O180  1  0.38305168  0.37860446  0.88026916  1
  O  O181  1  0.38337509  0.88158419  0.38330892  1
  O  O182  1  0.38795030  0.87044308  0.86715234  1
  O  O183  1  0.88406623  0.38154357  0.37467377  1
  O  O184  1  0.86976304  0.39011182  0.87726578  1
  O  O185  1  0.88392665  0.88098686  0.37300912  1
  O  O186  1  0.87756090  0.88284811  0.87809162  1
  O  O187  1  0.25986427  0.01025631  0.37766116  1
  O  O188  1  0.24634796  0.00363388  0.85888059  1
  O  O189  1  0.25487946  0.50110969  0.37331562  1
  O  O190  1  0.26209521  0.50346751  0.87414919  1
  O  O191  1  0.76248060  -0.00535632  0.38034144  1
  O  O192  1  0.76609923  0.00692835  0.87959144  1
  O  O193  1  0.76286893  0.49181740  0.37650581  1
  O  O194  1  0.75349954  0.50899597  0.86965959  1
  O  O195  1  0.24568841  0.49697623  0.13405657  1
  O  O196  1  0.24532075  0.48536687  0.61871387  1
  O  O197  1  0.23051975  1.00358820  0.12675322  1
  O  O198  1  0.23907307  1.00439990  0.62486343  1
  O  O199  1  0.74115558  0.49337237  0.12452157  1
  O  O200  1  0.75062799  0.49321250  0.63221711  1
  O  O201  1  0.75475748  0.98641795  0.11723620  1
  O  O202  1  0.73782435  1.00336970  0.62094117  1
  O  O203  1  0.01042363  0.37990468  0.25954839  1
  O  O204  1  -0.00015903  0.36326389  0.75152557  1
  O  O205  1  0.00605987  0.86955151  0.26174032  1
  O  O206  1  0.01208638  0.86796666  0.74893392  1
  O  O207  1  0.50069776  0.36928951  0.25943723  1
  O  O208  1  0.51489903  0.38089936  0.75512843  1
  O  O209  1  0.51318757  0.87340568  0.25864181  1
  O  O210  1  0.50959642  0.88362183  0.76720181  1
  O  O211  1  0.50252661  0.13030105  0.23942761  1
  O  O212  1  0.49679722  0.11995073  0.74111198  1
  O  O213  1  0.49973821  0.62743639  0.24128268  1
  O  O214  1  0.49015640  0.62270620  0.74187822  1
  O  O215  1  0.97803627  0.13214175  0.25823053  1
  O  O216  1  0.98888847  0.13760102  0.74829734  1
  O  O217  1  0.99365363  0.63076055  0.24473223  1
  O  O218  1  1.00685464  0.63538758  0.73543958  1
  O  O219  1  0.37789856  0.26078573  0.01367070  1
  O  O220  1  0.36508235  0.25159868  0.50931589  1
  O  O221  1  0.37176889  0.75219190  0.00624115  1
  O  O222  1  0.36953051  0.75655908  0.50891402  1
  O  O223  1  0.86339999  0.24589287  0.01287912  1
  O  O224  1  0.86809192  0.25199912  0.51040292  1
  O  O225  1  0.87003235  0.75680659  0.00309349  1
  O  O226  1  0.88227491  0.74944807  0.51355167  1
  O  O227  1  0.13382852  0.25341739  0.48989448  1
  O  O228  1  0.12423894  0.23836291  0.99618454  1
  O  O229  1  0.13348264  0.74829108  0.49815217  1
  O  O230  1  0.12151071  0.73795378  0.97980894  1
  O  O231  1  0.64116955  0.25411853  0.50241823  1
  O  O232  1  0.63658670  0.24241490  0.99587558  1
  O  O233  1  0.61922230  0.74439241  0.48446628  1
  O  O234  1  0.63436985  0.75406182  0.98940445  1
  O  O235  1  0.49543833  0.24474054  0.13209409  1
  O  O236  1  0.49587091  0.23809650  0.61269584  1
  O  O237  1  0.50247342  0.73887453  0.12355060  1
  O  O238  1  0.49144624  0.73828770  0.61699742  1
  O  O239  1  0.98635203  0.25215777  0.12489354  1
  O  O240  1  0.99290924  0.24949666  0.62934239  1
  O  O241  1  0.99323855  0.73909941  0.13389464  1
  O  O242  1  0.99630853  0.74348594  0.62866964  1
  O  O243  1  0.00575552  0.26239634  0.38370481  1
  O  O244  1  0.00570616  0.25392027  0.86767198  1
  O  O245  1  0.00807381  0.75628099  0.37058273  1
  O  O246  1  0.00618524  0.74832589  0.86233378  1
  O  O247  1  0.49573910  0.25732632  0.37056931  1
  O  O248  1  0.52011892  0.25944268  0.88670552  1
  O  O249  1  0.49933809  0.76289989  0.37663986  1
  O  O250  1  0.50907567  0.76625904  0.88405693  1
  O  O251  1  0.25073588  0.13954553  0.48784915  1
  O  O252  1  0.23554929  0.12524546  0.99928223  1
  O  O253  1  0.24583061  0.63244032  0.49653988  1
  O  O254  1  0.23849593  0.62240944  0.97829571  1
  O  O255  1  0.75562607  0.13863016  0.49749965  1
  O  O256  1  0.74393919  0.13060720  0.99568867  1
  O  O257  1  0.73525355  0.62081217  0.50610296  1
  O  O258  1  0.74775247  0.63921093  0.99394363  1
  O  O259  1  0.25481567  0.37590530  0.01312701  1
  O  O260  1  0.24679897  0.36212453  0.51033264  1
  O  O261  1  0.21599632  0.86866368  0.00772138  1
  O  O262  1  0.26434932  0.86912006  0.49609630  1
  O  O263  1  0.75381475  0.36682932  0.01241059  1
  O  O264  1  0.75132350  0.37186713  0.51327729  1
  O  O265  1  0.75856945  0.86627189  0.00484683  1
  O  O266  1  0.75323841  0.87091905  0.51065884  1
  O  O267  1  0.13539943  0.48854171  0.25328040  1
  O  O268  1  0.12285302  0.49793665  0.73572977  1
  O  O269  1  0.12043700  0.99653199  0.24428753  1
  O  O270  1  0.13045095  0.99643330  0.73995378  1
  O  O271  1  0.62770515  0.49863141  0.24155968  1
  O  O272  1  0.63645274  0.49279222  0.74944154  1
  O  O273  1  0.62392519  0.98442280  0.25449970  1
  O  O274  1  0.62362997  0.99301980  0.74122358  1
  O  O275  1  0.37821006  -0.00194793  0.26638123  1
  O  O276  1  0.36062284  0.00383101  0.74549046  1
  O  O277  1  0.36158007  0.50028850  0.26207259  1
  O  O278  1  0.38217816  0.50714488  0.76155408  1
  O  O279  1  0.87939744  0.00899799  0.25613092  1
  O  O280  1  0.88298986  0.00833588  0.75550098  1
  O  O281  1  0.87267477  0.50810752  0.25898734  1
  O  O282  1  0.86018139  0.49645365  0.75951745  1
  O  O283  1  0.11905690  0.36705329  0.36914468  1
  O  O284  1  0.11918444  0.37039013  0.87084696  1
  O  O285  1  0.11890653  0.87158364  0.37064377  1
  O  O286  1  0.12159259  0.86571372  0.86211357  1
  O  O287  1  0.61037869  0.37164242  0.37520522  1
  O  O288  1  0.62679146  0.36914584  0.86894307  1
  O  O289  1  0.62095203  0.86535300  0.36876377  1
  O  O290  1  0.62271337  0.87134630  0.86914261  1
  O  O291  1  0.38773962  0.13763714  0.12164252  1
  O  O292  1  0.38522275  0.13337686  0.62509214  1
  O  O293  1  0.39437034  0.60563947  0.13032497  1
  O  O294  1  0.38040995  0.62991211  0.63176431  1
  O  O295  1  0.87297057  0.13554395  0.13447073  1
  O  O296  1  0.87780431  0.13209854  0.63067790  1
  O  O297  1  0.87990728  0.63014307  0.13054015  1
  O  O298  1  0.88639792  0.63501333  0.62237653  1
  O  O299  1  0.25941494  0.25727262  0.12496800  1
  O  O300  1  0.25532835  0.25747208  0.61757961  1
  O  O301  1  0.26195893  0.70950814  0.10985841  1
  O  O302  1  0.25849951  0.74653026  0.61362863  1
  O  O303  1  0.75054459  0.25654111  0.12072920  1
  O  O304  1  0.75651676  0.25566002  0.61658861  1
  O  O305  1  0.75561551  0.75562768  0.11629060  1
  O  O306  1  0.76769209  0.74307992  0.63298049  1
  O  O307  1  0.24486841  0.24804327  0.38012666  1
  O  O308  1  0.22948384  0.26410577  0.87998704  1
  O  O309  1  0.24651322  0.74640762  0.38608846  1
  O  O310  1  0.24142872  0.74164533  0.87089586  1
  O  O311  1  0.75194649  0.25793128  0.39257090  1
  O  O312  1  0.74530796  0.24548313  0.88434109  1
  O  O313  1  0.74103240  0.75108093  0.37413475  1
  O  O314  1  0.74671420  0.74592574  0.87945797  1
  O  O315  1  -0.00075172  0.11599223  -0.00165365  1
  O  O316  1  -0.00319928  0.11322688  0.49703411  1
  O  O317  1  0.00529321  0.62782471  0.00732600  1
  O  O318  1  0.00834809  0.61971989  0.50963763  1
  O  O319  1  0.50558766  0.11189402  0.00435137  1
  O  O320  1  0.49676261  0.11289733  0.50632387  1
  O  O321  1  0.50357220  0.61300057  0.00374126  1
  O  O322  1  0.50543279  0.61658818  0.50580777  1
  O  O323  1  0.50400172  0.39069086  0.49535483  1
  O  O324  1  0.49945886  0.38519060  0.99695991  1
  O  O325  1  0.49140934  0.88227979  0.49436264  1
  O  O326  1  0.50407379  0.89022925  0.99105141  1
  O  O327  1  0.99861407  0.38243355  0.49373517  1
  O  O328  1  0.99276798  0.37779060  0.99927790  1
  O  O329  1  0.99879806  0.88181860  0.48704376  1
  O  O330  1  0.99972696  0.88562165  0.99453143  1
  O  O331  1  0.49222228  0.49594352  0.38003710  1
  O  O332  1  0.49820290  0.49485993  0.88220544  1
  O  O333  1  0.49561696  0.99131852  0.38379554  1
  O  O334  1  0.49875368  0.99099134  0.88850617  1
  O  O335  1  0.99481800  0.49042518  0.38113565  1
  O  O336  1  0.98017999  0.50351445  0.86497300  1
  O  O337  1  0.99505955  0.99337932  0.38056012  1
  O  O338  1  0.98961766  1.00158844  0.87991815  1
  O  O339  1  0.00911490  -0.00071199  0.11458587  1
  O  O340  1  0.00855085  0.00250951  0.61430973  1
  O  O341  1  0.00048892  0.51420130  0.13274235  1
  O  O342  1  0.00507557  0.50607767  0.62241865  1
  O  O343  1  0.49745686  0.00742462  0.11094649  1
  O  O344  1  0.50685202  0.00877290  0.61938915  1
  O  O345  1  0.51071680  0.50025829  0.11881198  1
  O  O346  1  0.49972283  0.51089936  0.61723806  1
  O  O347  1  0.24556841  0.38001874  0.24062062  1
  O  O348  1  0.25238610  0.36671556  0.73318526  1
  O  O349  1  0.23718378  0.88353422  0.26234054  1
  O  O350  1  0.23892998  0.88739624  0.74873466  1
  O  O351  1  0.74699506  0.37695368  0.24013295  1
  O  O352  1  0.74242199  0.37958097  0.74036074  1
  O  O353  1  0.73873609  0.87137758  0.24181249  1
  O  O354  1  0.73637048  0.87196188  0.74386595  1
  O  O355  1  0.24631773  0.12452984  0.26484484  1
  O  O356  1  0.25160301  0.11224520  0.74529294  1
  O  O357  1  0.24584124  0.61499883  0.25984265  1
  O  O358  1  0.26245410  0.62573831  0.75806916  1
  O  O359  1  0.76684604  0.13091292  0.25270361  1
  O  O360  1  0.76520186  0.13166529  0.75586754  1
  O  O361  1  0.76395184  0.62531156  0.24369374  1
  O  O362  1  0.74431224  0.61680411  0.75877031  1
  O  O363  1  0.36763106  0.11685824  0.38012088  1
  O  O364  1  0.36474408  0.17922054  0.86505881  1
  O  O365  1  0.36745357  0.61755772  0.37414212  1
  O  O366  1  0.37138265  0.61830981  0.86785748  1
  O  O367  1  0.86778213  0.11591479  0.36665274  1
  O  O368  1  0.87127945  0.12032045  0.86715643  1
  O  O369  1  0.88250068  0.61492726  0.36646116  1
  O  O370  1  0.86171662  0.61750831  0.87710457  1
  O  O371  1  0.13259071  0.37449426  0.13214443  1
  O  O372  1  0.13601594  0.38043053  0.62814889  1
  O  O373  1  0.11545759  0.88624751  0.14129047  1
  O  O374  1  0.12193947  0.88973272  0.63054757  1
  O  O375  1  0.63241440  0.38260249  0.12619519  1
  O  O376  1  0.63182148  0.37853897  0.63282098  1
  O  O377  1  0.63220885  0.86867861  0.13899478  1
  O  O378  1  0.62034680  0.88288130  0.63517437  1
  O  O379  1  0.13010158  0.26152696  0.25844307  1
  O  O380  1  0.11628364  0.24799684  0.75695062  1
  O  O381  1  0.12281108  0.75867339  0.25482370  1
  O  O382  1  0.12122652  0.75678608  0.75227438  1
  O  O383  1  0.61029097  0.25386058  0.25057933  1
  O  O384  1  0.63379095  0.25927572  0.76074793  1
  O  O385  1  0.62270684  0.75494030  0.26417725  1
  O  O386  1  0.62443832  0.75822552  0.76298025  1
  O  O387  1  0.38802058  0.25596719  0.24204444  1
  O  O388  1  0.37882896  0.25553626  0.72513086  1
  O  O389  1  0.37882874  0.74645903  0.24362507  1
  O  O390  1  0.37097158  0.74375731  0.73676099  1
  O  O391  1  0.87348535  0.24478184  0.23798265  1
  O  O392  1  0.87874764  0.24663600  0.74019923  1
  O  O393  1  0.88149466  0.74344729  0.24742006  1
  O  O394  1  0.88893386  0.75427956  0.74161231  1
  O  O395  1  0.38185237  0.50596561  0.48847473  1
  O  O396  1  0.38526727  0.49496837  0.98828469  1
  O  O397  1  0.38156683  0.99385810  0.49553924  1
  O  O398  1  0.37880901  0.99684945  0.99896771  1
  O  O399  1  0.88275208  0.49953911  0.49373733  1
  O  O400  1  0.86456744  0.50137953  0.98449561  1
  O  O401  1  0.88490084  0.99618155  0.49113798  1
  O  O402  1  0.88232560  0.99530404  0.99372212  1
  O  O403  1  0.11713451  0.01247720  0.00283303  1
  O  O404  1  0.12007584  -0.00451416  0.51057224  1
  O  O405  1  0.12541965  0.51190160  -0.00393644  1
  O  O406  1  0.11991333  0.50301117  0.51062028  1
  O  O407  1  0.62736246  0.01035330  -0.00465169  1
  O  O408  1  0.61356409  -0.00777132  0.51071159  1
  O  O409  1  0.61944080  0.50166244  0.00756794  1
  O  O410  1  0.61639372  0.51035085  0.50081806  1
  O  O411  1  0.36874935  0.37272495  0.12279223  1
  O  O412  1  0.36597622  0.37386170  0.62154246  1
  O  O413  1  0.36528415  0.88074865  0.13539456  1
  O  O414  1  0.38492371  0.86710150  0.61808431  1
  O  O415  1  0.86771727  0.36411166  0.12863329  1
  O  O416  1  0.86721459  0.36757909  0.62532127  1
  O  O417  1  0.87036483  0.86908641  0.12250695  1
  O  O418  1  0.87756756  0.85943142  0.62419559  1
  O  O419  1  0.12808520  0.13802747  0.37069579  1
  O  O420  1  0.11700736  0.13352337  0.88924267  1
  O  O421  1  0.12880003  0.63022021  0.38191712  1
  O  O422  1  0.13034633  0.62827354  0.87249652  1
  O  O423  1  0.62899623  0.13054274  0.37392461  1
  O  O424  1  0.63009936  0.13065483  0.87994139  1
  O  O425  1  0.62211200  0.63916151  0.38114328  1
  O  O426  1  0.63327001  0.63480889  0.87640941  1
