# generated using pymatgen
data_V85Zn86O256
_symmetry_space_group_name_H-M   'P 1'
_cell_length_a   16.92901059
_cell_length_b   16.91992356
_cell_length_c   16.94099119
_cell_angle_alpha   90.11434444
_cell_angle_beta   89.96918771
_cell_angle_gamma   89.98264549
_symmetry_Int_Tables_number   1
_chemical_formula_structural   V85Zn86O256
_chemical_formula_sum   'V85 Zn86 O256'
_cell_volume   4852.52567524
_cell_formula_units_Z   1
loop_
 _symmetry_equiv_pos_site_id
 _symmetry_equiv_pos_as_xyz
  1  'x, y, z'
loop_
 _atom_site_type_symbol
 _atom_site_label
 _atom_site_symmetry_multiplicity
 _atom_site_fract_x
 _atom_site_fract_y
 _atom_site_fract_z
 _atom_site_occupancy
  V  V0  1  0.62946073  0.24118660  0.87388629  1
  V  V1  1  0.75393332  0.36879883  0.62783558  1
  V  V2  1  0.88795628  0.74710676  0.62651535  1
  V  V3  1  0.75366497  0.74776707  0.49680635  1
  V  V4  1  0.87061480  0.87815534  -0.00353837  1
  V  V5  1  0.49963563  0.75125575  0.75182395  1
  V  V6  1  0.37182904  0.37485722  0.50121081  1
  V  V7  1  0.88901578  0.63267532  0.25239806  1
  V  V8  1  0.36844101  0.00404823  0.37708173  1
  V  V9  1  0.62689525  0.37496076  0.25033530  1
  V  V10  1  0.12860758  0.24763726  0.87935018  1
  V  V11  1  0.62979887  0.37818258  0.75117681  1
  V  V12  1  0.12140910  0.75244598  0.36678852  1
  V  V13  1  0.12354088  0.52573462  0.12353962  1
  V  V14  1  0.36973429  0.62526432  0.75018894  1
  V  V15  1  0.63048162  0.50067192  0.62808023  1
  V  V16  1  0.62977701  0.62534493  0.49239349  1
  V  V17  1  0.50178465  0.24275843  0.74422646  1
  V  V18  1  0.24949428  0.23985942  0.49710796  1
  V  V19  1  0.12123600  0.50336156  0.62915311  1
  V  V20  1  0.93610385  0.19206639  0.57793619  1
  V  V21  1  0.24889750  0.75500547  0.50299194  1
  V  V22  1  0.62496767  0.87528788  0.74971104  1
  V  V23  1  0.62751726  0.88242948  0.25221956  1
  V  V24  1  -0.00009903  0.38097779  0.37196379  1
  V  V25  1  0.86848730  0.11643186  0.24621655  1
  V  V26  1  0.12831974  0.24532625  0.37259816  1
  V  V27  1  0.74728325  0.62215614  0.86240351  1
  V  V28  1  0.49890019  0.75175610  0.24934754  1
  V  V29  1  0.13361378  0.86602638  0.74025327  1
  V  V30  1  0.61239467  0.12181994  0.00434742  1
  V  V31  1  0.50018373  0.37367311  0.37344775  1
  V  V32  1  0.88059146  0.74864522  0.12974900  1
  V  V33  1  0.88486185  0.87921321  0.50345565  1
  V  V34  1  0.74851716  0.51374656  0.25007371  1
  V  V35  1  0.87715365  0.24936263  0.12701390  1
  V  V36  1  0.37300468  0.50062207  0.37179048  1
  V  V37  1  0.11647248  0.62774671  0.50489507  1
  V  V38  1  0.75086397  0.24270664  -0.00351528  1
  V  V39  1  0.25211047  0.11654303  0.87401958  1
  V  V40  1  0.86895950  0.50545808  0.37475912  1
  V  V41  1  0.87264330  0.12955295  0.75229326  1
  V  V42  1  0.37802073  0.23993386  0.62269739  1
  V  V43  1  0.36272569  0.75260222  0.11783271  1
  V  V44  1  0.49884581  0.87987667  0.37989934  1
  V  V45  1  0.37540194  0.88189318  0.50460955  1
  V  V46  1  0.37720097  0.24610674  0.12482016  1
  V  V47  1  0.74927319  0.00537427  0.74970135  1
  V  V48  1  0.87477661  0.37564970  -0.00015194  1
  V  V49  1  0.24920186  0.62147938  0.37598765  1
  V  V50  1  0.60722340  0.00266879  0.12421892  1
  V  V51  1  0.88866625  0.62701264  0.74543663  1
  V  V52  1  0.87027160  0.49829706  0.86675416  1
  V  V53  1  0.61412449  0.12081295  0.50106386  1
  V  V54  1  0.87565743  0.37773713  0.50419521  1
  V  V55  1  0.61259677  0.00190998  0.62019160  1
  V  V56  1  0.00307296  0.37663887  0.87724147  1
  V  V57  1  0.87162943  -0.00391471  0.37486270  1
  V  V58  1  0.62517890  0.75023358  0.87493457  1
  V  V59  1  0.62987689  0.50166865  0.12504429  1
  V  V60  1  0.37453459  0.50001237  0.87500419  1
  V  V61  1  0.50209475  0.37423792  0.87409669  1
  V  V62  1  0.36962190  0.75577709  0.62728571  1
  V  V63  1  0.37433197  0.37540088  0.00175288  1
  V  V64  1  0.00603662  0.87765317  0.36208175  1
  V  V65  1  0.49972375  0.62473554  0.62502992  1
  V  V66  1  0.12265049  0.01412072  0.62076198  1
  V  V67  1  0.24833060  0.38325207  0.12769851  1
  V  V68  1  0.50005265  0.50017404  0.50019389  1
  V  V69  1  0.50214194  0.23869400  0.24606491  1
  V  V70  1  0.24046481  -0.01818498  0.24890412  1
  V  V71  1  0.12920955  0.38592004  0.24888781  1
  V  V72  1  0.50192695  0.50125460  0.00224501  1
  V  V73  1  0.62967242  0.24648431  0.37544435  1
  V  V74  1  0.36945099  0.88609227  0.00146353  1
  V  V75  1  0.12276514  0.74622905  0.88377648  1
  V  V76  1  0.74954360  0.88553285  0.12846113  1
  V  V77  1  0.36861911  0.62409541  0.25005021  1
  V  V78  1  0.74742860  0.74988437  0.00139367  1
  V  V79  1  0.87450256  0.00498645  0.87353233  1
  V  V80  1  0.24578455  0.62797202  0.89008911  1
  V  V81  1  0.00911402  0.11830654  0.12520542  1
  V  V82  1  0.36024906  0.12559348  0.25216241  1
  V  V83  1  0.00128967  0.24384914  0.75284320  1
  V  V84  1  -0.00079276  0.87061559  0.86311922  1
  Zn  Zn85  1  0.25010467  0.24931499  0.00105441  1
  Zn  Zn86  1  0.37807924  0.11930087  0.74627642  1
  Zn  Zn87  1  0.11584313  0.12355289  0.49793325  1
  Zn  Zn88  1  0.24972444  0.49717681  0.75075397  1
  Zn  Zn89  1  0.62954021  0.62306057  0.00092300  1
  Zn  Zn90  1  0.12970468  0.37406431  0.75071490  1
  Zn  Zn91  1  0.50062177  0.62631032  0.12661282  1
  Zn  Zn92  1  -0.00471291  0.50734259  0.50587942  1
  Zn  Zn93  1  0.38855708  0.00363408  0.87580581  1
  Zn  Zn94  1  0.75355991  0.37735969  0.12642074  1
  Zn  Zn95  1  0.75201698  0.24246894  0.50186350  1
  Zn  Zn96  1  0.13483317  -0.04131655  0.12103473  1
  Zn  Zn97  1  0.00738656  -0.00290261  -0.00239821  1
  Zn  Zn98  1  0.25185622  0.37544110  0.62939859  1
  Zn  Zn99  1  0.25406655  -0.00733107  0.74420004  1
  Zn  Zn100  1  0.74485337  0.11300188  0.37146955  1
  Zn  Zn101  1  0.75260925  0.87386267  0.62400108  1
  Zn  Zn102  1  0.01099749  0.52107435  -0.00083458  1
  Zn  Zn103  1  0.00160400  0.25278951  0.24576560  1
  Zn  Zn104  1  0.12881452  0.11438308  0.00299619  1
  Zn  Zn105  1  0.50554931  0.88487861  0.88952689  1
  Zn  Zn106  1  0.62920261  0.74917749  0.37277742  1
  Zn  Zn107  1  0.18889115  0.19618963  0.18869900  1
  Zn  Zn108  1  0.19050918  0.18826358  0.68925763  1
  Zn  Zn109  1  0.15604027  0.74495043  0.15943383  1
  Zn  Zn110  1  0.18578697  0.68829848  0.69056061  1
  Zn  Zn111  1  0.69001062  0.18448638  0.18371411  1
  Zn  Zn112  1  0.68762642  0.18503776  0.68497886  1
  Zn  Zn113  1  0.68753582  0.69119446  0.18654663  1
  Zn  Zn114  1  0.69212284  0.68996522  0.68173736  1
  Zn  Zn115  1  0.31000608  0.31383676  0.31112759  1
  Zn  Zn116  1  0.31281830  0.31000795  0.81122229  1
  Zn  Zn117  1  0.31256452  0.80866025  0.31580013  1
  Zn  Zn118  1  0.31143912  0.81319215  0.82368159  1
  Zn  Zn119  1  0.81116205  0.31506538  0.30972382  1
  Zn  Zn120  1  0.81167818  0.31069109  0.81112803  1
  Zn  Zn121  1  0.81129948  0.81412705  0.31498491  1
  Zn  Zn122  1  0.81124631  0.81166259  0.80898844  1
  Zn  Zn123  1  0.18740807  0.43922185  0.44158631  1
  Zn  Zn124  1  0.18743714  0.44227970  0.94238941  1
  Zn  Zn125  1  0.18719385  0.94017411  0.44026261  1
  Zn  Zn126  1  0.18947543  0.92969857  0.94054797  1
  Zn  Zn127  1  0.69073988  0.43576676  0.43870094  1
  Zn  Zn128  1  0.69229333  0.43496618  0.93830962  1
  Zn  Zn129  1  0.69207460  0.93356793  0.44028292  1
  Zn  Zn130  1  0.68556114  0.94289505  0.93634970  1
  Zn  Zn131  1  0.30668523  0.06316693  0.06659306  1
  Zn  Zn132  1  0.30393761  0.05911041  0.56501777  1
  Zn  Zn133  1  0.31242931  0.56312290  0.06890516  1
  Zn  Zn134  1  0.30747068  0.56378948  0.56323316  1
  Zn  Zn135  1  0.80992325  0.06380944  0.06088184  1
  Zn  Zn136  1  0.80154172  0.05591141  0.55701988  1
  Zn  Zn137  1  0.84192445  0.58067035  0.04637390  1
  Zn  Zn138  1  0.80978196  0.56185172  0.56613619  1
  Zn  Zn139  1  0.43945166  0.43634345  0.18891462  1
  Zn  Zn140  1  0.43960879  0.43406225  0.68704457  1
  Zn  Zn141  1  0.43004970  0.93444500  0.18839813  1
  Zn  Zn142  1  0.43704733  0.93758636  0.69317087  1
  Zn  Zn143  1  0.94200705  0.44510576  0.18509152  1
  Zn  Zn144  1  0.94110563  0.43680732  0.68987991  1
  Zn  Zn145  1  0.93966273  0.93718777  0.18574494  1
  Zn  Zn146  1  0.94214648  0.93965627  0.68558417  1
  Zn  Zn147  1  0.05768650  0.06003715  0.30954302  1
  Zn  Zn148  1  0.06535314  0.05772580  0.80789087  1
  Zn  Zn149  1  0.06556777  0.56435961  0.31249352  1
  Zn  Zn150  1  0.06257251  0.56208383  0.81371527  1
  Zn  Zn151  1  0.55701518  0.06006778  0.31252276  1
  Zn  Zn152  1  0.56309823  0.06182951  0.81336220  1
  Zn  Zn153  1  0.55911776  0.56369433  0.31200556  1
  Zn  Zn154  1  0.56165976  0.56307701  0.81209061  1
  Zn  Zn155  1  0.43847844  0.18599148  0.43458460  1
  Zn  Zn156  1  0.43715742  0.18839320  0.93537187  1
  Zn  Zn157  1  0.43941295  0.69116218  0.43830321  1
  Zn  Zn158  1  0.43955029  0.68791309  0.93800400  1
  Zn  Zn159  1  0.93875004  0.18933394  0.41491033  1
  Zn  Zn160  1  0.94104735  0.18375819  0.93945830  1
  Zn  Zn161  1  0.93762186  0.69217840  0.43377156  1
  Zn  Zn162  1  0.93773055  0.69184382  0.93272237  1
  Zn  Zn163  1  0.06228604  0.31428684  0.06191683  1
  Zn  Zn164  1  0.06864511  0.32208147  0.55847524  1
  Zn  Zn165  1  0.05106058  0.81157934  0.04972450  1
  Zn  Zn166  1  0.06166813  0.81467955  0.56009860  1
  Zn  Zn167  1  0.56352047  0.31312292  0.06339425  1
  Zn  Zn168  1  0.56267288  0.31070782  0.56124194  1
  Zn  Zn169  1  0.55882358  0.81491520  0.06562601  1
  Zn  Zn170  1  0.56109436  0.81312433  0.56334979  1
  O  O171  1  0.11214016  0.13736679  0.12611056  1
  O  O172  1  0.12393396  0.11929794  0.62367661  1
  O  O173  1  0.13164447  0.62322192  0.13301889  1
  O  O174  1  0.12984839  0.61550274  0.61880861  1
  O  O175  1  0.62725389  0.11474931  0.11848229  1
  O  O176  1  0.62840889  0.11102876  0.61758684  1
  O  O177  1  0.62239133  0.61564202  0.12361973  1
  O  O178  1  0.62052367  0.61700661  0.61984245  1
  O  O179  1  0.37947215  0.37982204  0.38055736  1
  O  O180  1  0.38204222  0.37939525  0.88086875  1
  O  O181  1  0.38034001  0.87938616  0.38401355  1
  O  O182  1  0.38067925  0.87632017  0.88854347  1
  O  O183  1  0.88106790  0.38100078  0.38110113  1
  O  O184  1  0.88040978  0.38072571  0.87673858  1
  O  O185  1  0.88458602  0.87823540  0.38059665  1
  O  O186  1  0.87924083  0.88322477  0.87200258  1
  O  O187  1  0.25993755  -0.00441153  0.36530532  1
  O  O188  1  0.24927811  0.01219833  0.87518778  1
  O  O189  1  0.25596656  0.51338502  0.38382041  1
  O  O190  1  0.25597965  0.51056026  0.87385390  1
  O  O191  1  0.76521983  -0.00587043  0.37410911  1
  O  O192  1  0.75782906  -0.00515663  0.85879297  1
  O  O193  1  0.76258443  0.49448037  0.36801785  1
  O  O194  1  0.75805205  0.50802358  0.87593215  1
  O  O195  1  0.23934953  0.49174160  0.12399109  1
  O  O196  1  0.23815873  0.49838271  0.62667960  1
  O  O197  1  0.24678003  1.00147766  0.14420969  1
  O  O198  1  0.23292259  0.99941692  0.62947987  1
  O  O199  1  0.74057833  0.50008209  0.13224949  1
  O  O200  1  0.73649659  0.48769201  0.61943783  1
  O  O201  1  0.74585338  0.98802742  0.12246234  1
  O  O202  1  0.74339428  0.99474292  0.63684887  1
  O  O203  1  0.00667287  0.37786023  0.25663512  1
  O  O204  1  -0.00056554  0.36330293  0.76194779  1
  O  O205  1  -0.00347948  0.87266101  0.26369742  1
  O  O206  1  0.01007700  0.87741154  0.75869344  1
  O  O207  1  0.50707483  0.36631039  0.25666100  1
  O  O208  1  0.51185215  0.36644048  0.75338118  1
  O  O209  1  0.50409899  0.86916049  0.25689944  1
  O  O210  1  0.51308687  0.86854584  0.75133028  1
  O  O211  1  0.48992298  0.13607409  0.25293427  1
  O  O212  1  0.50115681  0.13939488  0.75221089  1
  O  O213  1  0.49054063  0.63528089  0.25363442  1
  O  O214  1  0.48980528  0.63051079  0.74595328  1
  O  O215  1  0.98934850  0.12880176  0.24162607  1
  O  O216  1  0.99355788  0.13663060  0.75315388  1
  O  O217  1  0.98724892  0.62437959  0.25074912  1
  O  O218  1  0.98697538  0.62516685  0.75251938  1
  O  O219  1  0.37707846  0.25795691  0.00936204  1
  O  O220  1  0.37079497  0.25558755  0.50251530  1
  O  O221  1  0.37831667  0.74325777  0.01672069  1
  O  O222  1  0.36934055  0.75683993  0.50844525  1
  O  O223  1  0.87021276  0.25623700  0.00292277  1
  O  O224  1  0.87974435  0.25140103  0.50778785  1
  O  O225  1  0.86004507  0.75920727  0.00418921  1
  O  O226  1  0.87024536  0.75286461  0.50695425  1
  O  O227  1  0.13302222  0.25188116  0.49234525  1
  O  O228  1  0.12448061  0.24897695  0.98730674  1
  O  O229  1  0.13288109  0.74496063  0.49652512  1
  O  O230  1  0.11893716  0.74358084  0.98358465  1
  O  O231  1  0.62500680  0.24248408  0.49089861  1
  O  O232  1  0.63195529  0.24719775  0.99427869  1
  O  O233  1  0.63225700  0.74182956  0.50237993  1
  O  O234  1  0.63371321  0.74973520  0.99659031  1
  O  O235  1  0.48990355  0.25975665  0.13577239  1
  O  O236  1  0.49232833  0.25528042  0.63259612  1
  O  O237  1  0.49463292  0.74777462  0.13885642  1
  O  O238  1  0.49031917  0.74401245  0.63105995  1
  O  O239  1  0.98848134  0.24476328  0.12250434  1
  O  O240  1  0.99966183  0.25506630  0.63169988  1
  O  O241  1  0.97867405  0.74833040  0.11731492  1
  O  O242  1  0.98752109  0.74824215  0.61965194  1
  O  O243  1  0.00703681  0.26744385  0.36998017  1
  O  O244  1  0.00646855  0.25478347  0.87013170  1
  O  O245  1  0.00876526  0.76391804  0.37966763  1
  O  O246  1  0.00587019  0.75759249  0.87237106  1
  O  O247  1  0.51065750  0.25411137  0.36686053  1
  O  O248  1  0.50865827  0.25727561  0.86796076  1
  O  O249  1  0.50019443  0.76086710  0.36576922  1
  O  O250  1  0.50982018  0.74830323  0.86785134  1
  O  O251  1  0.24741354  0.13768985  0.49743449  1
  O  O252  1  0.24768377  0.12912909  0.98993149  1
  O  O253  1  0.24409538  0.63632607  0.49520419  1
  O  O254  1  0.25513858  0.62177461  0.98775083  1
  O  O255  1  0.73782535  0.12641590  0.49244746  1
  O  O256  1  0.74246370  0.13844330  1.00373463  1
  O  O257  1  0.74045968  0.63139865  0.50512192  1
  O  O258  1  0.75160222  0.63487566  0.98824590  1
  O  O259  1  0.25750718  0.37444855  0.00799417  1
  O  O260  1  0.26247826  0.36907302  0.49937844  1
  O  O261  1  0.26949788  0.86596243  -0.00523248  1
  O  O262  1  0.25858283  0.86194681  0.49476900  1
  O  O263  1  0.75644190  0.36195586  0.00407127  1
  O  O264  1  0.76287697  0.36866908  0.50419778  1
  O  O265  1  0.75134582  0.87023758  0.00562400  1
  O  O266  1  0.76356586  0.86677108  0.50325132  1
  O  O267  1  0.12403352  0.49366312  0.24042654  1
  O  O268  1  0.12535764  0.49944316  0.74000005  1
  O  O269  1  0.13887543  0.99997941  0.25393746  1
  O  O270  1  0.12961441  0.98696782  0.74251838  1
  O  O271  1  0.62954202  0.49738837  0.24550399  1
  O  O272  1  0.61814042  0.49049693  0.74058522  1
  O  O273  1  0.62056081  0.98974602  0.24377426  1
  O  O274  1  0.63122561  0.99624140  0.74108681  1
  O  O275  1  0.36445592  0.00691998  0.25580641  1
  O  O276  1  0.37069864  0.00234299  0.75528185  1
  O  O277  1  0.38361828  0.50919551  0.26047858  1
  O  O278  1  0.37885028  0.50842852  0.75666340  1
  O  O279  1  0.87894268  0.00691731  0.25663795  1
  O  O280  1  0.87031653  0.00978749  0.75157520  1
  O  O281  1  0.86867751  0.51157549  0.25411986  1
  O  O282  1  0.87819271  0.50841846  0.75859955  1
  O  O283  1  0.11795487  0.37683598  0.36916155  1
  O  O284  1  0.11801166  0.37030214  0.87604014  1
  O  O285  1  0.11311295  0.86965839  0.38124362  1
  O  O286  1  0.11787405  0.86606491  0.86862447  1
  O  O287  1  0.62106592  0.36748507  0.37116421  1
  O  O288  1  0.62211956  0.36941431  0.86757103  1
  O  O289  1  0.61692784  0.87664953  0.36974427  1
  O  O290  1  0.62579644  0.86789919  0.86754458  1
  O  O291  1  0.36911393  0.13924402  0.13289875  1
  O  O292  1  0.37198423  0.13634191  0.62271103  1
  O  O293  1  0.37989582  0.62959983  0.13510973  1
  O  O294  1  0.37968438  0.63032342  0.63209815  1
  O  O295  1  0.88213595  0.12990623  0.12850411  1
  O  O296  1  0.87395413  0.12635137  0.62787602  1
  O  O297  1  0.85870452  0.63535047  0.14710442  1
  O  O298  1  0.87027940  0.62754377  0.63873908  1
  O  O299  1  0.25936687  0.26339268  0.12357232  1
  O  O300  1  0.25804063  0.25345444  0.61603963  1
  O  O301  1  0.26621187  0.73929581  0.12906216  1
  O  O302  1  0.26232256  0.74436312  0.61909716  1
  O  O303  1  0.76313015  0.25227727  0.11886709  1
  O  O304  1  0.74364965  0.26432664  0.62140919  1
  O  O305  1  0.75182827  0.75980233  0.11659569  1
  O  O306  1  0.75979694  0.75290177  0.61385377  1
  O  O307  1  0.23853468  0.25797227  0.38272676  1
  O  O308  1  0.24317659  0.24213858  0.87724204  1
  O  O309  1  0.24598187  0.74067934  0.38459863  1
  O  O310  1  0.24238324  0.73412901  0.87241882  1
  O  O311  1  0.73734008  0.25034614  0.37442535  1
  O  O312  1  0.74048675  0.25579061  0.88314223  1
  O  O313  1  0.74742461  0.75468459  0.39095660  1
  O  O314  1  0.74397922  0.74438731  0.88029859  1
  O  O315  1  0.00311639  0.11834727  0.00972995  1
  O  O316  1  -0.00795839  0.14046968  0.51011901  1
  O  O317  1  -0.05251601  0.61257665  0.00725973  1
  O  O318  1  0.01296713  0.62611288  0.49466804  1
  O  O319  1  0.51361982  0.13598608  0.00177227  1
  O  O320  1  0.51385419  0.12550252  0.49497683  1
  O  O321  1  0.50421040  0.61114481  0.00003049  1
  O  O322  1  0.50565953  0.62102505  0.50731568  1
  O  O323  1  0.49020792  0.37795682  0.49376861  1
  O  O324  1  0.49702387  0.38486681  0.99581432  1
  O  O325  1  0.48928681  0.86868727  0.49094615  1
  O  O326  1  0.47994092  0.86343331  1.00194170  1
  O  O327  1  0.98896434  0.37862753  0.49284981  1
  O  O328  1  0.99187915  0.37466285  0.98879578  1
  O  O329  1  0.98824975  0.87188808  0.49195721  1
  O  O330  1  0.98631412  0.87867646  0.98335067  1
  O  O331  1  0.49526125  0.49370831  0.38255205  1
  O  O332  1  0.49580394  0.49465045  0.88239767  1
  O  O333  1  0.48541644  0.98737933  0.36904906  1
  O  O334  1  0.50302517  0.99876169  0.87931455  1
  O  O335  1  0.98979664  0.49399030  0.37614896  1
  O  O336  1  0.99290146  0.49279664  0.87909156  1
  O  O337  1  0.99178885  0.98662658  0.37323973  1
  O  O338  1  0.99057552  0.99303764  0.87285543  1
  O  O339  1  0.00705915  0.00642820  0.12407441  1
  O  O340  1  0.02267950  -0.00511725  0.62906128  1
  O  O341  1  0.01949870  0.50249220  0.12330608  1
  O  O342  1  0.01494658  0.49691950  0.62335094  1
  O  O343  1  0.50801111  -0.00378774  0.12917674  1
  O  O344  1  0.51431284  -0.00201396  0.62884736  1
  O  O345  1  0.50968302  0.50007235  0.11853138  1
  O  O346  1  0.50959433  0.50278570  0.61864746  1
  O  O347  1  0.24183119  0.37608245  0.24181254  1
  O  O348  1  0.24848442  0.37864627  0.74869390  1
  O  O349  1  0.25150392  0.88269686  0.25268267  1
  O  O350  1  0.23666543  0.87330940  0.75785551  1
  O  O351  1  0.74365721  0.38647489  0.24778343  1
  O  O352  1  0.73875244  0.37224407  0.74348425  1
  O  O353  1  0.73851020  0.86876059  0.24171469  1
  O  O354  1  0.73819595  0.87992684  0.74706511  1
  O  O355  1  0.25848263  0.12823489  0.25264515  1
  O  O356  1  0.25374150  0.12609911  0.76390593  1
  O  O357  1  0.26609758  0.62788940  0.26418601  1
  O  O358  1  0.26240837  0.62260613  0.75370195  1
  O  O359  1  0.76424167  0.12846068  0.25105364  1
  O  O360  1  0.75927270  0.11881033  0.74658346  1
  O  O361  1  0.74576907  0.61573983  0.25571395  1
  O  O362  1  0.75188330  0.62720456  0.75929754  1
  O  O363  1  0.37872980  0.11447460  0.36720773  1
  O  O364  1  0.36332933  0.12614122  0.87455743  1
  O  O365  1  0.36988090  0.62148430  0.37389221  1
  O  O366  1  0.36694252  0.62223878  0.86888357  1
  O  O367  1  0.87335260  0.11453657  0.36475368  1
  O  O368  1  0.87844855  0.11400738  0.86714426  1
  O  O369  1  0.87654625  0.61924852  0.36405394  1
  O  O370  1  0.86685119  0.61910518  0.85986164  1
  O  O371  1  0.13289693  0.37434662  0.13290039  1
  O  O372  1  0.12955119  0.38870659  0.62668954  1
  O  O373  1  0.11960770  0.84748716  0.12826153  1
  O  O374  1  0.12471930  0.87039442  0.63841104  1
  O  O375  1  0.62669867  0.38450308  0.13244214  1
  O  O376  1  0.62957743  0.38105817  0.63079128  1
  O  O377  1  0.62952993  0.88240528  0.13213837  1
  O  O378  1  0.62601102  0.88441659  0.63061480  1
  O  O379  1  0.12329702  0.26499643  0.25767634  1
  O  O380  1  0.11781094  0.25085245  0.76102682  1
  O  O381  1  0.12830490  0.73783629  0.26946245  1
  O  O382  1  0.12636820  0.76071220  0.75692050  1
  O  O383  1  0.61946670  0.25148199  0.25341314  1
  O  O384  1  0.62165940  0.25468465  0.75588543  1
  O  O385  1  0.61683012  0.76018886  0.25197738  1
  O  O386  1  0.62281593  0.75756536  0.75181981  1
  O  O387  1  0.38103010  0.24480924  0.24648838  1
  O  O388  1  0.38502464  0.24967485  0.73961731  1
  O  O389  1  0.38130272  0.74523983  0.24422468  1
  O  O390  1  0.37752128  0.74585238  0.74511264  1
  O  O391  1  0.87744585  0.24549393  0.24115865  1
  O  O392  1  0.88100454  0.23787454  0.75342188  1
  O  O393  1  0.86986039  0.73971764  0.24737507  1
  O  O394  1  0.86994896  0.73622641  0.74193107  1
  O  O395  1  0.37946779  0.49337999  0.49583283  1
  O  O396  1  0.38389632  0.49585794  0.99732686  1
  O  O397  1  0.36617715  0.98974112  0.49411911  1
  O  O398  1  0.37032548  0.98941283  1.00382580  1
  O  O399  1  0.87435352  0.49544019  0.49281249  1
  O  O400  1  0.86403274  0.48078953  0.98852057  1
  O  O401  1  0.87248011  0.99037645  0.49251714  1
  O  O402  1  0.87047038  0.99597750  0.98769706  1
  O  O403  1  0.12613758  -0.00421637  0.00865166  1
  O  O404  1  0.12853614  0.00626073  0.51285163  1
  O  O405  1  0.12526945  0.50542985  0.01677796  1
  O  O406  1  0.12314208  0.50944390  0.50993774  1
  O  O407  1  0.62949432  0.01086961  0.00997253  1
  O  O408  1  0.62947751  0.00247777  0.51305194  1
  O  O409  1  0.62091370  0.49788797  0.00818697  1
  O  O410  1  0.62114662  0.50528882  0.50540503  1
  O  O411  1  0.36783176  0.37138601  0.12304340  1
  O  O412  1  0.37569086  0.36710011  0.61518566  1
  O  O413  1  0.37419897  0.86170161  0.11755081  1
  O  O414  1  0.38143604  0.86663436  0.61761465  1
  O  O415  1  0.87823795  0.36945024  0.11670779  1
  O  O416  1  0.86695303  0.38308751  0.61799358  1
  O  O417  1  0.86648933  0.87028973  0.12110935  1
  O  O418  1  0.87716479  0.86760596  0.62030293  1
  O  O419  1  0.10941555  0.14218812  0.37698799  1
  O  O420  1  0.13418229  0.13008978  0.87586148  1
  O  O421  1  0.13250901  0.62786252  0.38465308  1
  O  O422  1  0.13800414  0.62828823  0.86932764  1
  O  O423  1  0.62511845  0.12925771  0.37762324  1
  O  O424  1  0.62575715  0.13723689  0.88180646  1
  O  O425  1  0.61828369  0.62700045  0.38919989  1
  O  O426  1  0.63160579  0.63035434  0.87614320  1
