# generated using pymatgen
data_V85Zn86O256
_symmetry_space_group_name_H-M   'P 1'
_cell_length_a   16.94718659
_cell_length_b   16.95330124
_cell_length_c   16.95658880
_cell_angle_alpha   89.97245378
_cell_angle_beta   89.92719871
_cell_angle_gamma   90.03318103
_symmetry_Int_Tables_number   1
_chemical_formula_structural   V85Zn86O256
_chemical_formula_sum   'V85 Zn86 O256'
_cell_volume   4871.80509015
_cell_formula_units_Z   1
loop_
 _symmetry_equiv_pos_site_id
 _symmetry_equiv_pos_as_xyz
  1  'x, y, z'
loop_
 _atom_site_type_symbol
 _atom_site_label
 _atom_site_symmetry_multiplicity
 _atom_site_fract_x
 _atom_site_fract_y
 _atom_site_fract_z
 _atom_site_occupancy
  V  V0  1  0.12445596  0.12696980  0.00219015  1
  V  V1  1  0.12626342  0.24874976  0.36788592  1
  V  V2  1  0.12566088  0.25134223  0.87638781  1
  V  V3  1  0.74970429  0.74435674  0.49222818  1
  V  V4  1  0.36889262  0.63153683  0.25528137  1
  V  V5  1  0.62585871  0.25274052  0.87355735  1
  V  V6  1  0.37807166  0.74557865  0.62478634  1
  V  V7  1  0.50044716  0.50994615  0.52027157  1
  V  V8  1  0.74505891  0.25151091  0.50089587  1
  V  V9  1  0.74936350  -0.00372407  0.25174135  1
  V  V10  1  0.73330564  0.38691318  0.14719974  1
  V  V11  1  -0.00723019  0.12823518  0.63282025  1
  V  V12  1  0.25122526  0.49701569  0.75101660  1
  V  V13  1  0.25721698  0.24889641  0.01058387  1
  V  V14  1  0.12270166  0.50109820  0.62510178  1
  V  V15  1  0.00386402  0.74092700  0.24595165  1
  V  V16  1  0.12607916  0.87593796  0.25063987  1
  V  V17  1  0.87409332  -0.00781129  0.87852238  1
  V  V18  1  0.25821299  0.00466256  0.25354021  1
  V  V19  1  -0.01058476  0.38163348  0.88850412  1
  V  V20  1  -0.00118454  0.36616157  0.36878931  1
  V  V21  1  0.37596906  0.12400130  0.75080118  1
  V  V22  1  0.62701140  0.62605795  0.00162515  1
  V  V23  1  0.12912776  0.74819664  0.37565217  1
  V  V24  1  0.25662525  0.74659693  0.00473740  1
  V  V25  1  0.00141223  0.00139483  0.49812971  1
  V  V26  1  0.12037436  0.37394371  0.75152636  1
  V  V27  1  0.12570095  0.62011437  0.48922656  1
  V  V28  1  0.49812272  0.75983156  0.75742093  1
  V  V29  1  0.62730835  -0.00276734  0.12794734  1
  V  V30  1  0.24892167  0.37020040  0.61965272  1
  V  V31  1  0.38002018  -0.01147685  0.87282462  1
  V  V32  1  0.75282918  0.26498289  0.00189166  1
  V  V33  1  0.12508805  0.50347179  0.11954808  1
  V  V34  1  0.72747323  0.37982548  0.63002243  1
  V  V35  1  0.87581847  0.87285237  0.49595937  1
  V  V36  1  0.00082979  0.13431883  0.12931177  1
  V  V37  1  0.47217829  0.23851782  0.24955686  1
  V  V38  1  0.50612027  0.37643022  0.87262346  1
  V  V39  1  0.37928525  0.37163472  0.01068411  1
  V  V40  1  0.74994100  0.12500378  0.37474803  1
  V  V41  1  0.25735511  0.12967976  0.37844119  1
  V  V42  1  0.37717454  0.49761574  0.87719993  1
  V  V43  1  0.12462501  -0.00292517  0.62877937  1
  V  V44  1  0.48748293  0.12493146  0.12440890  1
  V  V45  1  0.62283058  0.75694824  0.87679534  1
  V  V46  1  0.49387390  0.63241065  0.12195916  1
  V  V47  1  0.24447164  0.62377494  0.87623494  1
  V  V48  1  0.87394044  0.25922045  0.12623930  1
  V  V49  1  0.87915565  0.13021428  0.25268027  1
  V  V50  1  0.62706918  0.75156104  0.36608495  1
  V  V51  1  0.87193100  0.37513564  0.50649337  1
  V  V52  1  -0.00293405  0.49781753  0.49463047  1
  V  V53  1  0.61928324  0.24877163  0.36154561  1
  V  V54  1  0.76321648  0.13264541  0.87201941  1
  V  V55  1  0.75670642  0.00720744  0.74868821  1
  V  V56  1  0.74944946  0.87405270  0.62512411  1
  V  V57  1  0.76068697  0.87958614  0.12123029  1
  V  V58  1  0.75842016  0.75832200  -0.00279967  1
  V  V59  1  0.25286562  0.12531689  0.87576559  1
  V  V60  1  -0.00318012  -0.00787329  0.00250405  1
  V  V61  1  0.50403391  0.87720057  0.37166674  1
  V  V62  1  0.24433825  0.86876305  0.62941463  1
  V  V63  1  0.88263202  0.74640748  0.12242126  1
  V  V64  1  0.62800141  0.12701846  -0.00057847  1
  V  V65  1  0.37929417  0.37484123  0.49704258  1
  V  V66  1  0.12527979  0.00182331  0.12835358  1
  V  V67  1  0.49794601  0.75870592  0.24220233  1
  V  V68  1  0.50610993  0.49996193  0.00567126  1
  V  V69  1  0.36934285  0.24804355  0.62152278  1
  V  V70  1  0.50381351  -0.00683203  -0.00630705  1
  V  V71  1  0.87529426  0.73968801  0.63051582  1
  V  V72  1  0.49915436  -0.00699743  0.50126346  1
  V  V73  1  0.51331269  0.40539938  0.34178610  1
  V  V74  1  0.62353883  0.12385503  0.50002872  1
  V  V75  1  0.12905064  0.13439960  0.50260525  1
  V  V76  1  0.62535770  -0.00213677  0.62507424  1
  V  V77  1  0.50307802  0.25218962  0.74900893  1
  V  V78  1  0.25028681  0.74386080  0.49826725  1
  V  V79  1  0.76716022  0.62214942  0.87191430  1
  V  V80  1  0.75019312  0.50498483  0.74473977  1
  V  V81  1  0.24695185  -0.00536201  0.75303060  1
  V  V82  1  0.26041460  0.87092431  0.12678806  1
  V  V83  1  0.38579169  0.62076223  0.74852356  1
  V  V84  1  0.24890374  0.49912889  0.25733288  1
  Zn  Zn85  1  0.01593594  0.75111420  0.75010167  1
  Zn  Zn86  1  0.86558429  0.24766392  0.63382609  1
  Zn  Zn87  1  0.37650516  0.00117728  0.37568406  1
  Zn  Zn88  1  0.38427159  0.86769733  0.00090428  1
  Zn  Zn89  1  0.37021616  0.50783000  0.38285116  1
  Zn  Zn90  1  0.25677939  0.37328734  0.13264157  1
  Zn  Zn91  1  0.11750823  0.62988673  0.00403354  1
  Zn  Zn92  1  0.62204311  0.61853843  0.50840908  1
  Zn  Zn93  1  0.01551713  0.88487805  0.85406463  1
  Zn  Zn94  1  0.62242696  0.87976056  0.75660100  1
  Zn  Zn95  1  0.49893511  0.12222575  0.62525087  1
  Zn  Zn96  1  0.37301811  0.87365545  0.49847760  1
  Zn  Zn97  1  0.12620302  0.37175133  0.24562748  1
  Zn  Zn98  1  -0.00857242  0.61828587  0.63018190  1
  Zn  Zn99  1  0.86043399  0.49351257  0.35797376  1
  Zn  Zn100  1  0.00125239  0.87389125  0.37478769  1
  Zn  Zn101  1  0.87652107  0.00023159  0.37384162  1
  Zn  Zn102  1  0.74234678  0.61064103  0.36484107  1
  Zn  Zn103  1  0.86352981  0.62152779  0.24981469  1
  Zn  Zn104  1  -0.03878847  0.52960715  -0.01918182  1
  Zn  Zn105  1  -0.01088280  0.24601241  0.75879586  1
  Zn  Zn106  1  0.13215546  0.77407458  0.86658836  1
  Zn  Zn107  1  0.19230084  0.18682203  0.19151253  1
  Zn  Zn108  1  0.18570640  0.18565132  0.68996807  1
  Zn  Zn109  1  0.18910739  0.68647145  0.18666917  1
  Zn  Zn110  1  0.18682309  0.67950864  0.68929460  1
  Zn  Zn111  1  0.68935878  0.18501118  0.18468176  1
  Zn  Zn112  1  0.68554207  0.18825434  0.68727989  1
  Zn  Zn113  1  0.68566661  0.68932843  0.18424508  1
  Zn  Zn114  1  0.68774974  0.68393617  0.69103735  1
  Zn  Zn115  1  0.31442931  0.31568726  0.32096887  1
  Zn  Zn116  1  0.31423476  0.31309571  0.81479653  1
  Zn  Zn117  1  0.31516155  0.81326600  0.31446314  1
  Zn  Zn118  1  0.30649375  0.80864412  0.81154241  1
  Zn  Zn119  1  0.81141773  0.31396857  0.31393681  1
  Zn  Zn120  1  0.81387519  0.31850586  0.80556478  1
  Zn  Zn121  1  0.81534185  0.81121562  0.30815416  1
  Zn  Zn122  1  0.81296835  0.81425598  0.80986938  1
  Zn  Zn123  1  0.18988337  0.43381005  0.43619975  1
  Zn  Zn124  1  0.18936782  0.43470814  0.93989471  1
  Zn  Zn125  1  0.18810688  0.93659319  0.44030286  1
  Zn  Zn126  1  0.19152205  0.93858775  0.94529919  1
  Zn  Zn127  1  0.67825150  0.43702571  0.43960333  1
  Zn  Zn128  1  0.68958274  0.44291120  0.93378416  1
  Zn  Zn129  1  0.68492416  0.93302265  0.43508123  1
  Zn  Zn130  1  0.69126374  0.93965209  0.93725157  1
  Zn  Zn131  1  0.31192317  0.05493043  0.05889689  1
  Zn  Zn132  1  0.31189976  0.06049493  0.56227544  1
  Zn  Zn133  1  0.31217621  0.56038553  0.06742733  1
  Zn  Zn134  1  0.31140441  0.56176141  0.56515180  1
  Zn  Zn135  1  0.81557413  0.06936418  0.06078655  1
  Zn  Zn136  1  0.81333117  0.06128587  0.55907892  1
  Zn  Zn137  1  0.79922078  0.56567978  0.06883272  1
  Zn  Zn138  1  0.80632532  0.55787284  0.55494592  1
  Zn  Zn139  1  0.44874621  0.44736204  0.19182125  1
  Zn  Zn140  1  0.43886252  0.43269479  0.68744307  1
  Zn  Zn141  1  0.43939289  0.94284906  0.18700173  1
  Zn  Zn142  1  0.43364454  0.93270948  0.68404690  1
  Zn  Zn143  1  0.91235121  0.46339593  0.14614865  1
  Zn  Zn144  1  0.93398445  0.43700208  0.69140416  1
  Zn  Zn145  1  0.93929000  0.93902486  0.18895841  1
  Zn  Zn146  1  0.93353488  0.93710877  0.68547569  1
  Zn  Zn147  1  0.06536995  0.06491532  0.31384574  1
  Zn  Zn148  1  0.06436540  0.05841051  0.81465061  1
  Zn  Zn149  1  0.02297391  0.52680422  0.27404751  1
  Zn  Zn150  1  0.05428614  0.56724217  0.81174829  1
  Zn  Zn151  1  0.56200474  0.06399712  0.31027704  1
  Zn  Zn152  1  0.56617649  0.06533709  0.81193458  1
  Zn  Zn153  1  0.55507292  0.57276060  0.31782112  1
  Zn  Zn154  1  0.56921054  0.56544052  0.81392009  1
  Zn  Zn155  1  0.43879603  0.18597723  0.44061576  1
  Zn  Zn156  1  0.43890744  0.18475076  0.93771971  1
  Zn  Zn157  1  0.44103216  0.68921873  0.43678208  1
  Zn  Zn158  1  0.43516443  0.68699031  0.93439484  1
  Zn  Zn159  1  0.93634977  0.18935108  0.44278362  1
  Zn  Zn160  1  0.93883566  0.19166122  0.94293032  1
  Zn  Zn161  1  0.93809631  0.68044331  0.43045753  1
  Zn  Zn162  1  0.94746642  0.70541468  0.93554266  1
  Zn  Zn163  1  0.06668366  0.31669286  0.06702155  1
  Zn  Zn164  1  0.06004822  0.31165509  0.56098125  1
  Zn  Zn165  1  0.07044099  0.80975459  0.05986690  1
  Zn  Zn166  1  0.06071803  0.81191404  0.56581494  1
  Zn  Zn167  1  0.56092236  0.30857320  0.06829296  1
  Zn  Zn168  1  0.55581598  0.31006634  0.55808996  1
  Zn  Zn169  1  0.57083737  0.81483246  0.06530707  1
  Zn  Zn170  1  0.58018950  0.77951463  0.57850446  1
  O  O171  1  0.11749666  0.12427307  0.12400561  1
  O  O172  1  0.11935515  0.11851884  0.61834273  1
  O  O173  1  0.13604920  0.60982135  0.12222797  1
  O  O174  1  0.12881915  0.60847872  0.61560883  1
  O  O175  1  0.62325982  0.11692955  0.11260556  1
  O  O176  1  0.62265198  0.11706407  0.61695860  1
  O  O177  1  0.61320972  0.63514302  0.10881721  1
  O  O178  1  0.61812346  0.67275703  0.60784002  1
  O  O179  1  0.39254088  0.37808864  0.38295192  1
  O  O180  1  0.38731162  0.37887265  0.88298086  1
  O  O181  1  0.38792114  0.87652688  0.37905587  1
  O  O182  1  0.37128253  0.88637990  0.87470451  1
  O  O183  1  0.88192756  0.37176335  0.38659142  1
  O  O184  1  0.89149032  0.36908676  0.87598883  1
  O  O185  1  0.87874723  0.87736839  0.38471636  1
  O  O186  1  0.87034760  0.89106977  0.87385603  1
  O  O187  1  0.24998016  0.00553773  0.36939025  1
  O  O188  1  0.26212682  0.00843998  0.87390825  1
  O  O189  1  0.25257945  0.49849298  0.36363523  1
  O  O190  1  0.25918608  0.50022507  0.86979743  1
  O  O191  1  0.74992997  0.00544038  0.36743224  1
  O  O192  1  0.75557122  0.01097826  0.86915431  1
  O  O193  1  0.74939677  0.49666839  0.38215801  1
  O  O194  1  0.75417923  0.51736416  0.87366355  1
  O  O195  1  0.24764207  0.49623698  0.13901103  1
  O  O196  1  0.24249855  0.49044379  0.63179481  1
  O  O197  1  0.24370378  0.99640980  0.13394863  1
  O  O198  1  0.24229774  0.99077212  0.62871656  1
  O  O199  1  0.74211277  0.48624097  0.13293154  1
  O  O200  1  0.74501743  0.48998101  0.62881856  1
  O  O201  1  0.74777153  0.99899827  0.12904546  1
  O  O202  1  0.74758269  0.99562350  0.63085374  1
  O  O203  1  0.00557405  0.37554763  0.26926088  1
  O  O204  1  0.01154281  0.37432702  0.75821257  1
  O  O205  1  0.01484096  0.87263995  0.25150602  1
  O  O206  1  -0.00659177  0.86638346  0.74286659  1
  O  O207  1  0.48087506  0.34726824  0.25090907  1
  O  O208  1  0.49454758  0.36473100  0.76104248  1
  O  O209  1  0.49307001  0.86635409  0.25408760  1
  O  O210  1  0.50015714  0.86407964  0.75021928  1
  O  O211  1  0.49919574  0.13007179  0.23857657  1
  O  O212  1  0.49212630  0.13175227  0.74884128  1
  O  O213  1  0.49234509  0.63843120  0.24050444  1
  O  O214  1  0.48943328  0.63350204  0.75883388  1
  O  O215  1  0.99276321  0.11986552  0.24103448  1
  O  O216  1  1.00632852  0.12312706  0.73498676  1
  O  O217  1  1.00997171  0.64148803  0.24971856  1
  O  O218  1  1.00421255  0.63419264  0.74094205  1
  O  O219  1  0.36845719  0.25773899  -0.00671176  1
  O  O220  1  0.38358996  0.25808844  0.51194031  1
  O  O221  1  0.36405440  0.75349695  -0.00537079  1
  O  O222  1  0.36763133  0.74774380  0.50738768  1
  O  O223  1  0.86403158  0.24483552  0.01305790  1
  O  O224  1  0.86229650  0.25599214  0.50532809  1
  O  O225  1  0.86486258  0.75425375  0.00595591  1
  O  O226  1  0.86800584  0.75691520  0.50033770  1
  O  O227  1  0.12452455  0.23771716  0.49749925  1
  O  O228  1  0.13521677  0.24614750  0.99430343  1
  O  O229  1  0.12936764  0.74267358  0.49583228  1
  O  O230  1  0.14299887  0.74914752  0.99474071  1
  O  O231  1  0.62379481  0.24132798  0.49184718  1
  O  O232  1  0.62998581  0.24276502  0.99520455  1
  O  O233  1  0.63874039  0.76583025  0.47967045  1
  O  O234  1  0.63670756  0.74811425  0.99493272  1
  O  O235  1  0.50011257  0.23759132  0.13871443  1
  O  O236  1  0.48976614  0.24792626  0.63401805  1
  O  O237  1  0.50286992  0.74808741  0.13123762  1
  O  O238  1  0.48130634  0.75938832  0.63547812  1
  O  O239  1  0.99190461  0.24205560  0.12008259  1
  O  O240  1  1.00224575  0.23402249  0.62549367  1
  O  O241  1  0.99373378  0.76064011  0.13186554  1
  O  O242  1  0.98140205  0.74753437  0.61653634  1
  O  O243  1  0.01082416  0.25504929  0.38478468  1
  O  O244  1  0.01284915  0.25545916  0.87739201  1
  O  O245  1  0.01388780  0.75247064  0.36983369  1
  O  O246  1  0.01089539  0.76830890  0.87063645  1
  O  O247  1  0.50252214  0.23648684  0.35803566  1
  O  O248  1  0.50440761  0.25644203  0.86954460  1
  O  O249  1  0.50636611  0.75869057  0.36780558  1
  O  O250  1  0.50847159  0.74920873  0.86949918  1
  O  O251  1  0.23801256  0.11667097  0.49334528  1
  O  O252  1  0.24673755  0.13079967  0.99550119  1
  O  O253  1  0.24280228  0.63624036  0.50500548  1
  O  O254  1  0.25559460  0.63096453  0.99324315  1
  O  O255  1  0.74350290  0.12991414  0.49516431  1
  O  O256  1  0.74338594  0.13384646  0.99212360  1
  O  O257  1  0.74581659  0.63772419  0.49514202  1
  O  O258  1  0.74353790  0.63437833  0.99236671  1
  O  O259  1  0.26311979  0.36439303  -0.00048658  1
  O  O260  1  0.26549368  0.37930312  0.50701822  1
  O  O261  1  0.25594807  0.86971682  0.01207819  1
  O  O262  1  0.24919153  0.86122932  0.50771307  1
  O  O263  1  0.74398137  0.36610712  0.00248944  1
  O  O264  1  0.75170039  0.37155381  0.51194080  1
  O  O265  1  0.74922633  0.87022438  0.00813444  1
  O  O266  1  0.75814204  0.87113252  0.50394145  1
  O  O267  1  0.13448436  0.49692400  0.24446290  1
  O  O268  1  0.12833664  0.49183804  0.74213665  1
  O  O269  1  0.13262570  0.99320861  0.24758027  1
  O  O270  1  0.13198877  1.00705913  0.73565422  1
  O  O271  1  0.55000412  0.47205982  0.26461208  1
  O  O272  1  0.64638852  0.50221045  0.76260617  1
  O  O273  1  0.63588784  1.00942196  0.23851403  1
  O  O274  1  0.63446710  0.99892006  0.74377469  1
  O  O275  1  0.36186037  -0.00147996  0.25320545  1
  O  O276  1  0.37085455  0.00462520  0.75471844  1
  O  O277  1  0.37002735  0.51411636  0.25315991  1
  O  O278  1  0.37324984  0.50391577  0.75602463  1
  O  O279  1  0.86955967  0.01125815  0.25212669  1
  O  O280  1  0.86243537  0.00303548  0.75556421  1
  O  O281  1  0.90747334  0.51020057  0.25020385  1
  O  O282  1  0.85362534  0.49090844  0.75008155  1
  O  O283  1  0.11874411  0.36154739  0.38134733  1
  O  O284  1  0.12320151  0.36768847  0.86843508  1
  O  O285  1  0.12506310  0.86837034  0.36797706  1
  O  O286  1  0.13000136  0.89113971  0.86907242  1
  O  O287  1  0.60219284  0.36230346  0.38443315  1
  O  O288  1  0.61314664  0.36898361  0.88131042  1
  O  O289  1  0.61149017  0.87245387  0.36934333  1
  O  O290  1  0.63366302  0.86247401  0.87473151  1
  O  O291  1  0.38857076  0.11719428  0.11624231  1
  O  O292  1  0.37505415  0.13098925  0.63148131  1
  O  O293  1  0.38785128  0.62358926  0.13337604  1
  O  O294  1  0.36658362  0.63351620  0.63799169  1
  O  O295  1  0.88210503  0.13373399  0.13346569  1
  O  O296  1  0.89017716  0.12479760  0.61825142  1
  O  O297  1  0.86631593  0.64521661  0.12750201  1
  O  O298  1  0.86980883  0.63736620  0.61558007  1
  O  O299  1  0.25077387  0.24910647  0.11393629  1
  O  O300  1  0.26113090  0.25357692  0.63178471  1
  O  O301  1  0.24897849  0.76003524  0.11900203  1
  O  O302  1  0.25664406  0.75389927  0.61940969  1
  O  O303  1  0.75527497  0.25163443  0.11711833  1
  O  O304  1  0.74424452  0.26189433  0.61957556  1
  O  O305  1  0.75470103  0.76341078  0.11626394  1
  O  O306  1  0.75998762  0.75888333  0.61399855  1
  O  O307  1  0.24162901  0.24103370  0.37646603  1
  O  O308  1  0.24193640  0.24522351  0.88095603  1
  O  O309  1  0.23885834  0.75487046  0.38345100  1
  O  O310  1  0.25063306  0.73863872  0.88244933  1
  O  O311  1  0.73860738  0.24635946  0.38191096  1
  O  O312  1  0.74577534  0.24850966  0.88020576  1
  O  O313  1  0.74274892  0.75577283  0.37787897  1
  O  O314  1  0.74727749  0.74409596  0.87971405  1
  O  O315  1  0.00676722  0.12018552  0.00979416  1
  O  O316  1  0.00788670  0.11807752  0.50845068  1
  O  O317  1  0.00533533  0.62937777  -0.00709318  1
  O  O318  1  0.00823446  0.61382128  0.50388431  1
  O  O319  1  0.50976846  0.11785014  0.00475486  1
  O  O320  1  0.50657184  0.11133119  0.50108841  1
  O  O321  1  0.50396244  0.62103813  0.00347441  1
  O  O322  1  0.49458916  0.61326086  0.50353319  1
  O  O323  1  0.48620932  0.38793195  0.51151638  1
  O  O324  1  0.49781982  0.38090775  0.99656437  1
  O  O325  1  0.50255641  0.88607771  0.49198448  1
  O  O326  1  0.50306076  0.88937681  1.00600032  1
  O  O327  1  0.98988114  0.37807511  0.49752694  1
  O  O328  1  1.00477305  0.37131827  0.98742143  1
  O  O329  1  0.99320001  0.88385960  0.50055863  1
  O  O330  1  1.00856857  0.89204712  1.00437730  1
  O  O331  1  0.49127565  0.49949067  0.39520225  1
  O  O332  1  0.49738146  0.49377945  0.88218212  1
  O  O333  1  0.49973429  0.99505799  0.37992051  1
  O  O334  1  0.49404179  1.00636253  0.88260276  1
  O  O335  1  1.00644883  0.48588158  0.38908837  1
  O  O336  1  1.00374830  0.48685846  0.87982450  1
  O  O337  1  1.00209255  1.00021961  0.38831611  1
  O  O338  1  0.99067351  1.00237056  0.88312154  1
  O  O339  1  0.00476510  0.01014747  0.12046308  1
  O  O340  1  0.00489903  0.00902643  0.61712249  1
  O  O341  1  0.02554263  0.49427375  0.13349896  1
  O  O342  1  0.00733008  0.49543438  0.61517830  1
  O  O343  1  0.51066235  0.00614113  0.11892148  1
  O  O344  1  0.50626421  -0.00289006  0.61821111  1
  O  O345  1  0.49951877  0.51199806  0.10987207  1
  O  O346  1  0.49310242  0.50528963  0.62022445  1
  O  O347  1  0.25221276  0.38348512  0.25191167  1
  O  O348  1  0.23970694  0.37766359  0.74564875  1
  O  O349  1  0.24330987  0.88064382  0.24665085  1
  O  O350  1  0.25671012  0.88215646  0.73828281  1
  O  O351  1  0.74075033  0.37180788  0.24678841  1
  O  O352  1  0.74483630  0.38053180  0.73474281  1
  O  O353  1  0.75603711  0.89044323  0.24264067  1
  O  O354  1  0.74903450  0.88472252  0.73975164  1
  O  O355  1  0.24265765  0.11460846  0.26413374  1
  O  O356  1  0.25645031  0.11694111  0.75541148  1
  O  O357  1  0.26479599  0.62168167  0.24638279  1
  O  O358  1  0.26095191  0.61404711  0.75746214  1
  O  O359  1  0.75760664  0.11602322  0.25439465  1
  O  O360  1  0.74291124  0.11938160  0.76066859  1
  O  O361  1  0.74867539  0.63237829  0.25245320  1
  O  O362  1  0.75120729  0.62242907  0.76276759  1
  O  O363  1  0.36051228  0.12186059  0.38537780  1
  O  O364  1  0.37157501  0.11837612  0.86806985  1
  O  O365  1  0.38079152  0.62740936  0.35882575  1
  O  O366  1  0.36769112  0.61580855  0.86795396  1
  O  O367  1  0.86921451  0.12492754  0.36997871  1
  O  O368  1  0.86529659  0.12157107  0.88011898  1
  O  O369  1  0.86950378  0.61678243  0.37015907  1
  O  O370  1  0.86406915  0.63352891  0.88139313  1
  O  O371  1  0.13663938  0.38168584  0.12742948  1
  O  O372  1  0.12817124  0.37996691  0.63016719  1
  O  O373  1  0.13612320  0.88096573  0.13413897  1
  O  O374  1  0.13441558  0.88391543  0.61800741  1
  O  O375  1  0.63625245  0.36763050  0.12669892  1
  O  O376  1  0.62991311  0.37230562  0.62303855  1
  O  O377  1  0.63867868  0.89150469  0.12168438  1
  O  O378  1  0.63824034  0.87658623  0.62517781  1
  O  O379  1  0.12737640  0.25036526  0.26356287  1
  O  O380  1  0.12239325  0.25634863  0.75958724  1
  O  O381  1  0.12592746  0.75727557  0.25715850  1
  O  O382  1  0.13444106  0.75066595  0.75267847  1
  O  O383  1  0.62321147  0.24131322  0.26085771  1
  O  O384  1  0.61017508  0.24364494  0.75647852  1
  O  O385  1  0.61299573  0.75087212  0.25790378  1
  O  O386  1  0.61513208  0.75284593  0.76026953  1
  O  O387  1  0.37419982  0.23547472  0.25472791  1
  O  O388  1  0.38246168  0.24406112  0.74599001  1
  O  O389  1  0.38088149  0.74058369  0.25098950  1
  O  O390  1  0.38001225  0.74182850  0.74735857  1
  O  O391  1  0.86859923  0.23623059  0.24509184  1
  O  O392  1  0.87709024  0.24855565  0.74609332  1
  O  O393  1  0.88973438  0.75399747  0.24171434  1
  O  O394  1  0.86717700  0.75168898  0.72983458  1
  O  O395  1  0.37996924  0.49436833  0.50311727  1
  O  O396  1  0.38332541  0.49238047  0.99433299  1
  O  O397  1  0.38515751  0.99571691  0.50041691  1
  O  O398  1  0.38632782  0.99769263  0.98924474  1
  O  O399  1  0.88338263  0.49065715  0.50017984  1
  O  O400  1  0.87829942  0.49214630  1.04034335  1
  O  O401  1  0.88373418  0.99239425  0.49784123  1
  O  O402  1  0.88466028  1.00737026  0.99183943  1
  O  O403  1  0.12196909  0.01088109  0.01086722  1
  O  O404  1  0.11858424  0.00608068  0.51003868  1
  O  O405  1  0.13739355  0.50153941  0.01476787  1
  O  O406  1  0.12155055  0.50275743  0.50571020  1
  O  O407  1  0.62165644  0.00833607  0.00263738  1
  O  O408  1  0.62043546  0.00372195  0.50551245  1
  O  O409  1  0.61701299  0.51312832  -0.00867829  1
  O  O410  1  0.60502301  0.50078978  0.50528654  1
  O  O411  1  0.37970859  0.38085741  0.11285211  1
  O  O412  1  0.36785150  0.36547173  0.62191458  1
  O  O413  1  0.36341698  0.88356680  0.12381060  1
  O  O414  1  0.36150196  0.86599201  0.62062912  1
  O  O415  1  0.85810827  0.35978087  0.13932655  1
  O  O416  1  0.87097909  0.37210865  0.61385206  1
  O  O417  1  0.86577264  0.87165578  0.12872537  1
  O  O418  1  0.86451593  0.87136275  0.61202478  1
  O  O419  1  0.13066420  0.13134451  0.38433739  1
  O  O420  1  0.13040300  0.13194822  0.88059155  1
  O  O421  1  0.12543731  0.63241157  0.38834177  1
  O  O422  1  0.14213064  0.61231689  0.87681137  1
  O  O423  1  0.63055964  0.13008784  0.38090987  1
  O  O424  1  0.63292817  0.13149858  0.88489473  1
  O  O425  1  0.62158628  0.63829529  0.38283269  1
  O  O426  1  0.63078620  0.63937535  0.88605341  1
