# generated using pymatgen
data_V85Zn86O256
_symmetry_space_group_name_H-M   'P 1'
_cell_length_a   16.99114072
_cell_length_b   16.98941385
_cell_length_c   16.99161610
_cell_angle_alpha   90.02322633
_cell_angle_beta   90.00468749
_cell_angle_gamma   90.11572130
_symmetry_Int_Tables_number   1
_chemical_formula_structural   V85Zn86O256
_chemical_formula_sum   'V85 Zn86 O256'
_cell_volume   4904.95126195
_cell_formula_units_Z   1
loop_
 _symmetry_equiv_pos_site_id
 _symmetry_equiv_pos_as_xyz
  1  'x, y, z'
loop_
 _atom_site_type_symbol
 _atom_site_label
 _atom_site_symmetry_multiplicity
 _atom_site_fract_x
 _atom_site_fract_y
 _atom_site_fract_z
 _atom_site_occupancy
  V  V0  1  0.50168216  0.25125478  0.26034198  1
  V  V1  1  0.62767700  0.50113802  0.62461794  1
  V  V2  1  0.87978075  0.23935315  0.12852578  1
  V  V3  1  0.74557128  0.36082438  0.61732108  1
  V  V4  1  -0.00285091  0.62353669  0.61609976  1
  V  V5  1  0.24952235  0.63343827  0.87523109  1
  V  V6  1  0.93379068  0.93490906  0.04933253  1
  V  V7  1  0.22866691  -0.00157547  0.75137187  1
  V  V8  1  0.74875808  0.87791428  0.11658330  1
  V  V9  1  0.12505342  0.62931764  -0.00206866  1
  V  V10  1  0.37779372  0.36797970  0.50058441  1
  V  V11  1  0.25806576  0.75680546  0.50025868  1
  V  V12  1  0.60609484  0.00251112  0.12342880  1
  V  V13  1  0.87902214  0.62425549  0.74933740  1
  V  V14  1  0.62693813  0.49819214  0.12351481  1
  V  V15  1  0.12192909  0.86325693  0.25473980  1
  V  V16  1  0.37714510  0.37301469  0.00100213  1
  V  V17  1  0.62336027  0.87594003  0.25075251  1
  V  V18  1  0.24129041  -0.00174782  0.24977956  1
  V  V19  1  0.12484035  0.75558119  0.86891752  1
  V  V20  1  0.62230732  0.24807969  0.87804629  1
  V  V21  1  -0.00113840  0.24859773  0.74740606  1
  V  V22  1  0.49449849  0.24750688  0.75134992  1
  V  V23  1  0.50202924  0.62481962  0.12401487  1
  V  V24  1  0.62563282  0.37569666  0.26075614  1
  V  V25  1  0.63227454  0.62259501  0.49081774  1
  V  V26  1  0.25141828  0.49864449  0.74807673  1
  V  V27  1  0.38165325  0.24814447  0.12595960  1
  V  V28  1  0.37513680  0.62697435  0.74593265  1
  V  V29  1  0.07966688  -0.04754501  0.57665675  1
  V  V30  1  0.24870990  0.86889228  0.11777207  1
  V  V31  1  0.74792560  0.25006176  0.00207578  1
  V  V32  1  0.62386797  0.37499045  0.75243839  1
  V  V33  1  0.75111704  0.37371423  0.12860327  1
  V  V34  1  0.25301838  0.12280877  0.87012957  1
  V  V35  1  0.12746022  0.48718991  0.12065763  1
  V  V36  1  0.75896235  0.51927219  0.25068258  1
  V  V37  1  -0.00217889  0.37620663  0.87007137  1
  V  V38  1  0.50219464  0.49877799  -0.00024273  1
  V  V39  1  0.50242018  0.62501852  0.62512132  1
  V  V40  1  0.88258423  0.12492354  0.74991065  1
  V  V41  1  0.62521483  -0.00144804  0.62212161  1
  V  V42  1  0.75146807  0.12937677  0.38559682  1
  V  V43  1  0.50032554  0.37332632  0.87576168  1
  V  V44  1  0.01322864  0.23536746  0.25125808  1
  V  V45  1  0.37568749  0.49866715  0.87413418  1
  V  V46  1  0.00094483  0.49880888  -0.00080508  1
  V  V47  1  0.49666448  0.87188163  0.38408645  1
  V  V48  1  0.24817452  0.25271889  0.00070791  1
  V  V49  1  0.37900047  0.49355801  0.37552843  1
  V  V50  1  0.75215573  0.62622119  0.87532984  1
  V  V51  1  0.74892882  0.00037642  0.75016005  1
  V  V52  1  0.88279961  0.74022296  0.12704609  1
  V  V53  1  0.87100056  0.75931578  0.62560424  1
  V  V54  1  0.12427192  0.37591944  0.74849357  1
  V  V55  1  0.62551825  0.75192159  0.87883896  1
  V  V56  1  0.74902212  0.75619373  0.49208860  1
  V  V57  1  0.37523312  0.62301178  0.25104435  1
  V  V58  1  0.37475275  -0.00267702  0.38302330  1
  V  V59  1  0.87597339  0.50152808  0.87264151  1
  V  V60  1  0.13153334  0.62404102  0.50085634  1
  V  V61  1  0.48802543  0.88548322  0.88331240  1
  V  V62  1  -0.00164358  0.87286345  0.86979594  1
  V  V63  1  0.01223391  0.12400389  0.61072036  1
  V  V64  1  0.24397717  0.13128726  0.38408285  1
  V  V65  1  0.49949638  0.12451246  0.62106368  1
  V  V66  1  0.87360286  -0.00700232  0.87738754  1
  V  V67  1  0.25166976  0.49181865  0.24913570  1
  V  V68  1  0.49664378  0.74796882  0.25063635  1
  V  V69  1  0.00677053  0.62608312  0.13638363  1
  V  V70  1  0.61156678  0.12312711  0.00458739  1
  V  V71  1  0.88289283  -0.01170461  0.38774109  1
  V  V72  1  0.62507600  0.87571411  0.75284865  1
  V  V73  1  0.12764236  0.25012613  0.87135045  1
  V  V74  1  0.37502653  0.10850666  0.75100285  1
  V  V75  1  0.50035640  0.75044550  0.75253920  1
  V  V76  1  0.12186513  0.49917508  0.62123117  1
  V  V77  1  0.25437857  0.87998764  0.63005279  1
  V  V78  1  0.50514752  0.49611757  0.49451349  1
  V  V79  1  0.87426193  0.37380561  -0.00150980  1
  V  V80  1  0.07079458  0.43171253  0.30635979  1
  V  V81  1  0.74788871  0.00472672  0.25197776  1
  V  V82  1  0.25095868  0.36346416  0.62188886  1
  V  V83  1  0.37929665  0.12322567  0.24895019  1
  V  V84  1  0.74946328  0.12522554  0.87677305  1
  Zn  Zn85  1  0.62920414  0.74514795  0.36956968  1
  Zn  Zn86  1  0.08496130  0.09126408  0.04075493  1
  Zn  Zn87  1  0.12222753  0.25406882  0.38451674  1
  Zn  Zn88  1  0.86630492  0.24204000  0.60953400  1
  Zn  Zn89  1  0.63076881  0.25836748  0.38534224  1
  Zn  Zn90  1  0.38123088  0.75936986  0.62019420  1
  Zn  Zn91  1  0.90085236  0.37672141  0.48216121  1
  Zn  Zn92  1  0.24915990  0.37391572  0.12752620  1
  Zn  Zn93  1  0.88168189  0.11951531  0.25124697  1
  Zn  Zn94  1  0.75216856  0.49703665  0.74874411  1
  Zn  Zn95  1  0.62887803  0.12888215  0.50200200  1
  Zn  Zn96  1  0.88454364  0.50672286  0.37521862  1
  Zn  Zn97  1  0.41766424  -0.05114432  0.03636559  1
  Zn  Zn98  1  0.37179486  0.24379927  0.62083770  1
  Zn  Zn99  1  0.75915180  0.75672050  -0.00340972  1
  Zn  Zn100  1  0.37980980  0.76252548  0.09970676  1
  Zn  Zn101  1  0.00855987  0.75495219  0.74000084  1
  Zn  Zn102  1  0.75227632  0.87825579  0.62201848  1
  Zn  Zn103  1  0.12329925  0.75319572  0.37446617  1
  Zn  Zn104  1  0.49673776  -0.00682065  0.50343119  1
  Zn  Zn105  1  0.63039269  0.62628795  0.00071896  1
  Zn  Zn106  1  0.24940590  0.62506102  0.37489043  1
  Zn  Zn107  1  0.19025824  0.18430204  0.18671675  1
  Zn  Zn108  1  0.18393925  0.18691003  0.55719013  1
  Zn  Zn109  1  0.19219102  0.68608384  0.18531107  1
  Zn  Zn110  1  0.18930130  0.69206170  0.68387881  1
  Zn  Zn111  1  0.68349286  0.18600509  0.18968071  1
  Zn  Zn112  1  0.68371205  0.18351831  0.69203357  1
  Zn  Zn113  1  0.68678541  0.69400932  0.18073153  1
  Zn  Zn114  1  0.69045118  0.68790269  0.68846757  1
  Zn  Zn115  1  0.31409265  0.31162418  0.31531155  1
  Zn  Zn116  1  0.31509746  0.31078145  0.80934446  1
  Zn  Zn117  1  0.31117783  0.81111207  0.31391998  1
  Zn  Zn118  1  0.31175831  0.81527418  0.81025277  1
  Zn  Zn119  1  0.81923151  0.30929714  0.30957084  1
  Zn  Zn120  1  0.81103234  0.31076620  0.80890931  1
  Zn  Zn121  1  0.81117825  0.81483423  0.30729157  1
  Zn  Zn122  1  0.81385578  0.81270738  0.81068016  1
  Zn  Zn123  1  0.19507950  0.43884785  0.44171798  1
  Zn  Zn124  1  0.18827241  0.43775455  0.93682289  1
  Zn  Zn125  1  0.19214028  0.93429731  0.43485531  1
  Zn  Zn126  1  0.18538632  0.94151045  0.94153315  1
  Zn  Zn127  1  0.74954074  0.43224304  0.42885617  1
  Zn  Zn128  1  0.69050336  0.43828625  0.93735595  1
  Zn  Zn129  1  0.68786751  0.93924182  0.43578970  1
  Zn  Zn130  1  0.68067489  0.94144921  0.93867708  1
  Zn  Zn131  1  0.26894670  0.06930307  0.07081958  1
  Zn  Zn132  1  0.31250383  0.05613925  0.56506202  1
  Zn  Zn133  1  0.32455905  0.58829814  0.05030232  1
  Zn  Zn134  1  0.31365124  0.55973607  0.56215322  1
  Zn  Zn135  1  0.79895300  0.06546072  0.06545679  1
  Zn  Zn136  1  0.81801550  0.06021487  0.56273325  1
  Zn  Zn137  1  0.81559546  0.56522518  0.06311763  1
  Zn  Zn138  1  0.81193504  0.56260043  0.55968461  1
  Zn  Zn139  1  0.44022328  0.43336459  0.18814105  1
  Zn  Zn140  1  0.43883608  0.43687993  0.68380897  1
  Zn  Zn141  1  0.42930941  0.93206060  0.20195504  1
  Zn  Zn142  1  0.43980064  0.93402542  0.68865582  1
  Zn  Zn143  1  0.93492915  0.43717234  0.18371598  1
  Zn  Zn144  1  0.94538397  0.42608999  0.65827332  1
  Zn  Zn145  1  0.93655993  0.93204807  0.21485344  1
  Zn  Zn146  1  0.93908663  0.94002230  0.69242263  1
  Zn  Zn147  1  0.06431288  0.06009686  0.31515902  1
  Zn  Zn148  1  0.07605106  0.04889904  0.85452786  1
  Zn  Zn149  1  0.01761324  0.61329549  0.34779756  1
  Zn  Zn150  1  0.06133251  0.56596037  0.80695046  1
  Zn  Zn151  1  0.56161052  0.06343291  0.31546235  1
  Zn  Zn152  1  0.56045434  0.06216624  0.81350161  1
  Zn  Zn153  1  0.56663083  0.55756586  0.31195820  1
  Zn  Zn154  1  0.56433422  0.56320996  0.81307863  1
  Zn  Zn155  1  0.43997448  0.18450520  0.43602454  1
  Zn  Zn156  1  0.40392971  0.13346707  0.97034020  1
  Zn  Zn157  1  0.43944266  0.68338003  0.43655269  1
  Zn  Zn158  1  0.44160742  0.68635429  0.93571279  1
  Zn  Zn159  1  0.93410250  0.18785428  0.43361841  1
  Zn  Zn160  1  0.93811661  0.18311776  0.93762369  1
  Zn  Zn161  1  0.91576201  0.70493485  0.42629790  1
  Zn  Zn162  1  0.93996991  0.69264432  0.94438484  1
  Zn  Zn163  1  0.04702622  0.28076326  0.04851693  1
  Zn  Zn164  1  0.05129041  0.31406934  0.55476461  1
  Zn  Zn165  1  0.07161590  0.80885897  0.06521415  1
  Zn  Zn166  1  0.03854174  0.78517236  0.52074594  1
  Zn  Zn167  1  0.56075922  0.30958049  0.06769871  1
  Zn  Zn168  1  0.56365179  0.31127992  0.56156085  1
  Zn  Zn169  1  0.56262494  0.81330769  0.06167870  1
  Zn  Zn170  1  0.56795315  0.80956896  0.56395054  1
  O  O171  1  0.16678143  0.10372717  0.11489972  1
  O  O172  1  0.11090076  0.12846770  0.62518008  1
  O  O173  1  0.12526107  0.61873806  0.11313901  1
  O  O174  1  0.12217762  0.62033446  0.61976059  1
  O  O175  1  0.62576745  0.11410444  0.11772154  1
  O  O176  1  0.61629268  0.11485610  0.62774278  1
  O  O177  1  0.61947223  0.61669942  0.12246234  1
  O  O178  1  0.62136853  0.61703631  0.62278786  1
  O  O179  1  0.37129970  0.38568934  0.38491774  1
  O  O180  1  0.38212640  0.37952240  0.87905365  1
  O  O181  1  0.38596831  0.88337649  0.36693907  1
  O  O182  1  0.38956365  0.86966638  0.87426753  1
  O  O183  1  0.85345551  0.38920444  0.37710894  1
  O  O184  1  0.87726140  0.38155369  0.87680362  1
  O  O185  1  0.87095735  0.88906224  0.36795864  1
  O  O186  1  0.87955546  0.88046539  0.87772333  1
  O  O187  1  0.25781593  0.00548645  0.36835809  1
  O  O188  1  0.24687422  0.01048486  0.86237844  1
  O  O189  1  0.25989750  0.50399230  0.36726195  1
  O  O190  1  0.25441607  0.50469675  0.86194498  1
  O  O191  1  0.75452846  0.00627488  0.36833227  1
  O  O192  1  0.75658801  0.00379056  0.87251941  1
  O  O193  1  0.73829547  0.51383306  0.34965678  1
  O  O194  1  0.75707076  0.50795807  0.87209273  1
  O  O195  1  0.24151112  0.50026164  0.13261041  1
  O  O196  1  0.24572812  0.49626915  0.63647171  1
  O  O197  1  0.26199752  0.98198639  0.14776967  1
  O  O198  1  0.25306326  0.99556670  0.64182622  1
  O  O199  1  0.74458546  0.49358462  0.12713107  1
  O  O200  1  0.73587781  0.49223911  0.62941305  1
  O  O201  1  0.73964622  0.99334513  0.13360255  1
  O  O202  1  0.74282914  0.99946624  0.63101931  1
  O  O203  1  0.00593262  0.37449630  0.25289217  1
  O  O204  1  0.00070952  0.36698306  0.75033836  1
  O  O205  1  0.02344324  0.87098165  0.24385462  1
  O  O206  1  -0.00439227  0.86953368  0.76446396  1
  O  O207  1  0.51371179  0.36699087  0.24678004  1
  O  O208  1  0.50746473  0.36821448  0.75204317  1
  O  O209  1  0.50552492  0.86392816  0.25722747  1
  O  O210  1  0.50632644  0.86791487  0.76035634  1
  O  O211  1  0.49018089  0.13323628  0.25508821  1
  O  O212  1  0.49494646  0.13047118  0.74375664  1
  O  O213  1  0.49891839  0.63177256  0.24713914  1
  O  O214  1  0.49363595  0.63021521  0.74732103  1
  O  O215  1  1.00348770  0.13197885  0.24302152  1
  O  O216  1  0.98834748  0.13099910  0.75614877  1
  O  O217  1  1.02294160  0.62551106  0.23331662  1
  O  O218  1  0.99174906  0.63420567  0.74369033  1
  O  O219  1  0.37040770  0.24924961  0.01041896  1
  O  O220  1  0.38610948  0.26466393  0.50094462  1
  O  O221  1  0.36470730  0.69450064  0.01308917  1
  O  O222  1  0.36207153  0.73839668  0.50372603  1
  O  O223  1  0.86551992  0.25679720  0.00603370  1
  O  O224  1  0.88880042  0.26320506  0.50134186  1
  O  O225  1  0.87317846  0.75020176  0.01721852  1
  O  O226  1  0.85607197  0.74800447  0.51050657  1
  O  O227  1  0.12357586  0.25814930  0.49748912  1
  O  O228  1  0.13904849  0.26834182  0.98252935  1
  O  O229  1  0.14608020  0.73813800  0.50909326  1
  O  O230  1  0.12422064  0.73572518  0.98951013  1
  O  O231  1  0.61125025  0.24022830  0.49414844  1
  O  O232  1  0.63014078  0.24633346  0.99795838  1
  O  O233  1  0.63353098  0.74033206  0.49838392  1
  O  O234  1  0.62822844  0.74944457  0.98833308  1
  O  O235  1  0.48690827  0.25231903  0.13526001  1
  O  O236  1  0.49939834  0.23983955  0.63514736  1
  O  O237  1  0.49708736  0.74409580  0.13175211  1
  O  O238  1  0.49975190  0.74358044  0.63234110  1
  O  O239  1  0.98799485  0.26519859  0.14482336  1
  O  O240  1  0.99698497  0.23628273  0.63840327  1
  O  O241  1  0.99288606  0.73991202  0.11806804  1
  O  O242  1  0.98840870  0.74085211  0.62026908  1
  O  O243  1  0.00412859  0.24475524  0.35526367  1
  O  O244  1  0.00629104  0.25615198  0.86448282  1
  O  O245  1  0.01593119  0.75028458  0.41321699  1
  O  O246  1  0.00716737  0.75634336  0.87435077  1
  O  O247  1  0.50205235  0.24969233  0.36298673  1
  O  O248  1  0.50743587  0.25844864  0.86486243  1
  O  O249  1  0.50253662  0.75445320  0.36750476  1
  O  O250  1  0.50851733  0.75420536  0.87211066  1
  O  O251  1  0.25753190  0.12598655  0.48924074  1
  O  O252  1  0.25041693  0.14647809  0.98191080  1
  O  O253  1  0.24613477  0.62984368  0.50123500  1
  O  O254  1  0.23499313  0.60674659  0.98068578  1
  O  O255  1  0.75129940  0.12281161  0.48882110  1
  O  O256  1  0.73908854  0.13248654  0.99358961  1
  O  O257  1  0.73828499  0.63905857  0.50817806  1
  O  O258  1  0.75062395  0.62573149  0.98662573  1
  O  O259  1  0.26160931  0.36843353  -0.00343128  1
  O  O260  1  0.26541777  0.38459781  0.51264554  1
  O  O261  1  0.24550871  0.88260477  0.01824191  1
  O  O262  1  0.25078590  0.86183241  0.50777633  1
  O  O263  1  0.75322047  0.37064057  0.00957121  1
  O  O264  1  0.73189657  0.36591499  0.51909737  1
  O  O265  1  0.74273657  0.87858980  0.01332134  1
  O  O266  1  0.73698258  0.85958173  0.50454416  1
  O  O267  1  0.13332268  0.49105752  0.24190792  1
  O  O268  1  0.13589331  0.49646834  0.74626355  1
  O  O269  1  0.13864996  0.99057998  0.25586432  1
  O  O270  1  0.13116600  1.00352949  0.75674556  1
  O  O271  1  0.63086171  0.49408249  0.23694194  1
  O  O272  1  0.62339011  0.49094421  0.74374625  1
  O  O273  1  0.62583502  0.99292990  0.24318651  1
  O  O274  1  0.62972788  0.99704937  0.74290268  1
  O  O275  1  0.36924964  0.00793505  0.26269177  1
  O  O276  1  0.38135388  0.00866177  0.75423003  1
  O  O277  1  0.37258187  0.50086424  0.25866547  1
  O  O278  1  0.37058404  0.50439973  0.75377267  1
  O  O279  1  0.86087396  0.00340929  0.25291983  1
  O  O280  1  0.86701406  0.00623768  0.75832402  1
  O  O281  1  0.86024174  0.49862541  0.24514057  1
  O  O282  1  0.87398427  0.51370183  0.75378876  1
  O  O283  1  0.13051361  0.37612734  0.36935590  1
  O  O284  1  0.11868858  0.37343765  0.86624393  1
  O  O285  1  0.13370143  0.87236645  0.35949250  1
  O  O286  1  0.11403399  0.86403755  0.88272193  1
  O  O287  1  0.64335351  0.37657725  0.36047862  1
  O  O288  1  0.62011781  0.37102433  0.86998318  1
  O  O289  1  0.61842305  0.87490670  0.36242542  1
  O  O290  1  0.61752971  0.86803813  0.87227675  1
  O  O291  1  0.36409279  0.13619183  0.14440429  1
  O  O292  1  0.38226824  0.12427633  0.63366584  1
  O  O293  1  0.38815681  0.60825362  0.14528971  1
  O  O294  1  0.38178278  0.62067961  0.63653619  1
  O  O295  1  0.86664331  0.13766725  0.12549338  1
  O  O296  1  0.88349967  0.12388383  0.63503662  1
  O  O297  1  0.88784293  0.63269464  0.12455045  1
  O  O298  1  0.88057009  0.62726924  0.63109958  1
  O  O299  1  0.25800121  0.25564339  0.11600014  1
  O  O300  1  0.25202953  0.26079533  0.62482844  1
  O  O301  1  0.26111939  0.76578296  0.13293812  1
  O  O302  1  0.25664858  0.76002082  0.62047923  1
  O  O303  1  0.75501264  0.25720733  0.12309557  1
  O  O304  1  0.74647561  0.25667834  0.63210766  1
  O  O305  1  0.75871491  0.76117359  0.11973945  1
  O  O306  1  0.75527385  0.75366348  0.61925205  1
  O  O307  1  0.24847936  0.23364093  0.36881013  1
  O  O308  1  0.24399915  0.25017871  0.87542557  1
  O  O309  1  0.25035016  0.74551420  0.38858005  1
  O  O310  1  0.24477852  0.73925840  0.86908887  1
  O  O311  1  0.74868165  0.23044516  0.36370370  1
  O  O312  1  0.74214399  0.24559098  0.88052535  1
  O  O313  1  0.74958455  0.75314204  0.38690972  1
  O  O314  1  0.74389930  0.74442482  0.87677353  1
  O  O315  1  0.01060366  0.17077522  0.01892671  1
  O  O316  1  -0.00131116  0.12563819  0.51299012  1
  O  O317  1  0.00973947  0.61631525  0.00394037  1
  O  O318  1  0.01112087  0.61613507  0.51571773  1
  O  O319  1  0.51365592  0.13507823  -0.00399976  1
  O  O320  1  0.49542620  0.11835668  0.51408255  1
  O  O321  1  0.51001421  0.61294859  0.00389125  1
  O  O322  1  0.50699907  0.61609547  0.50714697  1
  O  O323  1  0.49361442  0.39092861  0.51103485  1
  O  O324  1  0.49610860  0.37896814  0.99629079  1
  O  O325  1  0.50648499  0.87146648  0.48742244  1
  O  O326  1  0.49560766  0.87455602  0.99022225  1
  O  O327  1  0.98661421  0.40069586  0.55221319  1
  O  O328  1  0.99170672  0.37686411  0.98948883  1
  O  O329  1  1.01650331  0.89585929  0.52529522  1
  O  O330  1  0.99782230  0.87358908  0.99622300  1
  O  O331  1  0.49434418  0.50100882  0.38417267  1
  O  O332  1  0.49710242  0.49351948  0.87948173  1
  O  O333  1  0.49319937  0.99032436  0.37683365  1
  O  O334  1  0.50280097  0.98444736  0.87461848  1
  O  O335  1  1.01473866  0.49149108  0.36407487  1
  O  O336  1  0.99430866  0.49597339  0.87685129  1
  O  O337  1  0.98121082  1.00472835  0.36701973  1
  O  O338  1  0.97960314  0.98912376  0.86938255  1
  O  O339  1  -0.01299417  -0.01194217  0.11329565  1
  O  O340  1  0.00806409  0.01206788  0.63419250  1
  O  O341  1  0.00815742  0.50531325  0.11893233  1
  O  O342  1  0.01804549  0.51618942  0.64960816  1
  O  O343  1  0.50526230  -0.01225501  0.12681724  1
  O  O344  1  0.50764793  0.00552839  0.62605374  1
  O  O345  1  0.51026388  0.50194116  0.12061335  1
  O  O346  1  0.51078389  0.50535264  0.62111467  1
  O  O347  1  0.25905119  0.38759196  0.24734198  1
  O  O348  1  0.24811145  0.38211565  0.74255765  1
  O  O349  1  0.24730650  0.88280437  0.24803477  1
  O  O350  1  0.25147177  0.89084974  0.74763022  1
  O  O351  1  0.74468534  0.37852465  0.23599274  1
  O  O352  1  0.73290360  0.37450271  0.74971041  1
  O  O353  1  0.73932718  0.88387115  0.24125544  1
  O  O354  1  0.74158527  0.88271375  0.75031964  1
  O  O355  1  0.25669795  0.11203085  0.26177674  1
  O  O356  1  0.26028428  0.10919326  0.75271483  1
  O  O357  1  0.26005002  0.61430334  0.25121284  1
  O  O358  1  0.25717955  0.61819672  0.75341492  1
  O  O359  1  0.74687447  0.11201343  0.25395869  1
  O  O360  1  0.75897557  0.12052130  0.75817961  1
  O  O361  1  0.75013265  0.61685659  0.23458234  1
  O  O362  1  0.75670347  0.62328658  0.76107897  1
  O  O363  1  0.36760744  0.11881231  0.36904022  1
  O  O364  1  0.36065320  0.13718348  0.86163969  1
  O  O365  1  0.37805288  0.61253694  0.36506772  1
  O  O366  1  0.36843079  0.61812934  0.86138264  1
  O  O367  1  0.86240528  0.11514847  0.37204004  1
  O  O368  1  0.86972885  0.11683601  0.87206366  1
  O  O369  1  0.90524952  0.61695952  0.36382599  1
  O  O370  1  0.87071491  0.62413066  0.86913716  1
  O  O371  1  0.12686984  0.38693618  0.11201403  1
  O  O372  1  0.13570490  0.38449339  0.63213071  1
  O  O373  1  0.14091110  0.86867843  0.13650606  1
  O  O374  1  0.14021477  0.88391871  0.62609465  1
  O  O375  1  0.63304693  0.38126357  0.12960944  1
  O  O376  1  0.62766675  0.37994914  0.63559995  1
  O  O377  1  0.62964316  0.87983691  0.13285689  1
  O  O378  1  0.62349804  0.88332926  0.63511340  1
  O  O379  1  0.11532556  0.24745949  0.24718674  1
  O  O380  1  0.11404298  0.26291549  0.75687386  1
  O  O381  1  0.13572302  0.75861847  0.25492184  1
  O  O382  1  0.12477681  0.74373607  0.76368352  1
  O  O383  1  0.61750180  0.25830631  0.25100097  1
  O  O384  1  0.61405988  0.25494441  0.75604288  1
  O  O385  1  0.61670725  0.75765271  0.24907064  1
  O  O386  1  0.62184910  0.75414747  0.76133100  1
  O  O387  1  0.38247449  0.24622257  0.24722289  1
  O  O388  1  0.38660688  0.24523449  0.74595482  1
  O  O389  1  0.38531445  0.73883999  0.25307684  1
  O  O390  1  0.38072235  0.74081752  0.74828306  1
  O  O391  1  0.88438445  0.24245246  0.24334386  1
  O  O392  1  0.88197221  0.24088900  0.75100367  1
  O  O393  1  0.87256936  0.76438167  0.22531500  1
  O  O394  1  0.87231020  0.73824385  0.74142584  1
  O  O395  1  0.38521909  0.49604547  0.49346386  1
  O  O396  1  0.38241347  0.49613349  0.99168638  1
  O  O397  1  0.37626740  0.99921453  0.48742344  1
  O  O398  1  0.35883094  1.03584125  1.00731766  1
  O  O399  1  0.84471058  0.48793109  0.48618250  1
  O  O400  1  0.88112438  0.49414574  0.99417833  1
  O  O401  1  0.87121554  0.99493039  0.48743813  1
  O  O402  1  0.87190815  1.00156249  0.99616068  1
  O  O403  1  0.10655569  0.01666358  -0.03858742  1
  O  O404  1  0.13566352  0.00089267  0.50901061  1
  O  O405  1  0.11847651  0.50491265  0.00332099  1
  O  O406  1  0.13572529  0.50648157  0.51536390  1
  O  O407  1  0.62473212  0.01062626  0.01100463  1
  O  O408  1  0.62303380  0.00154202  0.51322205  1
  O  O409  1  0.62307097  0.49750338  0.01116918  1
  O  O410  1  0.61976536  0.50786504  0.50894382  1
  O  O411  1  0.37412699  0.36781284  0.11721668  1
  O  O412  1  0.36801659  0.37342861  0.61915117  1
  O  O413  1  0.37084829  0.87575943  0.11949105  1
  O  O414  1  0.36245336  0.87543542  0.62925076  1
  O  O415  1  0.86613924  0.36789601  0.11878801  1
  O  O416  1  0.84617803  0.37116549  0.63972918  1
  O  O417  1  0.87230794  0.88029878  0.11731305  1
  O  O418  1  0.87393142  0.86227515  0.63475923  1
  O  O419  1  0.14209888  0.12385526  0.37361034  1
  O  O420  1  0.13917517  0.14518959  0.85958568  1
  O  O421  1  0.12552009  0.62405601  0.39300090  1
  O  O422  1  0.13132899  0.62946814  0.87796816  1
  O  O423  1  0.64079065  0.11865738  0.37793940  1
  O  O424  1  0.62953072  0.12957214  0.88037210  1
  O  O425  1  0.61882817  0.62645394  0.38801114  1
  O  O426  1  0.63464973  0.63310654  0.87436013  1
