# generated using pymatgen
data_V85Zn86O256
_symmetry_space_group_name_H-M   'P 1'
_cell_length_a   16.92327269
_cell_length_b   16.92299009
_cell_length_c   16.92180860
_cell_angle_alpha   89.99329645
_cell_angle_beta   90.01332928
_cell_angle_gamma   90.00527456
_symmetry_Int_Tables_number   1
_chemical_formula_structural   V85Zn86O256
_chemical_formula_sum   'V85 Zn86 O256'
_cell_volume   4846.27678587
_cell_formula_units_Z   1
loop_
 _symmetry_equiv_pos_site_id
 _symmetry_equiv_pos_as_xyz
  1  'x, y, z'
loop_
 _atom_site_type_symbol
 _atom_site_label
 _atom_site_symmetry_multiplicity
 _atom_site_fract_x
 _atom_site_fract_y
 _atom_site_fract_z
 _atom_site_occupancy
  V  V0  1  0.12513998  0.62197526  -0.00008843  1
  V  V1  1  0.63132664  0.62770841  -0.00263606  1
  V  V2  1  0.75901993  0.50433033  0.76674711  1
  V  V3  1  0.24964662  0.37683166  0.12464224  1
  V  V4  1  -0.00612884  0.37433770  0.88003395  1
  V  V5  1  0.24507513  0.24279324  0.00128908  1
  V  V6  1  0.62942227  0.49742608  0.62881792  1
  V  V7  1  0.00565932  0.49890932  0.50573846  1
  V  V8  1  0.11744729  0.50134955  0.12299587  1
  V  V9  1  0.50715076  0.37073712  0.87674045  1
  V  V10  1  0.75044081  0.12301055  0.37363336  1
  V  V11  1  0.12266137  0.24118511  0.87802266  1
  V  V12  1  0.49832608  0.12065170  0.11647958  1
  V  V13  1  0.00452974  0.75423590  0.26953856  1
  V  V14  1  0.11875214  0.37749441  0.25488471  1
  V  V15  1  0.63303747  0.49806628  0.12834547  1
  V  V16  1  0.87468862  0.36700693  0.01554113  1
  V  V17  1  0.75286111  0.74758327  0.50072062  1
  V  V18  1  0.87747356  0.87490356  0.50114592  1
  V  V19  1  0.11972643  0.12398529  0.49686874  1
  V  V20  1  0.04333986  -0.05938797  0.43978162  1
  V  V21  1  0.37033851  0.62559926  0.25582266  1
  V  V22  1  0.75245351  0.24973513  0.49914469  1
  V  V23  1  0.74434112  0.25149721  0.02130594  1
  V  V24  1  -0.00119514  0.87968419  0.87350202  1
  V  V25  1  0.12376084  0.37859281  0.74853417  1
  V  V26  1  -0.00237646  0.63645910  0.12482425  1
  V  V27  1  0.88070544  0.87991540  0.00747976  1
  V  V28  1  0.37770344  0.00426566  0.37178016  1
  V  V29  1  0.38758139  0.87802228  0.00083802  1
  V  V30  1  0.11903904  0.00377598  0.11290588  1
  V  V31  1  -0.00606120  0.24526742  0.74880537  1
  V  V32  1  0.25085764  0.74258424  0.48746173  1
  V  V33  1  -0.00099435  0.12454809  0.11113047  1
  V  V34  1  0.75501072  0.37539700  0.62541849  1
  V  V35  1  0.62699664  0.74859764  0.37316446  1
  V  V36  1  0.49893871  0.12614855  0.62704451  1
  V  V37  1  0.37602790  0.74946562  0.12656416  1
  V  V38  1  0.36970894  0.50219542  0.38118087  1
  V  V39  1  0.87303126  0.62874763  0.24687381  1
  V  V40  1  0.36870761  0.38011933  -0.00930981  1
  V  V41  1  0.37398206  0.25538854  0.62625214  1
  V  V42  1  0.74880819  0.14149064  0.86471255  1
  V  V43  1  0.50677783  0.87171049  0.85659863  1
  V  V44  1  0.38244440  0.00167545  0.87748372  1
  V  V45  1  0.24725774  0.38149158  0.62164380  1
  V  V46  1  0.24949815  0.00196652  0.75070020  1
  V  V47  1  0.74732089  0.87005251  0.63321412  1
  V  V48  1  0.37907970  0.74866823  0.63487018  1
  V  V49  1  0.87462249  0.12426815  0.24112615  1
  V  V50  1  0.88277717  0.37320358  0.49458148  1
  V  V51  1  0.37875029  0.87265683  0.50074641  1
  V  V52  1  0.25257623  0.25231562  0.49980554  1
  V  V53  1  0.62540657  -0.00488890  0.63085351  1
  V  V54  1  0.49639555  0.49273771  0.50371161  1
  V  V55  1  0.62376241  -0.00162501  0.11560408  1
  V  V56  1  0.25237994  0.87248024  0.62629643  1
  V  V57  1  0.87470021  -0.00602705  0.37424804  1
  V  V58  1  0.50284148  0.87438874  0.37436983  1
  V  V59  1  -0.00670062  0.11957616  0.62514711  1
  V  V60  1  0.25793460  0.49756685  0.75504943  1
  V  V61  1  0.63358505  0.37928377  0.24754052  1
  V  V62  1  0.62324213  0.25076366  0.37549482  1
  V  V63  1  0.12938172  0.62240939  0.49291717  1
  V  V64  1  0.12097311  0.86689540  0.74967405  1
  V  V65  1  -0.00548872  0.25226486  0.24435288  1
  V  V66  1  0.62772220  0.74669979  0.86051280  1
  V  V67  1  0.62591900  0.12297873  0.50013190  1
  V  V68  1  -0.05939036  0.54281348  -0.05480039  1
  V  V69  1  0.49467987  0.50339606  -0.00167676  1
  V  V70  1  0.74980733  0.61529218  0.37065589  1
  V  V71  1  0.88492532  0.74119196  0.63547487  1
  V  V72  1  0.49374546  0.37516283  0.37634941  1
  V  V73  1  0.24847496  0.75148440  -0.00127588  1
  V  V74  1  0.74971792  0.86583186  0.12330323  1
  V  V75  1  0.11828782  0.25219724  0.37380350  1
  V  V76  1  0.25889535  0.61977830  0.87727373  1
  V  V77  1  0.49696587  0.25055421  0.24662602  1
  V  V78  1  0.75976448  0.00240867  0.75163104  1
  V  V79  1  0.24725876  0.87896443  0.12719176  1
  V  V80  1  0.88068339  0.49667711  0.37103214  1
  V  V81  1  0.12189034  -0.00200139  0.62269181  1
  V  V82  1  0.24880734  0.50318844  0.25373089  1
  V  V83  1  0.50188073  0.62564190  0.63423526  1
  V  V84  1  0.62545965  0.62157241  0.49957002  1
  Zn  Zn85  1  0.62756575  0.87666659  0.24905900  1
  Zn  Zn86  1  0.11891928  0.87708136  0.25796199  1
  Zn  Zn87  1  0.50330866  0.24670210  0.75796483  1
  Zn  Zn88  1  0.01736130  0.61947162  0.63614108  1
  Zn  Zn89  1  0.88482022  0.62119115  0.76897669  1
  Zn  Zn90  1  0.37325060  0.25048024  0.12396534  1
  Zn  Zn91  1  0.37308544  0.12613535  0.24773962  1
  Zn  Zn92  1  0.87860802  0.00639613  0.87622488  1
  Zn  Zn93  1  0.25093362  0.12810973  0.37130487  1
  Zn  Zn94  1  0.24755680  0.12106570  0.87954658  1
  Zn  Zn95  1  0.49914834  0.62330222  0.12592688  1
  Zn  Zn96  1  0.87359792  0.24385951  0.62657931  1
  Zn  Zn97  1  0.50141157  -0.00001271  0.50010193  1
  Zn  Zn98  1  0.63445001  0.36868654  0.76183860  1
  Zn  Zn99  1  0.74863812  -0.00275156  0.24649334  1
  Zn  Zn100  1  0.12409239  0.74686070  0.86732522  1
  Zn  Zn101  1  0.37365556  0.12706235  0.75193962  1
  Zn  Zn102  1  0.24539027  0.00680906  0.24821681  1
  Zn  Zn103  1  0.75237226  0.74877553  -0.00498709  1
  Zn  Zn104  1  0.50034354  0.74782183  0.25031279  1
  Zn  Zn105  1  0.62080545  0.12846421  -0.00851729  1
  Zn  Zn106  1  0.38247549  0.62299778  0.75859720  1
  Zn  Zn107  1  0.18514271  0.18611070  0.18591499  1
  Zn  Zn108  1  0.18273896  0.18811588  0.68748203  1
  Zn  Zn109  1  0.18549046  0.69055282  0.19263774  1
  Zn  Zn110  1  0.19334778  0.68222470  0.68223254  1
  Zn  Zn111  1  0.68107860  0.18307323  0.18997210  1
  Zn  Zn112  1  0.68424222  0.18978908  0.68962130  1
  Zn  Zn113  1  0.68651611  0.68473504  0.18740787  1
  Zn  Zn114  1  0.69552183  0.68103144  0.69094829  1
  Zn  Zn115  1  0.31038599  0.31480410  0.31358737  1
  Zn  Zn116  1  0.31332152  0.31053733  0.81348569  1
  Zn  Zn117  1  0.31467666  0.81782575  0.30938503  1
  Zn  Zn118  1  0.31283393  0.81371899  0.81459775  1
  Zn  Zn119  1  0.81377007  0.31110170  0.31062000  1
  Zn  Zn120  1  0.81707440  0.31823605  0.81358872  1
  Zn  Zn121  1  0.81482067  0.80998954  0.30962906  1
  Zn  Zn122  1  0.81318876  0.81436242  0.81446059  1
  Zn  Zn123  1  0.18539392  0.43658066  0.43788512  1
  Zn  Zn124  1  0.18174814  0.43599849  0.93545093  1
  Zn  Zn125  1  0.20607391  0.93615203  0.43761293  1
  Zn  Zn126  1  0.18969161  0.93657627  0.93674257  1
  Zn  Zn127  1  0.68752772  0.43535251  0.43732249  1
  Zn  Zn128  1  0.68839594  0.43419020  0.94767045  1
  Zn  Zn129  1  0.69020196  0.93632263  0.44156643  1
  Zn  Zn130  1  0.68814862  0.93728009  0.93619883  1
  Zn  Zn131  1  0.31419931  0.06138021  0.06261482  1
  Zn  Zn132  1  0.31224580  0.06414055  0.55995101  1
  Zn  Zn133  1  0.31116878  0.56221790  0.06583603  1
  Zn  Zn134  1  0.31278108  0.56356448  0.56513646  1
  Zn  Zn135  1  0.80700935  0.06036880  0.05804652  1
  Zn  Zn136  1  0.81296136  0.05722153  0.56028032  1
  Zn  Zn137  1  0.80774442  0.56461981  0.06915741  1
  Zn  Zn138  1  0.81480011  0.55995765  0.56075962  1
  Zn  Zn139  1  0.43839042  0.43799169  0.18517892  1
  Zn  Zn140  1  0.43587049  0.43508559  0.68999224  1
  Zn  Zn141  1  0.44090054  0.93791992  0.18911641  1
  Zn  Zn142  1  0.43709963  0.94085621  0.68835897  1
  Zn  Zn143  1  0.93804263  0.44278730  0.18861985  1
  Zn  Zn144  1  0.93719166  0.43807757  0.68869598  1
  Zn  Zn145  1  0.93896164  0.93733668  0.18691928  1
  Zn  Zn146  1  0.93878290  0.93440226  0.68615995  1
  Zn  Zn147  1  0.06617532  0.06683079  0.30043859  1
  Zn  Zn148  1  0.06159941  0.05950276  0.81038296  1
  Zn  Zn149  1  0.06002484  0.56557399  0.31612458  1
  Zn  Zn150  1  0.07177208  0.56422172  0.80897459  1
  Zn  Zn151  1  0.56297527  0.06153056  0.30548682  1
  Zn  Zn152  1  0.56788964  0.06080652  0.81211946  1
  Zn  Zn153  1  0.55691308  0.56240063  0.31061907  1
  Zn  Zn154  1  0.56780459  0.55624377  0.81659651  1
  Zn  Zn155  1  0.43766726  0.18816633  0.44122404  1
  Zn  Zn156  1  0.43160874  0.19066539  0.93989131  1
  Zn  Zn157  1  0.43872009  0.68420933  0.44232308  1
  Zn  Zn158  1  0.44283321  0.69166115  0.93814013  1
  Zn  Zn159  1  0.93865077  0.18466804  0.43351013  1
  Zn  Zn160  1  0.92679630  0.19028765  0.93406865  1
  Zn  Zn161  1  0.93870061  0.68167697  0.44346889  1
  Zn  Zn162  1  0.94065464  0.71016773  0.93918127  1
  Zn  Zn163  1  0.06105658  0.31187621  0.06388111  1
  Zn  Zn164  1  0.06251204  0.31132427  0.56397249  1
  Zn  Zn165  1  0.06278604  0.81632132  0.06065808  1
  Zn  Zn166  1  0.06923979  0.80050153  0.56715184  1
  Zn  Zn167  1  0.56121984  0.31449129  0.06227528  1
  Zn  Zn168  1  0.56528938  0.31136072  0.56816700  1
  Zn  Zn169  1  0.56526177  0.80990447  0.06095083  1
  Zn  Zn170  1  0.56388597  0.80985796  0.56323070  1
  O  O171  1  0.11519843  0.11281478  0.12665881  1
  O  O172  1  0.11856078  0.11834025  0.61531996  1
  O  O173  1  0.11938990  0.62046892  0.12071799  1
  O  O174  1  0.12964950  0.62747094  0.60725867  1
  O  O175  1  0.61637822  0.11696572  0.12210028  1
  O  O176  1  0.61858268  0.11811352  0.61842788  1
  O  O177  1  0.62019186  0.61525431  0.12072261  1
  O  O178  1  0.62272501  0.61386884  0.62222523  1
  O  O179  1  0.38735874  0.38229414  0.37199413  1
  O  O180  1  0.37968680  0.37561892  0.88659600  1
  O  O181  1  0.38443209  0.88124969  0.37975598  1
  O  O182  1  0.38672936  0.87849736  0.88009154  1
  O  O183  1  0.86859887  0.38551591  0.38126145  1
  O  O184  1  0.88832497  0.37504662  0.88501941  1
  O  O185  1  0.87207154  0.88513671  0.38236240  1
  O  O186  1  0.88347725  0.87837467  0.88032752  1
  O  O187  1  0.26325668  0.00502140  0.37081391  1
  O  O188  1  0.25791169  0.00026306  0.86671983  1
  O  O189  1  0.26362119  0.49142291  0.37147506  1
  O  O190  1  0.24734260  0.50751019  0.86905963  1
  O  O191  1  0.75766976  0.00478257  0.37381131  1
  O  O192  1  0.74978743  0.00288103  0.86269389  1
  O  O193  1  0.75633317  0.51057747  0.37963018  1
  O  O194  1  0.74493635  0.49204917  0.86447180  1
  O  O195  1  0.23968640  0.49624183  0.13422074  1
  O  O196  1  0.25520874  0.48635418  0.63118414  1
  O  O197  1  0.24178933  0.99434353  0.12484141  1
  O  O198  1  0.24540368  0.99303491  0.62881758  1
  O  O199  1  0.73230086  0.49920614  0.12631464  1
  O  O200  1  0.74564907  0.49367491  0.62832309  1
  O  O201  1  0.74058693  0.99126387  0.12556626  1
  O  O202  1  0.74526470  0.99136637  0.62861650  1
  O  O203  1  0.00761635  0.36694035  0.24406667  1
  O  O204  1  0.00630790  0.37075895  0.75719718  1
  O  O205  1  -0.00381399  0.85755641  0.24835835  1
  O  O206  1  0.01157221  0.87728523  0.75507787  1
  O  O207  1  0.50554450  0.36982453  0.25769840  1
  O  O208  1  0.49812270  0.38146818  0.77051983  1
  O  O209  1  0.50223772  0.86996955  0.26364433  1
  O  O210  1  0.49984992  0.87230503  0.75805061  1
  O  O211  1  0.49843668  0.13565226  0.24063496  1
  O  O212  1  0.49966405  0.12405004  0.73749970  1
  O  O213  1  0.48543289  0.62744208  0.24737402  1
  O  O214  1  0.50081959  0.61187926  0.73797518  1
  O  O215  1  0.99157112  0.13316430  0.24127527  1
  O  O216  1  1.00771578  0.13352102  0.73838927  1
  O  O217  1  0.99677285  0.63646547  0.24447754  1
  O  O218  1  0.99636398  0.61454655  0.74673473  1
  O  O219  1  0.36231113  0.26173926  0.00256341  1
  O  O220  1  0.35916823  0.24510943  0.50602386  1
  O  O221  1  0.36695077  0.75654749  0.00713535  1
  O  O222  1  0.36905709  0.75230932  0.50770428  1
  O  O223  1  0.86310479  0.26076275  0.00239923  1
  O  O224  1  0.87106123  0.25713431  0.49688693  1
  O  O225  1  0.86753806  0.77145949  -0.00143062  1
  O  O226  1  0.87212547  0.75717186  0.50674917  1
  O  O227  1  0.12968838  0.24417772  0.49220329  1
  O  O228  1  0.13293620  0.25852908  0.99027417  1
  O  O229  1  0.14365790  0.74417161  0.50047076  1
  O  O230  1  0.13818291  0.74462789  1.00357675  1
  O  O231  1  0.63114691  0.24374068  0.49524764  1
  O  O232  1  0.64036133  0.25250491  1.00539697  1
  O  O233  1  0.63078149  0.74171074  0.49063463  1
  O  O234  1  0.62474349  0.74088298  0.99155479  1
  O  O235  1  0.49818244  0.24573220  0.13280475  1
  O  O236  1  0.48828201  0.24328281  0.61986913  1
  O  O237  1  0.48662468  0.75076808  0.12643122  1
  O  O238  1  0.49409959  0.73679577  0.61832352  1
  O  O239  1  1.00694309  0.24054826  0.13722595  1
  O  O240  1  0.99988226  0.24111930  0.63246147  1
  O  O241  1  1.00407852  0.73834078  0.12448564  1
  O  O242  1  0.98753662  0.74445825  0.62494607  1
  O  O243  1  0.01169049  0.24548594  0.36411023  1
  O  O244  1  0.00373437  0.25434319  0.86903106  1
  O  O245  1  -0.00059355  0.74685700  0.36816290  1
  O  O246  1  0.01093238  0.77001198  0.87582453  1
  O  O247  1  0.50353535  0.25737135  0.37157891  1
  O  O248  1  0.49444445  0.26598953  0.87744098  1
  O  O249  1  0.50894641  0.75554259  0.37815814  1
  O  O250  1  0.50870100  0.76309621  0.87513318  1
  O  O251  1  0.23619614  0.13222429  0.49919034  1
  O  O252  1  0.25297324  0.13921431  1.00053514  1
  O  O253  1  0.24966225  0.63549282  0.49969149  1
  O  O254  1  0.24795577  0.63235891  0.99593389  1
  O  O255  1  0.74664630  0.12893877  0.49375416  1
  O  O256  1  0.74980755  0.14223996  0.99319318  1
  O  O257  1  0.74487417  0.62828169  0.49239330  1
  O  O258  1  0.73607843  0.62667296  1.00353470  1
  O  O259  1  0.25351885  0.37211386  0.00462438  1
  O  O260  1  0.24186671  0.36488975  0.50996396  1
  O  O261  1  0.25770762  0.86811512  0.00873779  1
  O  O262  1  0.25942490  0.86406013  0.50767908  1
  O  O263  1  0.76154374  0.36206952  -0.00099240  1
  O  O264  1  0.75984554  0.37093715  0.50496721  1
  O  O265  1  0.75617239  0.87409106  0.00752341  1
  O  O266  1  0.75947957  0.86780030  0.50935187  1
  O  O267  1  0.12717476  0.49458170  0.24825464  1
  O  O268  1  0.13775522  0.48445560  0.75443696  1
  O  O269  1  0.12684271  0.99419502  0.23743388  1
  O  O270  1  0.13389153  0.99091599  0.74348399  1
  O  O271  1  0.61605364  0.49458549  0.23758323  1
  O  O272  1  0.63731607  0.49392423  0.74335607  1
  O  O273  1  0.62805314  0.99680634  0.23734627  1
  O  O274  1  0.63585783  1.00317798  0.73502657  1
  O  O275  1  0.37488069  -0.00025191  0.26191146  1
  O  O276  1  0.36773611  0.00110620  0.75946158  1
  O  O277  1  0.37091744  0.50646514  0.25739315  1
  O  O278  1  0.36238735  0.50103156  0.74907810  1
  O  O279  1  0.87431461  0.00587056  0.25861143  1
  O  O280  1  0.86292438  -0.00149277  0.74652911  1
  O  O281  1  0.88258615  0.51351483  0.26017498  1
  O  O282  1  0.86286049  0.49747419  0.75259003  1
  O  O283  1  0.12611368  0.36857825  0.36293570  1
  O  O284  1  0.11349995  0.36545564  0.86988250  1
  O  O285  1  0.11528971  0.89046934  0.38103258  1
  O  O286  1  0.12179632  0.87635883  0.86523301  1
  O  O287  1  0.61379032  0.37261299  0.36966595  1
  O  O288  1  0.61096027  0.37644523  0.88047768  1
  O  O289  1  0.62071503  0.86638507  0.37679888  1
  O  O290  1  0.61231508  0.86627961  0.87710887  1
  O  O291  1  0.38313067  0.12781933  0.12656068  1
  O  O292  1  0.38193121  0.13284473  0.62483130  1
  O  O293  1  0.37444374  0.63464116  0.13236817  1
  O  O294  1  0.38497701  0.63137292  0.62813123  1
  O  O295  1  0.87953482  0.11454895  0.13610245  1
  O  O296  1  0.88911707  0.12424460  0.61502040  1
  O  O297  1  0.88415973  0.61902332  0.13482830  1
  O  O298  1  0.87346516  0.63881311  0.62076410  1
  O  O299  1  0.24616181  0.25991732  0.11792513  1
  O  O300  1  0.25460215  0.25556147  0.61981570  1
  O  O301  1  0.25856206  0.75689556  0.12028767  1
  O  O302  1  0.26249124  0.75512726  0.61732120  1
  O  O303  1  0.74900575  0.24680717  0.11994348  1
  O  O304  1  0.75373414  0.25787748  0.61795460  1
  O  O305  1  0.74165406  0.76219493  0.12186510  1
  O  O306  1  0.75522417  0.75402196  0.62018701  1
  O  O307  1  0.23963205  0.25193169  0.38297738  1
  O  O308  1  0.24058683  0.24914504  0.88200338  1
  O  O309  1  0.25880014  0.75639558  0.38930204  1
  O  O310  1  0.24840904  0.74566706  0.88456983  1
  O  O311  1  0.74303922  0.24350322  0.37989960  1
  O  O312  1  0.75011360  0.24312075  0.87129254  1
  O  O313  1  0.74441524  0.74132793  0.38050544  1
  O  O314  1  0.73179295  0.75842508  0.87515903  1
  O  O315  1  -0.00994065  0.13492788  0.01227235  1
  O  O316  1  0.01290282  0.13106713  0.50632534  1
  O  O317  1  0.00012279  0.62020916  0.00447453  1
  O  O318  1  0.01040665  0.61661863  0.50549034  1
  O  O319  1  0.50210874  0.13463054  0.01197632  1
  O  O320  1  0.50613116  0.12302062  0.51067723  1
  O  O321  1  0.50745571  0.61844699  0.00204390  1
  O  O322  1  0.50669478  0.61215346  0.51024871  1
  O  O323  1  0.50623953  0.38525353  0.49359531  1
  O  O324  1  0.49040839  0.38000113  0.99327429  1
  O  O325  1  0.49675830  0.87543283  0.49025410  1
  O  O326  1  0.48891363  0.87209702  0.99660532  1
  O  O327  1  0.98941221  0.37799054  0.50194680  1
  O  O328  1  0.98648048  0.36933517  0.99599171  1
  O  O329  1  0.99582444  0.87075092  0.50444094  1
  O  O330  1  0.98828855  0.87582576  0.99515251  1
  O  O331  1  0.49241698  0.49392273  0.38322031  1
  O  O332  1  0.50379838  0.49070863  0.89041551  1
  O  O333  1  0.49714218  0.99216917  0.37661289  1
  O  O334  1  0.49495177  0.98654376  0.86851808  1
  O  O335  1  0.98775734  0.50426585  0.38630977  1
  O  O336  1  1.00967012  0.49101333  0.88354947  1
  O  O337  1  0.99231287  1.00651534  0.37437279  1
  O  O338  1  0.99822092  0.98848417  0.87101159  1
  O  O339  1  0.01087942  0.00707461  0.12555865  1
  O  O340  1  0.00836229  0.00704057  0.62842108  1
  O  O341  1  0.01291946  0.51249101  0.13207264  1
  O  O342  1  -0.00612228  0.49853699  0.60988269  1
  O  O343  1  0.50681585  0.00955881  0.12812015  1
  O  O344  1  0.50744649  0.00608621  0.62310886  1
  O  O345  1  0.50524269  0.50066055  0.11310705  1
  O  O346  1  0.50807664  0.49915994  0.62031399  1
  O  O347  1  0.24107099  0.38093800  0.24376730  1
  O  O348  1  0.24445424  0.37821373  0.74586204  1
  O  O349  1  0.24714430  0.87573362  0.23637443  1
  O  O350  1  0.24754539  0.88507053  0.74520461  1
  O  O351  1  0.73278637  0.37095140  0.25674052  1
  O  O352  1  0.75275368  0.38303712  0.74095099  1
  O  O353  1  0.75051857  0.87483763  0.23995429  1
  O  O354  1  0.75331257  0.88182760  0.73791855  1
  O  O355  1  0.25464226  0.12620168  0.25262912  1
  O  O356  1  0.24876161  0.11220490  0.74859368  1
  O  O357  1  0.26076353  0.61991242  0.24761163  1
  O  O358  1  0.25127856  0.61503320  0.75910477  1
  O  O359  1  0.75768634  0.12457463  0.25688941  1
  O  O360  1  0.74827960  0.12070517  0.75765895  1
  O  O361  1  0.75961213  0.63020847  0.25865131  1
  O  O362  1  0.75907152  0.60843509  0.75266063  1
  O  O363  1  0.37690842  0.11648924  0.37477311  1
  O  O364  1  0.37336251  0.11584898  0.87326234  1
  O  O365  1  0.38014662  0.61477976  0.36879765  1
  O  O366  1  0.36384671  0.63231491  0.87640020  1
  O  O367  1  0.87030547  0.11348563  0.36954638  1
  O  O368  1  0.85532348  0.12235861  0.87627866  1
  O  O369  1  0.86749988  0.61726895  0.37211061  1
  O  O370  1  0.88942205  0.61725355  0.88951276  1
  O  O371  1  0.12849634  0.38373770  0.13307612  1
  O  O372  1  0.13473942  0.36683539  0.63603371  1
  O  O373  1  0.13147949  0.88514791  0.12401668  1
  O  O374  1  0.13084166  0.87862264  0.63008740  1
  O  O375  1  0.61789065  0.38855100  0.13291959  1
  O  O376  1  0.63847054  0.38654592  0.61879972  1
  O  O377  1  0.63004477  0.88057211  0.12533349  1
  O  O378  1  0.63532609  0.88165315  0.61737208  1
  O  O379  1  0.11901785  0.25781601  0.25614400  1
  O  O380  1  0.11744951  0.25889121  0.75756386  1
  O  O381  1  0.11060169  0.75484115  0.25112712  1
  O  O382  1  0.13906614  0.76398585  0.74688584  1
  O  O383  1  0.61348363  0.25655571  0.25569462  1
  O  O384  1  0.61278093  0.26231363  0.73266474  1
  O  O385  1  0.62257782  0.74911589  0.26303967  1
  O  O386  1  0.62604963  0.74201481  0.76102926  1
  O  O387  1  0.38673476  0.25338244  0.24981689  1
  O  O388  1  0.37921800  0.24648900  0.74145046  1
  O  O389  1  0.37441690  0.74371825  0.24377364  1
  O  O390  1  0.37119210  0.74720742  0.73842981  1
  O  O391  1  0.88422909  0.23942342  0.25654579  1
  O  O392  1  0.89004612  0.25603625  0.74700140  1
  O  O393  1  0.88771727  0.73698484  0.25588643  1
  O  O394  1  0.86859523  0.74384552  0.73826998  1
  O  O395  1  0.38416692  0.50355447  0.49408202  1
  O  O396  1  0.38142902  0.49312848  1.00587395  1
  O  O397  1  0.37618789  0.99254124  0.49021802  1
  O  O398  1  0.36929689  0.99090990  0.98663279  1
  O  O399  1  0.88062129  0.49245757  0.49163626  1
  O  O400  1  0.87027530  0.48952887  1.00297312  1
  O  O401  1  0.87585441  0.98389605  0.49428956  1
  O  O402  1  0.86709898  0.98506680  0.99416401  1
  O  O403  1  0.13004310  -0.00117265  0.01344418  1
  O  O404  1  0.11923475  0.00250254  0.49839584  1
  O  O405  1  0.13149957  0.50738102  0.01228778  1
  O  O406  1  0.11665683  0.50512034  0.49631889  1
  O  O407  1  0.62816653  0.00412576  0.01114650  1
  O  O408  1  0.62662414  0.00697989  0.51004498  1
  O  O409  1  0.61903098  0.50464472  0.01056910  1
  O  O410  1  0.61982421  0.50403181  0.50706068  1
  O  O411  1  0.36422729  0.37530987  0.11804447  1
  O  O412  1  0.36701672  0.36258782  0.62768238  1
  O  O413  1  0.36954742  0.87177419  0.11925983  1
  O  O414  1  0.37521131  0.86825877  0.61992561  1
  O  O415  1  0.87936233  0.37761922  0.11428953  1
  O  O416  1  0.86636380  0.37363940  0.61541554  1
  O  O417  1  0.86725421  0.88152332  0.11499100  1
  O  O418  1  0.87047812  0.86218333  0.61981595  1
  O  O419  1  0.12552441  0.13272909  0.38006455  1
  O  O420  1  0.12551536  0.13733445  0.87033168  1
  O  O421  1  0.12592164  0.62223350  0.39038739  1
  O  O422  1  0.13780262  0.62758003  0.88329234  1
  O  O423  1  0.62869791  0.12926673  0.37940065  1
  O  O424  1  0.64189817  0.12105880  0.87657824  1
  O  O425  1  0.63042073  0.62801707  0.37707285  1
  O  O426  1  0.61747588  0.63805776  0.88190862  1
