# generated using pymatgen
data_V85Zn86O256
_symmetry_space_group_name_H-M   'P 1'
_cell_length_a   16.93300146
_cell_length_b   16.94717923
_cell_length_c   16.96321038
_cell_angle_alpha   89.95582475
_cell_angle_beta   90.00409143
_cell_angle_gamma   90.06033527
_symmetry_Int_Tables_number   1
_chemical_formula_structural   V85Zn86O256
_chemical_formula_sum   'V85 Zn86 O256'
_cell_volume   4867.87082947
_cell_formula_units_Z   1
loop_
 _symmetry_equiv_pos_site_id
 _symmetry_equiv_pos_as_xyz
  1  'x, y, z'
loop_
 _atom_site_type_symbol
 _atom_site_label
 _atom_site_symmetry_multiplicity
 _atom_site_fract_x
 _atom_site_fract_y
 _atom_site_fract_z
 _atom_site_occupancy
  V  V0  1  0.24893904  0.23948809  -0.00221831  1
  V  V1  1  0.61417528  0.75877024  0.36858430  1
  V  V2  1  0.86527250  0.49959728  0.36883514  1
  V  V3  1  0.37462829  0.62460775  0.74774017  1
  V  V4  1  0.61621818  0.11242169  0.49791472  1
  V  V5  1  0.12646752  0.74874772  0.87560747  1
  V  V6  1  0.74744418  0.12380297  0.87171560  1
  V  V7  1  0.86591216  -0.00101324  0.87262760  1
  V  V8  1  0.12727835  0.24244489  0.87480960  1
  V  V9  1  0.74692259  0.62444249  0.36953859  1
  V  V10  1  0.05703371  0.07188468  0.17041038  1
  V  V11  1  0.87629416  0.37760886  -0.00186631  1
  V  V12  1  0.50284564  0.25442793  0.25336716  1
  V  V13  1  0.00205224  0.61907517  0.61714706  1
  V  V14  1  -0.01007695  0.62090222  0.12644488  1
  V  V15  1  -0.00048365  0.25201926  0.24903261  1
  V  V16  1  0.61865898  0.37755722  0.75338056  1
  V  V17  1  0.39276024  0.74548569  0.13296491  1
  V  V18  1  0.75076465  0.38863082  0.12288205  1
  V  V19  1  0.74619011  0.87175920  0.13262308  1
  V  V20  1  0.18539125  0.93411173  0.79763987  1
  V  V21  1  0.25343218  0.11683128  0.37608514  1
  V  V22  1  0.62501665  0.75199763  0.87142157  1
  V  V23  1  0.37765750  0.87931066  -0.00534686  1
  V  V24  1  0.00178750  0.37397007  0.87412730  1
  V  V25  1  0.62108297  -0.00540012  0.63968415  1
  V  V26  1  0.24919148  0.62160240  0.87637801  1
  V  V27  1  0.12648224  0.61837896  0.00996370  1
  V  V28  1  0.87455721  0.87384157  0.00081955  1
  V  V29  1  0.37608245  0.24942420  0.12446071  1
  V  V30  1  0.87166827  -0.00869929  0.37870066  1
  V  V31  1  0.36959830  0.10720831  0.75350597  1
  V  V32  1  0.38328208  0.88700541  0.49645758  1
  V  V33  1  0.12992735  0.75038396  0.36656980  1
  V  V34  1  0.38312565  0.37283472  -0.00422454  1
  V  V35  1  0.87612657  0.24777984  0.12552122  1
  V  V36  1  0.00601849  0.49404955  0.00463398  1
  V  V37  1  0.62418742  0.12376180  -0.00036988  1
  V  V38  1  0.38261457  0.49594187  0.87326491  1
  V  V39  1  0.74947228  0.25041177  -0.00039258  1
  V  V40  1  0.26103236  0.62444641  0.37235343  1
  V  V41  1  0.12469556  0.25499235  0.37623597  1
  V  V42  1  0.74506566  0.74713066  -0.00031827  1
  V  V43  1  0.49724239  0.89053033  0.36367211  1
  V  V44  1  0.62392064  -0.00333166  0.12870409  1
  V  V45  1  0.63040352  0.38065763  0.24323688  1
  V  V46  1  0.24415245  0.37909531  0.12115198  1
  V  V47  1  0.75268803  0.24569529  0.50158221  1
  V  V48  1  0.86750214  0.12212259  0.74670575  1
  V  V49  1  0.62280570  0.50193517  0.62241444  1
  V  V50  1  0.86949695  0.12341819  0.24624410  1
  V  V51  1  0.12523765  0.37602971  0.74664137  1
  V  V52  1  0.00219444  0.87630675  0.87376005  1
  V  V53  1  0.87563381  0.38486490  0.50200487  1
  V  V54  1  0.50048341  0.12500870  0.12395466  1
  V  V55  1  0.25919551  0.25371546  0.49802453  1
  V  V56  1  0.25025858  0.87474053  0.62105224  1
  V  V57  1  0.12512729  0.12568282  0.50443365  1
  V  V58  1  0.37540472  0.11416683  0.25189531  1
  V  V59  1  0.25926225  0.37662368  0.61906975  1
  V  V60  1  0.38691418  0.48090350  0.38704581  1
  V  V61  1  0.75383017  0.88042369  0.64000730  1
  V  V62  1  0.24888505  0.50014547  0.74754771  1
  V  V63  1  -0.00091319  0.12346538  0.62344119  1
  V  V64  1  0.25425538  0.74522609  0.00761694  1
  V  V65  1  0.25323471  0.50058653  0.24706058  1
  V  V66  1  0.49361432  0.25105601  0.74897111  1
  V  V67  1  0.75369031  0.76265699  0.49970403  1
  V  V68  1  0.49744104  0.62345123  0.62198006  1
  V  V69  1  0.61808767  0.25315094  0.87469872  1
  V  V70  1  0.00651092  0.75381757  0.74758527  1
  V  V71  1  0.00502752  0.87287595  0.36430607  1
  V  V72  1  0.74873236  0.12462289  0.37645403  1
  V  V73  1  0.62348022  0.63116902  0.50307557  1
  V  V74  1  0.87600904  0.24913692  0.62400108  1
  V  V75  1  0.12532265  -0.00755609  0.62772386  1
  V  V76  1  0.24058842  0.87557597  0.13363614  1
  V  V77  1  0.75018062  0.50209403  0.75026054  1
  V  V78  1  0.00148476  0.38650738  0.37870165  1
  V  V79  1  0.87659604  0.62782508  0.75140974  1
  V  V80  1  0.50762524  0.51012349  0.00190601  1
  V  V81  1  0.00478852  0.01390752  -0.00059244  1
  V  V82  1  -0.00495460  -0.01504278  0.50438173  1
  V  V83  1  0.50294013  0.75557563  0.74794348  1
  V  V84  1  0.61021333  0.27831603  0.39835510  1
  Zn  Zn85  1  0.40065616  0.61914769  0.24863525  1
  Zn  Zn86  1  -0.00081471  0.25120137  0.74811510  1
  Zn  Zn87  1  0.12294060  0.37981719  0.24293744  1
  Zn  Zn88  1  0.37434632  0.75052568  0.61993831  1
  Zn  Zn89  1  0.12382054  0.61976355  0.49086626  1
  Zn  Zn90  1  0.58281324  0.54547097  0.15595422  1
  Zn  Zn91  1  0.00227479  0.75181534  0.24448050  1
  Zn  Zn92  1  0.23854984  -0.00185795  0.24721780  1
  Zn  Zn93  1  0.50284480  0.88581085  0.86516190  1
  Zn  Zn94  1  0.49329526  0.00493934  -0.00696379  1
  Zn  Zn95  1  0.74385786  -0.00513932  0.25336794  1
  Zn  Zn96  1  0.87547069  0.50095448  0.87434095  1
  Zn  Zn97  1  0.12153177  0.49502756  0.61007965  1
  Zn  Zn98  1  0.87973859  0.75703548  0.62026614  1
  Zn  Zn99  1  0.37766152  0.24847780  0.62207274  1
  Zn  Zn100  1  0.74440075  0.62289637  0.87970778  1
  Zn  Zn101  1  0.24983377  0.11044459  0.87366514  1
  Zn  Zn102  1  0.87279135  0.62507709  0.25167638  1
  Zn  Zn103  1  0.74985802  0.37490090  0.62597745  1
  Zn  Zn104  1  0.49519845  0.11960463  0.62272290  1
  Zn  Zn105  1  0.25203460  0.75050692  0.49548845  1
  Zn  Zn106  1  0.87326101  0.74994096  0.13206824  1
  Zn  Zn107  1  0.19327697  0.19532773  0.19195498  1
  Zn  Zn108  1  0.19102892  0.18763097  0.68817027  1
  Zn  Zn109  1  0.18860910  0.68408128  0.19031453  1
  Zn  Zn110  1  0.18523529  0.68847266  0.68516277  1
  Zn  Zn111  1  0.68691861  0.19257439  0.18804771  1
  Zn  Zn112  1  0.68382116  0.18446210  0.68485985  1
  Zn  Zn113  1  0.58335394  0.69874325  0.18550896  1
  Zn  Zn114  1  0.68832510  0.69239746  0.68869575  1
  Zn  Zn115  1  0.31345030  0.31112914  0.31005932  1
  Zn  Zn116  1  0.31072912  0.31306724  0.81285543  1
  Zn  Zn117  1  0.31944399  0.81380441  0.31058872  1
  Zn  Zn118  1  0.31821335  0.80423383  0.81450386  1
  Zn  Zn119  1  0.80623469  0.31308477  0.31447379  1
  Zn  Zn120  1  0.80898987  0.31243203  0.81073196  1
  Zn  Zn121  1  0.81300607  0.80751397  0.31244632  1
  Zn  Zn122  1  0.81538812  0.80975802  0.81316640  1
  Zn  Zn123  1  0.19279406  0.44389905  0.43591640  1
  Zn  Zn124  1  0.19069170  0.43332435  0.93651875  1
  Zn  Zn125  1  0.18544353  0.93561004  0.44006177  1
  Zn  Zn126  1  0.18456284  0.93559852  0.96446212  1
  Zn  Zn127  1  0.67684674  0.43504392  0.44381339  1
  Zn  Zn128  1  0.68787851  0.43788668  0.93524953  1
  Zn  Zn129  1  0.68410722  0.93606622  0.43774070  1
  Zn  Zn130  1  0.68288854  0.93496546  0.93795985  1
  Zn  Zn131  1  0.30909610  0.06004934  0.06683882  1
  Zn  Zn132  1  0.31096107  0.06158180  0.56800081  1
  Zn  Zn133  1  0.32127249  0.56124158  0.06442149  1
  Zn  Zn134  1  0.31201064  0.55997792  0.55667877  1
  Zn  Zn135  1  0.81070775  0.05956376  0.06187824  1
  Zn  Zn136  1  0.80943050  0.05612515  0.56265581  1
  Zn  Zn137  1  0.75686867  0.60236709  0.10530257  1
  Zn  Zn138  1  0.81072714  0.56817978  0.56280633  1
  Zn  Zn139  1  0.43375064  0.43352058  0.18917789  1
  Zn  Zn140  1  0.43903180  0.43833698  0.68533336  1
  Zn  Zn141  1  0.43559257  0.93489359  0.18002562  1
  Zn  Zn142  1  0.43717816  0.93706054  0.68177078  1
  Zn  Zn143  1  0.93506558  0.43741106  0.18807480  1
  Zn  Zn144  1  0.93662812  0.43870665  0.68748592  1
  Zn  Zn145  1  0.92893883  0.93539071  0.18941564  1
  Zn  Zn146  1  0.93430649  0.93538033  0.69075210  1
  Zn  Zn147  1  0.06106565  0.06475361  0.33221809  1
  Zn  Zn148  1  0.05253757  0.06793668  0.81367799  1
  Zn  Zn149  1  0.06899766  0.56064261  0.31075945  1
  Zn  Zn150  1  0.06198727  0.56218589  0.81351213  1
  Zn  Zn151  1  0.56311435  0.06575270  0.31130334  1
  Zn  Zn152  1  0.55686588  0.06478046  0.81187414  1
  Zn  Zn153  1  0.56025876  0.56208782  0.32541199  1
  Zn  Zn154  1  0.56250926  0.56840375  0.81485924  1
  Zn  Zn155  1  0.43725915  0.18361963  0.43494795  1
  Zn  Zn156  1  0.43529234  0.18352652  0.93263283  1
  Zn  Zn157  1  0.43463435  0.69162201  0.43887444  1
  Zn  Zn158  1  0.43960634  0.68815781  0.93636500  1
  Zn  Zn159  1  0.93792015  0.18555348  0.43664826  1
  Zn  Zn160  1  0.93539663  0.19061135  0.93329235  1
  Zn  Zn161  1  0.93473666  0.69147986  0.43464248  1
  Zn  Zn162  1  0.93693813  0.68586416  0.93874341  1
  Zn  Zn163  1  0.06434049  0.30254784  0.06212248  1
  Zn  Zn164  1  0.06358515  0.31399275  0.56056363  1
  Zn  Zn165  1  0.05947984  0.80830046  0.06021802  1
  Zn  Zn166  1  0.06828099  0.80558863  0.55647935  1
  Zn  Zn167  1  0.56134528  0.31504907  0.06259712  1
  Zn  Zn168  1  0.56563617  0.30994685  0.56804417  1
  Zn  Zn169  1  0.56606414  0.81625932  0.05306110  1
  Zn  Zn170  1  0.56260847  0.81660194  0.56214798  1
  O  O171  1  0.11758728  0.13513080  0.12349673  1
  O  O172  1  0.12145212  0.11348085  0.62469957  1
  O  O173  1  0.11715132  0.62761135  0.11310387  1
  O  O174  1  0.11089372  0.62371479  0.62430094  1
  O  O175  1  0.62061949  0.12304133  0.11810980  1
  O  O176  1  0.62636850  0.11187787  0.61500562  1
  O  O177  1  0.64843577  0.62872040  0.12480066  1
  O  O178  1  0.61955019  0.62158841  0.62245575  1
  O  O179  1  0.37429716  0.38118589  0.37476267  1
  O  O180  1  0.36898434  0.38530946  0.88244682  1
  O  O181  1  0.38671439  0.87396773  0.38437616  1
  O  O182  1  0.37446848  0.86646904  0.89229782  1
  O  O183  1  0.87760463  0.38056866  0.38218559  1
  O  O184  1  0.88296338  0.37189024  0.88054560  1
  O  O185  1  0.88081960  0.88663195  0.37211749  1
  O  O186  1  0.87943385  0.88383745  0.87949254  1
  O  O187  1  0.23408536  0.01401567  0.36850972  1
  O  O188  1  0.23118790  -0.00706828  0.87243730  1
  O  O189  1  0.26415246  0.50598724  0.36630729  1
  O  O190  1  0.25852952  0.50404996  0.86847937  1
  O  O191  1  0.75609004  0.00289381  0.37443886  1
  O  O192  1  0.75982294  0.00442846  0.88123375  1
  O  O193  1  0.75522172  0.51079996  0.38816985  1
  O  O194  1  0.75150030  0.50339907  0.86343584  1
  O  O195  1  0.25999715  0.48995987  0.13157432  1
  O  O196  1  0.24739653  0.49363623  0.63043586  1
  O  O197  1  0.24800650  0.98181288  0.12529484  1
  O  O198  1  0.23905828  0.98741819  0.62606055  1
  O  O199  1  0.75695157  0.48726031  0.11862120  1
  O  O200  1  0.74306441  0.50213824  0.63628845  1
  O  O201  1  0.74272927  0.99046726  0.12546012  1
  O  O202  1  0.74214753  0.98672070  0.62385569  1
  O  O203  1  0.00159479  0.37096605  0.25966385  1
  O  O204  1  0.00759591  0.37404448  0.75425604  1
  O  O205  1  -0.00130420  0.87785361  0.26119509  1
  O  O206  1  -0.00400622  0.86513873  0.75931673  1
  O  O207  1  0.51322441  0.36202543  0.24153468  1
  O  O208  1  0.51114308  0.36946855  0.74604079  1
  O  O209  1  0.49221111  0.88046118  0.26441786  1
  O  O210  1  0.48885554  0.85913118  0.74860433  1
  O  O211  1  0.49409165  0.13349354  0.24481463  1
  O  O212  1  0.48746496  0.13396940  0.74650844  1
  O  O213  1  0.51640616  0.61625042  0.23643896  1
  O  O214  1  0.49379499  0.63288299  0.74239002  1
  O  O215  1  0.99672152  0.12535655  0.24399927  1
  O  O216  1  0.98562437  0.12931526  0.74220187  1
  O  O217  1  1.00162663  0.61526565  0.23279378  1
  O  O218  1  0.99530117  0.63178424  0.74358030  1
  O  O219  1  0.36986809  0.25547895  0.00147195  1
  O  O220  1  0.36294496  0.24424726  0.50006435  1
  O  O221  1  0.37042204  0.75342971  0.00890977  1
  O  O222  1  0.37071530  0.76305941  0.50245732  1
  O  O223  1  0.87192226  0.25870552  0.00388923  1
  O  O224  1  0.86874377  0.25333886  0.50469087  1
  O  O225  1  0.87267835  0.76539510  -0.00543847  1
  O  O226  1  0.85741350  0.74695408  0.50210911  1
  O  O227  1  0.13272664  0.24434099  0.49429853  1
  O  O228  1  0.13656813  0.25392769  0.98784969  1
  O  O229  1  0.13109482  0.74199529  0.48430942  1
  O  O230  1  0.13394092  0.74066338  0.99502869  1
  O  O231  1  0.63604321  0.22956421  0.50373246  1
  O  O232  1  0.62749203  0.24572459  0.99153576  1
  O  O233  1  0.63352924  0.74826026  0.49579245  1
  O  O234  1  0.63471615  0.75231155  0.98797006  1
  O  O235  1  0.49621295  0.24366188  0.13206647  1
  O  O236  1  0.49877559  0.24670968  0.63291631  1
  O  O237  1  0.49666163  0.75525598  0.12467097  1
  O  O238  1  0.50212988  0.74022317  0.63125012  1
  O  O239  1  0.98944203  0.25554603  0.13486250  1
  O  O240  1  0.99397484  0.24138657  0.62360361  1
  O  O241  1  0.99453117  0.73758892  0.12245590  1
  O  O242  1  1.00081532  0.74476244  0.63259938  1
  O  O243  1  0.00699188  0.25538625  0.36985838  1
  O  O244  1  0.00870481  0.25651681  0.87252144  1
  O  O245  1  0.00722815  0.75840227  0.37458077  1
  O  O246  1  0.00759837  0.75629428  0.87187157  1
  O  O247  1  0.50947769  0.24489839  0.36768575  1
  O  O248  1  0.51171242  0.24561832  0.86679885  1
  O  O249  1  0.51098886  0.75728877  0.37792410  1
  O  O250  1  0.50827823  0.75108306  0.86718807  1
  O  O251  1  0.24473634  0.12952492  0.49407991  1
  O  O252  1  0.25704821  0.13529661  0.99535050  1
  O  O253  1  0.25360716  0.62759668  0.48313104  1
  O  O254  1  0.24478567  0.62760542  0.99997258  1
  O  O255  1  0.74649741  0.12840600  0.49464642  1
  O  O256  1  0.74521323  0.13143690  0.99334036  1
  O  O257  1  0.73893274  0.63857381  0.50066087  1
  O  O258  1  0.76735039  0.64543294  0.99471327  1
  O  O259  1  0.26014735  0.36806885  0.00507640  1
  O  O260  1  0.24360982  0.36496951  0.50789430  1
  O  O261  1  0.26009988  0.86295451  0.00949784  1
  O  O262  1  0.25775256  0.87430409  0.50578967  1
  O  O263  1  0.75820459  0.37021712  0.00185509  1
  O  O264  1  0.75790054  0.36406788  0.50409250  1
  O  O265  1  0.75813388  0.86966123  0.00410292  1
  O  O266  1  0.74654608  0.86493663  0.50595223  1
  O  O267  1  0.14609348  0.49403287  0.25605104  1
  O  O268  1  0.12993276  0.48834909  0.75067447  1
  O  O269  1  0.11445820  1.01875291  0.23691636  1
  O  O270  1  0.11670790  0.99712278  0.74466068  1
  O  O271  1  0.61958943  0.48226524  0.25069165  1
  O  O272  1  0.62889560  0.49593316  0.74541275  1
  O  O273  1  0.62683161  1.00901370  0.23354728  1
  O  O274  1  0.62862083  1.00859018  0.73737315  1
  O  O275  1  0.37161409  0.01267596  0.24210791  1
  O  O276  1  0.37540497  0.00864087  0.74828805  1
  O  O277  1  0.36923464  0.49981494  0.25707685  1
  O  O278  1  0.37133627  0.50425791  0.75604894  1
  O  O279  1  0.87114226  0.00872749  0.25876399  1
  O  O280  1  0.87887392  0.00969975  0.76101908  1
  O  O281  1  0.87320375  0.49885660  0.26573534  1
  O  O282  1  0.86638085  0.50654116  0.75080970  1
  O  O283  1  0.11768304  0.36640935  0.37722782  1
  O  O284  1  0.12162880  0.36689658  0.86626526  1
  O  O285  1  0.11621466  0.86705758  0.37770385  1
  O  O286  1  0.12596952  0.87258489  0.87237103  1
  O  O287  1  0.65424276  0.36975050  0.34950689  1
  O  O288  1  0.63000379  0.36501536  0.86470307  1
  O  O289  1  0.60998722  0.86773834  0.38268766  1
  O  O290  1  0.62071092  0.86016839  0.87736771  1
  O  O291  1  0.37914521  0.13063467  0.13088285  1
  O  O292  1  0.37518471  0.12737116  0.63739032  1
  O  O293  1  0.37578002  0.64249358  0.12539825  1
  O  O294  1  0.38215469  0.62436644  0.62759376  1
  O  O295  1  0.86693356  0.12877028  0.13843506  1
  O  O296  1  0.87666566  0.12697968  0.63035632  1
  O  O297  1  0.87594042  0.62517382  0.12961615  1
  O  O298  1  0.88467450  0.62880271  0.63459418  1
  O  O299  1  0.25747035  0.25514507  0.11591618  1
  O  O300  1  0.25043971  0.25787856  0.61488951  1
  O  O301  1  0.25486716  0.75364168  0.11843899  1
  O  O302  1  0.24689281  0.76360193  0.62371135  1
  O  O303  1  0.75715371  0.25521826  0.11547550  1
  O  O304  1  0.75522043  0.24902995  0.61552599  1
  O  O305  1  0.75458752  0.76157027  0.11266658  1
  O  O306  1  0.74842736  0.76338808  0.61655857  1
  O  O307  1  0.24217227  0.24448474  0.37994798  1
  O  O308  1  0.24294140  0.25068700  0.88263916  1
  O  O309  1  0.24714157  0.74292638  0.36879703  1
  O  O310  1  0.24781089  0.74158631  0.88826196  1
  O  O311  1  0.74072826  0.24606964  0.38930202  1
  O  O312  1  0.73989577  0.24517886  0.87935060  1
  O  O313  1  0.74151022  0.74905884  0.38727183  1
  O  O314  1  0.74080320  0.75125437  0.87864028  1
  O  O315  1  -0.01117398  0.11265295  -0.00161140  1
  O  O316  1  0.00616033  0.11678522  0.50543724  1
  O  O317  1  0.00452405  0.61482612  0.00764097  1
  O  O318  1  -0.00420792  0.63294878  0.51591927  1
  O  O319  1  0.50515050  0.12732690  0.00697086  1
  O  O320  1  0.51287319  0.12667885  0.50231614  1
  O  O321  1  0.49592655  0.60930797  -0.00111197  1
  O  O322  1  0.51335838  0.63412393  0.50882995  1
  O  O323  1  0.57556360  0.35654980  0.46598082  1
  O  O324  1  0.48694849  0.37640025  0.99883479  1
  O  O325  1  0.48769481  0.87527267  0.49543931  1
  O  O326  1  0.48418242  0.87603913  0.99974587  1
  O  O327  1  0.98756819  0.36650810  0.48957256  1
  O  O328  1  0.99763073  0.37701948  0.99593076  1
  O  O329  1  1.00155168  0.88250171  0.49426482  1
  O  O330  1  0.99354401  0.88301870  0.99393365  1
  O  O331  1  0.48685563  0.49557707  0.37731253  1
  O  O332  1  0.48835541  0.50363257  0.88016757  1
  O  O333  1  0.50562713  0.98954390  0.37499402  1
  O  O334  1  0.50490619  0.99716606  0.88107096  1
  O  O335  1  0.99277736  0.48944248  0.37188870  1
  O  O336  1  0.99984350  0.49186470  0.88521355  1
  O  O337  1  0.99374274  0.99149052  0.38493583  1
  O  O338  1  0.99032196  0.99769366  0.88475033  1
  O  O339  1  -0.00461006  0.00440453  0.11744300  1
  O  O340  1  0.00333460  0.00166212  0.62013405  1
  O  O341  1  -0.00492479  0.50191930  0.11136054  1
  O  O342  1  0.00093818  0.51568759  0.63037577  1
  O  O343  1  0.50608497  0.00650668  0.11900892  1
  O  O344  1  0.51599860  0.00042760  0.62720815  1
  O  O345  1  0.49550388  0.49070888  0.10733140  1
  O  O346  1  0.50826891  0.51380554  0.63033018  1
  O  O347  1  0.25176014  0.37887938  0.23747415  1
  O  O348  1  0.24331790  0.37963322  0.74147280  1
  O  O349  1  0.25300635  0.87721339  0.23802400  1
  O  O350  1  0.25128352  0.87156389  0.74528147  1
  O  O351  1  0.74326022  0.36602273  0.23258974  1
  O  O352  1  0.74055109  0.38374956  0.74721949  1
  O  O353  1  0.75589641  0.87582146  0.23645386  1
  O  O354  1  0.75089127  0.87031670  0.73823323  1
  O  O355  1  0.25782605  0.12454667  0.25728065  1
  O  O356  1  0.26500375  0.12785467  0.75213406  1
  O  O357  1  0.25625991  0.61608293  0.25602980  1
  O  O358  1  0.25416870  0.61930194  0.75312595  1
  O  O359  1  0.75528224  0.12623671  0.25909269  1
  O  O360  1  0.76011271  0.13049788  0.75449524  1
  O  O361  1  0.75040537  0.62780287  0.27048704  1
  O  O362  1  0.75929207  0.62035888  0.74977388  1
  O  O363  1  0.36405074  0.12791137  0.36613721  1
  O  O364  1  0.37017118  0.12592969  0.85892275  1
  O  O365  1  0.37373365  0.62287576  0.36799798  1
  O  O366  1  0.36809213  0.61830453  0.86908360  1
  O  O367  1  0.87134050  0.11710816  0.36550778  1
  O  O368  1  0.86850908  0.11985457  0.86672734  1
  O  O369  1  0.86687783  0.61522271  0.37977200  1
  O  O370  1  0.87749489  0.62317605  0.86122331  1
  O  O371  1  0.14014470  0.36830964  0.12268866  1
  O  O372  1  0.13132630  0.37575591  0.63242002  1
  O  O373  1  0.14197053  0.86617922  0.11792893  1
  O  O374  1  0.12960668  0.88476534  0.61969078  1
  O  O375  1  0.63571303  0.36872570  0.13277300  1
  O  O376  1  0.62711073  0.38611985  0.63422235  1
  O  O377  1  0.63349848  0.88450760  0.11783071  1
  O  O378  1  0.63348625  0.88788633  0.62314249  1
  O  O379  1  0.12012600  0.25471237  0.26046623  1
  O  O380  1  0.12529697  0.26100876  0.75445036  1
  O  O381  1  0.11982450  0.74520873  0.26080888  1
  O  O382  1  0.11405473  0.74394344  0.75915230  1
  O  O383  1  0.61714432  0.25615742  0.25852381  1
  O  O384  1  0.61675085  0.25624412  0.75379051  1
  O  O385  1  0.63099710  0.75764061  0.27137307  1
  O  O386  1  0.61651099  0.74936630  0.75866112  1
  O  O387  1  0.38434643  0.24336135  0.24470935  1
  O  O388  1  0.38739561  0.25461778  0.75003520  1
  O  O389  1  0.37822602  0.74760117  0.23464667  1
  O  O390  1  0.38127008  0.73911833  0.74428640  1
  O  O391  1  0.87904024  0.24155852  0.24933337  1
  O  O392  1  0.87457981  0.24446646  0.74006445  1
  O  O393  1  0.88415072  0.74391219  0.25149230  1
  O  O394  1  0.88698515  0.74346147  0.74788161  1
  O  O395  1  0.37275643  0.49520400  0.48627476  1
  O  O396  1  0.38162481  0.49215582  0.99119940  1
  O  O397  1  0.36958246  0.98628499  0.50188991  1
  O  O398  1  0.37103595  0.98260389  1.00570409  1
  O  O399  1  0.86959436  0.48826250  0.49703169  1
  O  O400  1  0.88535766  0.48260089  0.99436752  1
  O  O401  1  0.88465897  1.00636807  0.49083071  1
  O  O402  1  0.88033551  0.99110699  0.99403204  1
  O  O403  1  0.10477483  0.00416647  0.00309263  1
  O  O404  1  0.11529150  0.00522760  0.50907497  1
  O  O405  1  0.11868414  0.50576013  -0.00520727  1
  O  O406  1  0.12445933  0.50573224  0.49740294  1
  O  O407  1  0.62683803  0.01066310  0.00999022  1
  O  O408  1  0.63118067  0.01062952  0.50815049  1
  O  O409  1  0.60680035  0.49370955  -0.00850882  1
  O  O410  1  0.63155231  0.51271253  0.51668353  1
  O  O411  1  0.36797069  0.36634087  0.11593592  1
  O  O412  1  0.36311630  0.37345658  0.62713047  1
  O  O413  1  0.36778757  0.86077450  0.11729928  1
  O  O414  1  0.36735243  0.87488027  0.61406521  1
  O  O415  1  0.86924119  0.36886950  0.11709812  1
  O  O416  1  0.87491014  0.36844500  0.61806500  1
  O  O417  1  0.86699994  0.87470078  0.11561473  1
  O  O418  1  0.86001636  0.87575917  0.62599402  1
  O  O419  1  0.13049744  0.13845678  0.38310315  1
  O  O420  1  0.12766689  0.13874271  0.86492664  1
  O  O421  1  0.13657181  0.63165600  0.37111488  1
  O  O422  1  0.13051414  0.62793395  0.88542465  1
  O  O423  1  0.62966542  0.12558180  0.38771773  1
  O  O424  1  0.63060151  0.13282791  0.87873480  1
  O  O425  1  0.62836046  0.63609903  0.38612015  1
  O  O426  1  0.62787614  0.64249068  0.87206742  1
