# generated using pymatgen
data_V85Zn86O256
_symmetry_space_group_name_H-M   'P 1'
_cell_length_a   16.91319930
_cell_length_b   16.90861104
_cell_length_c   16.91257532
_cell_angle_alpha   90.03144659
_cell_angle_beta   90.01338775
_cell_angle_gamma   89.98823124
_symmetry_Int_Tables_number   1
_chemical_formula_structural   V85Zn86O256
_chemical_formula_sum   'V85 Zn86 O256'
_cell_volume   4836.63548336
_cell_formula_units_Z   1
loop_
 _symmetry_equiv_pos_site_id
 _symmetry_equiv_pos_as_xyz
  1  'x, y, z'
loop_
 _atom_site_type_symbol
 _atom_site_label
 _atom_site_symmetry_multiplicity
 _atom_site_fract_x
 _atom_site_fract_y
 _atom_site_fract_z
 _atom_site_occupancy
  V  V0  1  0.50813439  0.87212796  0.87570877  1
  V  V1  1  0.12773859  0.49735697  0.62205820  1
  V  V2  1  0.75223048  0.37958215  0.13274548  1
  V  V3  1  0.38421270  0.12735824  0.25094693  1
  V  V4  1  0.37501839  -0.00051036  0.87386385  1
  V  V5  1  0.37597664  0.50546885  0.36933960  1
  V  V6  1  0.11600395  0.12140126  0.49864998  1
  V  V7  1  0.24969064  0.24968980  0.00106695  1
  V  V8  1  0.87475331  0.37468856  -0.00083537  1
  V  V9  1  0.62515979  0.49467900  0.62342514  1
  V  V10  1  0.85868880  0.88293191  0.50446105  1
  V  V11  1  0.50185374  0.00007423  0.00331962  1
  V  V12  1  0.50528165  0.74997725  0.75370202  1
  V  V13  1  -0.00343462  0.75058014  0.25178150  1
  V  V14  1  0.73467741  0.62868602  0.87739973  1
  V  V15  1  0.00115912  0.49928130  -0.00157365  1
  V  V16  1  0.25082623  0.12587395  0.37653746  1
  V  V17  1  0.36800254  0.87485449  0.00473720  1
  V  V18  1  0.50119511  0.86984661  0.38045116  1
  V  V19  1  0.24902522  -0.00292899  0.23590894  1
  V  V20  1  0.74470285  0.64145005  0.37032515  1
  V  V21  1  0.00374757  -0.00556931  0.00865566  1
  V  V22  1  0.12639711  0.87877391  0.23698583  1
  V  V23  1  0.74704111  0.25170694  -0.00157960  1
  V  V24  1  -0.00448815  0.89076525  0.38452111  1
  V  V25  1  0.24735100  0.50222590  0.75923375  1
  V  V26  1  0.24538888  -0.00501869  0.74976327  1
  V  V27  1  0.62579871  0.12709487  -0.00342857  1
  V  V28  1  0.12198420  0.75255812  0.37485500  1
  V  V29  1  0.37984010  0.37531942  -0.00986375  1
  V  V30  1  0.75230653  0.25938219  0.50140682  1
  V  V31  1  0.37283485  0.36785659  0.50646710  1
  V  V32  1  0.37557229  0.75646509  0.62229631  1
  V  V33  1  -0.01353041  0.50113686  0.50114829  1
  V  V34  1  0.62621944  0.12644216  0.50085107  1
  V  V35  1  0.37161179  0.13315734  0.74389135  1
  V  V36  1  0.24792196  0.12387332  0.87447581  1
  V  V37  1  0.73689964  0.74742763  -0.00163406  1
  V  V38  1  0.63028864  -0.00464742  0.62943891  1
  V  V39  1  0.13100811  0.74945081  0.86147353  1
  V  V40  1  0.62769680  0.50533934  0.12653789  1
  V  V41  1  0.62427088  0.87026431  0.25511813  1
  V  V42  1  0.62390832  0.37148730  0.76370908  1
  V  V43  1  0.49385109  -0.00288226  0.50447389  1
  V  V44  1  0.49843691  0.49853391  0.49722489  1
  V  V45  1  0.12623695  0.11953503  0.01063914  1
  V  V46  1  0.87671211  0.12010182  0.25057719  1
  V  V47  1  0.88610450  0.12925397  0.74919044  1
  V  V48  1  0.25368166  0.75585317  0.49698666  1
  V  V49  1  0.87729842  -0.00166459  0.87613570  1
  V  V50  1  0.75499571  0.12462125  0.37717581  1
  V  V51  1  0.49773296  0.74236992  0.25344272  1
  V  V52  1  0.86353892  0.49602220  0.37005788  1
  V  V53  1  0.12454069  0.62494857  0.49807767  1
  V  V54  1  0.37025929  0.62655651  0.75874671  1
  V  V55  1  0.00043343  0.37646138  0.38138507  1
  V  V56  1  0.49840627  0.13566171  0.62534418  1
  V  V57  1  0.25279048  0.51047156  0.24829345  1
  V  V58  1  0.24606726  0.87485187  0.62546028  1
  V  V59  1  0.00047389  0.63613407  0.62974072  1
  V  V60  1  -0.00188789  0.62520040  0.12443459  1
  V  V61  1  0.49911798  0.62650072  0.12042397  1
  V  V62  1  0.37318921  -0.00659204  0.37722808  1
  V  V63  1  0.12568235  0.49879313  0.12432748  1
  V  V64  1  0.87565547  0.50299929  0.87251149  1
  V  V65  1  0.75114065  0.87329485  0.12430540  1
  V  V66  1  0.00325832  0.86751835  0.86282719  1
  V  V67  1  0.11648052  -0.00345204  0.62322886  1
  V  V68  1  0.50455248  0.50139074  -0.00791032  1
  V  V69  1  0.38700784  0.25255577  0.12884913  1
  V  V70  1  0.50183489  0.25276952  0.76585745  1
  V  V71  1  0.00146015  0.25141114  0.25086470  1
  V  V72  1  0.11516202  0.24681281  0.87353893  1
  V  V73  1  0.13400267  0.62721590  -0.00482864  1
  V  V74  1  0.87971517  0.63689291  0.75205108  1
  V  V75  1  0.49662249  0.62436064  0.62344306  1
  V  V76  1  0.11862728  0.36917171  0.74912559  1
  V  V77  1  0.62686524  0.63656537  0.49503767  1
  V  V78  1  0.36707450  0.75002696  0.12978940  1
  V  V79  1  0.49764251  0.36563152  0.36807585  1
  V  V80  1  0.75268873  -0.00236173  0.25590122  1
  V  V81  1  0.62118928  0.36853779  0.24640495  1
  V  V82  1  0.75006523  0.12850894  0.87142967  1
  V  V83  1  0.88324047  0.25932781  0.62507709  1
  V  V84  1  0.25227821  0.37425602  0.12760208  1
  Zn  Zn85  1  0.50699734  0.12914957  0.13008695  1
  Zn  Zn86  1  0.25002249  0.75131951  -0.00207385  1
  Zn  Zn87  1  0.86787841  0.62243421  0.24826300  1
  Zn  Zn88  1  0.85206901  0.76292756  0.62104821  1
  Zn  Zn89  1  0.63576179  0.86676451  0.74953240  1
  Zn  Zn90  1  0.75515951  -0.00490650  0.74583811  1
  Zn  Zn91  1  0.25406955  0.62948457  0.37146003  1
  Zn  Zn92  1  -0.00504878  0.37024768  0.87091065  1
  Zn  Zn93  1  0.25245064  0.24283445  0.51297811  1
  Zn  Zn94  1  -0.00122535  0.12364353  0.62283603  1
  Zn  Zn95  1  0.62378921  0.24720487  0.36953020  1
  Zn  Zn96  1  0.74929661  0.49999231  0.74925898  1
  Zn  Zn97  1  0.62635389  0.00213721  0.12674658  1
  Zn  Zn98  1  0.87712616  0.24964311  0.12494380  1
  Zn  Zn99  1  0.12795412  0.25195902  0.37820185  1
  Zn  Zn100  1  0.12621973  0.37488992  0.25242026  1
  Zn  Zn101  1  0.00262075  0.12187473  0.12864884  1
  Zn  Zn102  1  0.75426335  0.38043537  0.62253293  1
  Zn  Zn103  1  0.37343479  0.50181330  0.87602033  1
  Zn  Zn104  1  0.25387845  0.36618447  0.63024506  1
  Zn  Zn105  1  0.87587949  0.86916438  -0.00056983  1
  Zn  Zn106  1  0.87208590  0.74679876  0.12273835  1
  Zn  Zn107  1  0.19204885  0.18818272  0.19176518  1
  Zn  Zn108  1  0.18534439  0.18744805  0.68409832  1
  Zn  Zn109  1  0.18318181  0.68914588  0.18564776  1
  Zn  Zn110  1  0.18850457  0.68527201  0.68504111  1
  Zn  Zn111  1  0.69058902  0.18905192  0.18428061  1
  Zn  Zn112  1  0.69010822  0.18843857  0.68731892  1
  Zn  Zn113  1  0.68431435  0.68846732  0.18959365  1
  Zn  Zn114  1  0.68694678  0.68209762  0.68935444  1
  Zn  Zn115  1  0.31424609  0.31322147  0.31277532  1
  Zn  Zn116  1  0.30539826  0.30999211  0.80928475  1
  Zn  Zn117  1  0.31257967  0.81540088  0.30987176  1
  Zn  Zn118  1  0.31498689  0.81361405  0.81302627  1
  Zn  Zn119  1  0.81490941  0.31222938  0.31381133  1
  Zn  Zn120  1  0.80976520  0.31263024  0.80883332  1
  Zn  Zn121  1  0.81828627  0.81511111  0.31672301  1
  Zn  Zn122  1  0.81046965  0.81270060  0.81398333  1
  Zn  Zn123  1  0.18845980  0.43766087  0.43645122  1
  Zn  Zn124  1  0.18701065  0.43434319  0.93726385  1
  Zn  Zn125  1  0.18520630  0.93698682  0.43588169  1
  Zn  Zn126  1  0.18427183  0.93478551  0.93677129  1
  Zn  Zn127  1  0.68347111  0.43794238  0.43579990  1
  Zn  Zn128  1  0.68954839  0.44274713  0.94138116  1
  Zn  Zn129  1  0.68348566  0.93959176  0.43836512  1
  Zn  Zn130  1  0.68958440  0.93897221  0.93676543  1
  Zn  Zn131  1  0.31736765  0.06548776  0.06259003  1
  Zn  Zn132  1  0.31065855  0.06236125  0.56324613  1
  Zn  Zn133  1  0.31791295  0.56358349  0.06374519  1
  Zn  Zn134  1  0.31102822  0.56434371  0.56338411  1
  Zn  Zn135  1  0.81395550  0.06058558  0.06482645  1
  Zn  Zn136  1  0.81775650  0.06189335  0.55932178  1
  Zn  Zn137  1  0.81094722  0.56374455  0.05871448  1
  Zn  Zn138  1  0.79620949  0.59455341  0.57417029  1
  Zn  Zn139  1  0.43908300  0.44006472  0.18536379  1
  Zn  Zn140  1  0.43970908  0.43684696  0.69068279  1
  Zn  Zn141  1  0.43724566  0.93590811  0.18849103  1
  Zn  Zn142  1  0.43654647  0.93818346  0.68813159  1
  Zn  Zn143  1  0.93782374  0.43724609  0.19059985  1
  Zn  Zn144  1  0.93967957  0.44278896  0.68773520  1
  Zn  Zn145  1  0.93642460  0.93577135  0.19082231  1
  Zn  Zn146  1  0.93210719  0.93542322  0.68750924  1
  Zn  Zn147  1  0.06792684  0.06306060  0.30884195  1
  Zn  Zn148  1  0.06314243  0.05790478  0.81491058  1
  Zn  Zn149  1  0.06240278  0.56258074  0.31230402  1
  Zn  Zn150  1  0.06270703  0.56367179  0.81269953  1
  Zn  Zn151  1  0.56575423  0.05801910  0.31582110  1
  Zn  Zn152  1  0.56190431  0.06437699  0.81368196  1
  Zn  Zn153  1  0.56709364  0.55887798  0.30936015  1
  Zn  Zn154  1  0.55894066  0.55947659  0.80882235  1
  Zn  Zn155  1  0.43793844  0.18542633  0.43704615  1
  Zn  Zn156  1  0.43579103  0.18608186  0.93863532  1
  Zn  Zn157  1  0.43709691  0.68694008  0.43793852  1
  Zn  Zn158  1  0.43999325  0.68899700  0.93979088  1
  Zn  Zn159  1  0.93531486  0.18884852  0.43816320  1
  Zn  Zn160  1  0.93670166  0.18367247  0.94193068  1
  Zn  Zn161  1  0.93022006  0.69064210  0.44123395  1
  Zn  Zn162  1  0.93612777  0.69062264  0.94050606  1
  Zn  Zn163  1  0.06204292  0.31065832  0.06305519  1
  Zn  Zn164  1  0.06494184  0.31116508  0.55912242  1
  Zn  Zn165  1  0.06148039  0.80911093  0.05809570  1
  Zn  Zn166  1  0.06117367  0.81419174  0.56210096  1
  Zn  Zn167  1  0.56558132  0.31615537  0.05589774  1
  Zn  Zn168  1  0.56237274  0.31180574  0.56198554  1
  Zn  Zn169  1  0.56145725  0.81423593  0.06680007  1
  Zn  Zn170  1  0.56191687  0.81467715  0.56380554  1
  O  O171  1  0.12760105  0.12867160  0.11378011  1
  O  O172  1  0.12120013  0.11583335  0.61720050  1
  O  O173  1  0.11529843  0.62052510  0.11718406  1
  O  O174  1  0.11902637  0.61700956  0.61964062  1
  O  O175  1  0.62538752  0.12398797  0.11296036  1
  O  O176  1  0.61598195  0.11898673  0.62131934  1
  O  O177  1  0.61323070  0.61737255  0.13083970  1
  O  O178  1  0.61440586  0.61090623  0.61712988  1
  O  O179  1  0.38064712  0.38383455  0.38165077  1
  O  O180  1  0.36691747  0.37426635  0.88754396  1
  O  O181  1  0.38244154  0.88768277  0.37125216  1
  O  O182  1  0.38490465  0.88128295  0.88203350  1
  O  O183  1  0.88295380  0.38797580  0.37312410  1
  O  O184  1  0.87349628  0.38237186  0.87947613  1
  O  O185  1  0.88930655  0.87557304  0.38316418  1
  O  O186  1  0.88618704  0.88125666  0.87690421  1
  O  O187  1  0.25797103  0.00735887  0.37090364  1
  O  O188  1  0.25306905  0.00243762  0.86706842  1
  O  O189  1  0.25717380  0.50103153  0.36507817  1
  O  O190  1  0.24881202  0.49956143  0.86317117  1
  O  O191  1  0.74391970  0.00838757  0.36350827  1
  O  O192  1  0.76150594  0.01137403  0.87901543  1
  O  O193  1  0.76250882  0.49428339  0.37323621  1
  O  O194  1  0.75779990  0.51220179  0.87714752  1
  O  O195  1  0.24877014  0.49367106  0.13046391  1
  O  O196  1  0.23824848  0.49760414  0.62962209  1
  O  O197  1  0.25848903  1.00166787  0.13696440  1
  O  O198  1  0.24584869  0.99190923  0.63098810  1
  O  O199  1  0.74084209  0.49279694  0.11767824  1
  O  O200  1  0.73907373  0.50116975  0.62593688  1
  O  O201  1  0.74929905  0.99287797  0.13659589  1
  O  O202  1  0.73238187  1.01029860  0.62388788  1
  O  O203  1  0.00195817  0.36782147  0.25947210  1
  O  O204  1  0.01447269  0.38084828  0.75243173  1
  O  O205  1  0.00472108  0.86804625  0.25823114  1
  O  O206  1  -0.00086723  0.87800370  0.76437598  1
  O  O207  1  0.50623935  0.37711353  0.25653903  1
  O  O208  1  0.51104570  0.36668141  0.74790247  1
  O  O209  1  0.50657823  0.86979630  0.25795930  1
  O  O210  1  0.49878844  0.86683527  0.75814109  1
  O  O211  1  0.48878381  0.11754013  0.25055543  1
  O  O212  1  0.49340044  0.13202439  0.74506831  1
  O  O213  1  0.50477729  0.63784652  0.24723141  1
  O  O214  1  0.49155065  0.63064035  0.74381026  1
  O  O215  1  0.99343070  0.13023491  0.25110732  1
  O  O216  1  0.98922720  0.12340659  0.75189037  1
  O  O217  1  1.00139650  0.63343746  0.24155009  1
  O  O218  1  0.99295332  0.62131563  0.74237942  1
  O  O219  1  0.36959576  0.25572480  0.00710890  1
  O  O220  1  0.37523283  0.26478077  0.49451293  1
  O  O221  1  0.37255108  0.75778787  0.00716440  1
  O  O222  1  0.36608113  0.74479775  0.50952170  1
  O  O223  1  0.86551581  0.25482514  0.00173512  1
  O  O224  1  0.86665050  0.24448927  0.51459029  1
  O  O225  1  0.86231029  0.75114596  0.00396206  1
  O  O226  1  0.88568273  0.77354074  0.50309436  1
  O  O227  1  0.13072315  0.23855152  0.49760582  1
  O  O228  1  0.13096488  0.24220686  0.99442346  1
  O  O229  1  0.13083214  0.74673493  0.49155988  1
  O  O230  1  0.12922831  0.74210565  0.99279918  1
  O  O231  1  0.63270610  0.24271648  0.49881135  1
  O  O232  1  0.63797260  0.24433167  1.00057365  1
  O  O233  1  0.61686836  0.73538887  0.50342619  1
  O  O234  1  0.63658353  0.75507488  1.00314277  1
  O  O235  1  0.49004319  0.25077457  0.11950564  1
  O  O236  1  0.50248593  0.23878123  0.63191796  1
  O  O237  1  0.49439756  0.74397848  0.13211990  1
  O  O238  1  0.49065166  0.74730042  0.63025135  1
  O  O239  1  0.99790353  0.24725737  0.13543402  1
  O  O240  1  0.98658125  0.24803769  0.61950781  1
  O  O241  1  0.99807198  0.74152730  0.13164067  1
  O  O242  1  1.00196241  0.73739761  0.62328437  1
  O  O243  1  -0.00070079  0.26009444  0.37088519  1
  O  O244  1  0.01138753  0.24948369  0.88153534  1
  O  O245  1  0.00641937  0.75269311  0.36782023  1
  O  O246  1  0.00747799  0.76174894  0.87866268  1
  O  O247  1  0.50157748  0.26168565  0.37752021  1
  O  O248  1  0.50192165  0.24468218  0.86551510  1
  O  O249  1  0.49062417  0.76074822  0.36844244  1
  O  O250  1  0.49506376  0.75905184  0.86601206  1
  O  O251  1  0.24510446  0.12423170  0.49119714  1
  O  O252  1  0.24486520  0.12759553  0.99493028  1
  O  O253  1  0.24252358  0.63665608  0.49902108  1
  O  O254  1  0.23701871  0.62267335  1.00384043  1
  O  O255  1  0.74701626  0.13100591  0.49233032  1
  O  O256  1  0.74580361  0.13174862  0.99636983  1
  O  O257  1  0.73578264  0.60977136  0.47788014  1
  O  O258  1  0.75027277  0.63104664  0.98647208  1
  O  O259  1  0.25658685  0.37211221  0.01085307  1
  O  O260  1  0.26484854  0.37546158  0.49882375  1
  O  O261  1  0.26452962  0.87769852  -0.00290614  1
  O  O262  1  0.24773057  0.86340737  0.50565925  1
  O  O263  1  0.75500639  0.36863868  0.00586877  1
  O  O264  1  0.74467415  0.36291510  0.50026121  1
  O  O265  1  0.75098650  0.86988277  0.00807991  1
  O  O266  1  0.75878108  0.87669364  0.49382986  1
  O  O267  1  0.13322859  0.49818148  0.24235252  1
  O  O268  1  0.13081283  0.49560540  0.74287889  1
  O  O269  1  0.13703180  0.99312979  0.24954761  1
  O  O270  1  0.13882503  1.00646893  0.74246738  1
  O  O271  1  0.62008357  0.48712037  0.23468827  1
  O  O272  1  0.62174046  0.48901812  0.74116822  1
  O  O273  1  0.63137792  0.98920477  0.24773020  1
  O  O274  1  0.62218433  1.00293955  0.73599091  1
  O  O275  1  0.36934764  0.00500628  0.25716899  1
  O  O276  1  0.36751439  0.00918375  0.75460243  1
  O  O277  1  0.36630973  0.49451109  0.25735558  1
  O  O278  1  0.36728248  0.50663552  0.75120099  1
  O  O279  1  0.86692018  0.00793705  0.25048842  1
  O  O280  1  0.87612336  0.00833828  0.76134096  1
  O  O281  1  0.88263890  0.50538445  0.26678529  1
  O  O282  1  0.87354240  0.50317140  0.76247607  1
  O  O283  1  0.11655457  0.37361895  0.37271492  1
  O  O284  1  0.12397580  0.36408864  0.86889002  1
  O  O285  1  0.11717368  0.86601706  0.36817149  1
  O  O286  1  0.11397852  0.86273178  0.87738231  1
  O  O287  1  0.61531116  0.37528512  0.36448953  1
  O  O288  1  0.62837321  0.38099017  0.86227708  1
  O  O289  1  0.61205735  0.88004183  0.36881037  1
  O  O290  1  0.61134647  0.88296147  0.87230460  1
  O  O291  1  0.37908897  0.13505190  0.13289808  1
  O  O292  1  0.38371201  0.11825173  0.63515965  1
  O  O293  1  0.38830948  0.63426077  0.12363180  1
  O  O294  1  0.37881618  0.63444687  0.63137475  1
  O  O295  1  0.87550528  0.12712487  0.13856616  1
  O  O296  1  0.87801449  0.13114546  0.63318594  1
  O  O297  1  0.88644183  0.62137453  0.12698142  1
  O  O298  1  0.89032242  0.61063209  0.63941321  1
  O  O299  1  0.25788679  0.25733938  0.12112427  1
  O  O300  1  0.25514942  0.25219489  0.62702356  1
  O  O301  1  0.26328879  0.74437384  0.12414498  1
  O  O302  1  0.25406736  0.75693198  0.61901520  1
  O  O303  1  0.75423160  0.26010070  0.11619570  1
  O  O304  1  0.75876506  0.25175018  0.61700742  1
  O  O305  1  0.74983481  0.75538530  0.11977651  1
  O  O306  1  0.75867564  0.70159560  0.60839260  1
  O  O307  1  0.25192871  0.23545606  0.37379333  1
  O  O308  1  0.24079607  0.24311879  0.88241992  1
  O  O309  1  0.24422179  0.75128550  0.38039034  1
  O  O310  1  0.23567372  0.75661362  0.87631778  1
  O  O311  1  0.74931494  0.24349594  0.38215410  1
  O  O312  1  0.75632415  0.23705205  0.88215324  1
  O  O313  1  0.75141500  0.73993324  0.37511147  1
  O  O314  1  0.75159584  0.73635930  0.88177880  1
  O  O315  1  0.00919200  0.11567789  0.00327624  1
  O  O316  1  0.01221799  0.12477703  0.49691797  1
  O  O317  1  0.00757308  0.62021539  0.00732482  1
  O  O318  1  0.00504678  0.61897474  0.50573310  1
  O  O319  1  0.50841673  0.11839126  0.00040256  1
  O  O320  1  0.50404324  0.11963053  0.50724191  1
  O  O321  1  0.49820677  0.61701484  0.00847722  1
  O  O322  1  0.50461922  0.61556521  0.50155364  1
  O  O323  1  0.49097212  0.37978504  0.49288919  1
  O  O324  1  0.49025304  0.38547573  1.00459547  1
  O  O325  1  0.50157234  0.88371542  0.49241682  1
  O  O326  1  0.49444357  0.88177894  0.99478821  1
  O  O327  1  1.00424690  0.38451661  0.48970031  1
  O  O328  1  0.99197036  0.38040316  0.99900524  1
  O  O329  1  1.00751556  0.87986599  0.48538430  1
  O  O330  1  0.99778518  0.88080530  0.99303937  1
  O  O331  1  0.49452723  0.49193391  0.37922111  1
  O  O332  1  0.49636115  0.50457965  0.88767928  1
  O  O333  1  0.49335736  0.99351240  0.38391548  1
  O  O334  1  0.49479526  0.99639342  0.88490635  1
  O  O335  1  0.99509184  0.49583109  0.38222034  1
  O  O336  1  0.99350020  0.49755482  0.88196988  1
  O  O337  1  1.00466366  0.98804833  0.36908737  1
  O  O338  1  0.99665580  0.98937503  0.88314009  1
  O  O339  1  -0.00490677  -0.00030959  0.11300810  1
  O  O340  1  0.01400412  -0.00146066  0.63249838  1
  O  O341  1  0.00594036  0.50505337  0.12056542  1
  O  O342  1  0.01107181  0.50358579  0.61690404  1
  O  O343  1  0.50035997  0.00190331  0.11320533  1
  O  O344  1  0.50445985  0.00801333  0.61987068  1
  O  O345  1  0.50379641  0.50915175  0.11770597  1
  O  O346  1  0.50212533  0.50425601  0.61582452  1
  O  O347  1  0.24975919  0.38082951  0.23954557  1
  O  O348  1  0.23960501  0.38435704  0.74903124  1
  O  O349  1  0.24017408  0.88620509  0.25500750  1
  O  O350  1  0.25603202  0.88463359  0.74116282  1
  O  O351  1  0.74596947  0.37171519  0.23782432  1
  O  O352  1  0.73589818  0.37772572  0.74572984  1
  O  O353  1  0.74516898  0.87949525  0.24885610  1
  O  O354  1  0.74714871  0.88167634  0.75511470  1
  O  O355  1  0.25961106  0.11627321  0.25647254  1
  O  O356  1  0.25701929  0.11850074  0.75393246  1
  O  O357  1  0.24675221  0.61420843  0.24908628  1
  O  O358  1  0.25879204  0.61493402  0.74235309  1
  O  O359  1  0.75525674  0.11885509  0.25539027  1
  O  O360  1  0.75768899  0.12172402  0.75819684  1
  O  O361  1  0.74843968  0.62676615  0.26414273  1
  O  O362  1  0.75790370  0.62103610  0.76515752  1
  O  O363  1  0.37151342  0.11587638  0.36950393  1
  O  O364  1  0.36738951  0.11868643  0.86911382  1
  O  O365  1  0.37344902  0.61013729  0.37876968  1
  O  O366  1  0.37587461  0.62688681  0.86229090  1
  O  O367  1  0.86334247  0.12910195  0.36606601  1
  O  O368  1  0.87118500  0.11916545  0.86943072  1
  O  O369  1  0.86076280  0.61680942  0.37612282  1
  O  O370  1  0.87586050  0.61904965  0.86848196  1
  O  O371  1  0.13508924  0.38030804  0.12489897  1
  O  O372  1  0.12625145  0.38100345  0.63088192  1
  O  O373  1  0.12058213  0.86800532  0.13792086  1
  O  O374  1  0.13729445  0.88017273  0.62202678  1
  O  O375  1  0.63207001  0.38004583  0.12905644  1
  O  O376  1  0.62361472  0.38576291  0.62725502  1
  O  O377  1  0.63558673  0.87786099  0.13395920  1
  O  O378  1  0.61804741  0.89145320  0.62772806  1
  O  O379  1  0.11399691  0.24876083  0.25418778  1
  O  O380  1  0.12858366  0.25679892  0.76042982  1
  O  O381  1  0.11695621  0.75538936  0.25622782  1
  O  O382  1  0.12734306  0.74504271  0.76243906  1
  O  O383  1  0.62793798  0.26267406  0.24834998  1
  O  O384  1  0.61893220  0.26340419  0.74674460  1
  O  O385  1  0.61493892  0.76330350  0.24726755  1
  O  O386  1  0.60986093  0.74889838  0.74154760  1
  O  O387  1  0.37131299  0.24062899  0.24146455  1
  O  O388  1  0.38202192  0.23980808  0.75665739  1
  O  O389  1  0.38442602  0.75648034  0.24182000  1
  O  O390  1  0.38084911  0.74388483  0.74298054  1
  O  O391  1  0.88626700  0.24280185  0.25066587  1
  O  O392  1  0.86972454  0.24334857  0.73563121  1
  O  O393  1  0.88654004  0.74684414  0.24855279  1
  O  O394  1  0.87168378  0.73947505  0.74363786  1
  O  O395  1  0.38285252  0.49394518  0.49389360  1
  O  O396  1  0.38174442  0.49223709  0.99811438  1
  O  O397  1  0.38575193  1.00527235  0.49323034  1
  O  O398  1  0.38284822  0.99545590  0.99545174  1
  O  O399  1  0.88511875  0.50648121  0.48993312  1
  O  O400  1  0.87990371  0.49614694  0.98953387  1
  O  O401  1  0.87616846  0.98495578  0.49999636  1
  O  O402  1  0.88351363  1.00047576  0.98976831  1
  O  O403  1  0.11728542  0.00757299  -0.00459720  1
  O  O404  1  0.13348905  0.00815922  0.51083918  1
  O  O405  1  0.12045675  0.50548766  0.00350422  1
  O  O406  1  0.12086303  0.50594789  0.50548084  1
  O  O407  1  0.61841594  0.00712603  0.00264071  1
  O  O408  1  0.61421470  0.00605977  0.50973140  1
  O  O409  1  0.61514378  0.49318568  0.01328993  1
  O  O410  1  0.61136570  0.50056685  0.50323126  1
  O  O411  1  0.36927308  0.36952246  0.11906027  1
  O  O412  1  0.37625779  0.38210907  0.60896698  1
  O  O413  1  0.38341325  0.86397364  0.11589917  1
  O  O414  1  0.36565528  0.86407327  0.62826586  1
  O  O415  1  0.86800174  0.37743939  0.11906014  1
  O  O416  1  0.87459059  0.36386605  0.63066316  1
  O  O417  1  0.86121788  0.87311023  0.12661584  1
  O  O418  1  0.87233188  0.87635696  0.61305810  1
  O  O419  1  0.13479284  0.12404391  0.38126461  1
  O  O420  1  0.12982795  0.12961676  0.88216179  1
  O  O421  1  0.12700594  0.63746354  0.37789419  1
  O  O422  1  0.11773543  0.63946640  0.88206741  1
  O  O423  1  0.63503439  0.12667734  0.38013740  1
  O  O424  1  0.63489161  0.11896751  0.88695072  1
  O  O425  1  0.63442103  0.62181400  0.37890061  1
  O  O426  1  0.63643192  0.62086707  0.86994041  1
