# generated using pymatgen
data_V85Zn86O256
_symmetry_space_group_name_H-M   'P 1'
_cell_length_a   16.93297570
_cell_length_b   16.93807078
_cell_length_c   16.93505017
_cell_angle_alpha   89.98351831
_cell_angle_beta   89.99113510
_cell_angle_gamma   89.97754311
_symmetry_Int_Tables_number   1
_chemical_formula_structural   V85Zn86O256
_chemical_formula_sum   'V85 Zn86 O256'
_cell_volume   4857.17397818
_cell_formula_units_Z   1
loop_
 _symmetry_equiv_pos_site_id
 _symmetry_equiv_pos_as_xyz
  1  'x, y, z'
loop_
 _atom_site_type_symbol
 _atom_site_label
 _atom_site_symmetry_multiplicity
 _atom_site_fract_x
 _atom_site_fract_y
 _atom_site_fract_z
 _atom_site_occupancy
  V  V0  1  0.11799264  0.12474186  0.00484236  1
  V  V1  1  0.12129178  0.49982365  0.62526459  1
  V  V2  1  0.12218008  0.37592992  0.25000200  1
  V  V3  1  0.63494277  -0.00135615  0.63181796  1
  V  V4  1  0.74720618  0.62468847  0.37456627  1
  V  V5  1  0.12325855  0.25156262  0.38001458  1
  V  V6  1  0.50062238  0.12447533  0.62607397  1
  V  V7  1  0.25761879  0.36922165  0.12600125  1
  V  V8  1  0.63226558  0.12515730  0.50134568  1
  V  V9  1  0.37209016  0.49767377  0.87790950  1
  V  V10  1  0.75047445  0.87082161  0.12450875  1
  V  V11  1  0.50438652  0.88128908  0.88575724  1
  V  V12  1  0.62823240  0.25253185  0.38166188  1
  V  V13  1  0.25114520  0.74584916  0.50040282  1
  V  V14  1  0.37154903  0.24635816  0.62646640  1
  V  V15  1  0.50310759  0.00029957  0.50205537  1
  V  V16  1  0.24680816  0.50486343  0.25326364  1
  V  V17  1  0.87448965  0.62883815  0.73931740  1
  V  V18  1  0.37379748  0.62568276  0.75091607  1
  V  V19  1  0.11422482  0.00507229  0.12511635  1
  V  V20  1  0.12062471  0.10700231  0.49993102  1
  V  V21  1  0.74787887  0.62581460  0.87151038  1
  V  V22  1  -0.01261207  0.49605615  0.49057315  1
  V  V23  1  0.81055933  0.45084570  0.30608097  1
  V  V24  1  0.88237325  -0.00234808  0.38117002  1
  V  V25  1  0.37219314  0.50351120  0.37736664  1
  V  V26  1  0.36913960  0.62942444  0.25578775  1
  V  V27  1  0.50564558  0.75206909  0.75922865  1
  V  V28  1  0.75648305  0.12378797  0.37751608  1
  V  V29  1  0.00212765  0.75078202  0.25137472  1
  V  V30  1  0.25735936  0.24630566  -0.00759703  1
  V  V31  1  0.24544006  0.49935756  0.75170010  1
  V  V32  1  0.49998870  0.75162265  0.25135814  1
  V  V33  1  0.37707745  0.75460605  0.11879227  1
  V  V34  1  0.25068332  0.75014426  -0.00511754  1
  V  V35  1  0.75899801  0.00186849  0.25076418  1
  V  V36  1  0.74880096  0.86353097  0.62574797  1
  V  V37  1  0.50895068  0.37882201  0.86986946  1
  V  V38  1  0.38346637  0.14127605  0.24757719  1
  V  V39  1  0.88339525  0.25475382  0.60957828  1
  V  V40  1  0.00510544  0.11482762  0.62655146  1
  V  V41  1  0.88024076  0.23598828  0.12383164  1
  V  V42  1  0.62808427  0.49911040  0.13901643  1
  V  V43  1  0.37745704  0.00295036  0.37490072  1
  V  V44  1  0.10813469  0.37008669  0.75559427  1
  V  V45  1  0.62535970  0.87560897  0.25374114  1
  V  V46  1  0.62316569  0.00344986  0.12507949  1
  V  V47  1  0.23617240  0.88449430  0.62853409  1
  V  V48  1  0.50229901  0.50414841  0.50199321  1
  V  V49  1  0.12915587  0.74816958  0.37523218  1
  V  V50  1  0.12865351  0.62095497  0.49628840  1
  V  V51  1  0.87597107  0.12781748  0.74440057  1
  V  V52  1  0.75489274  0.37684218  0.12409923  1
  V  V53  1  0.37115707  0.12040381  0.76628051  1
  V  V54  1  0.62415058  0.49423764  0.63055885  1
  V  V55  1  0.50434573  0.25418594  0.74976231  1
  V  V56  1  0.62744716  0.12449346  -0.00363889  1
  V  V57  1  0.88108032  0.86543544  0.50475561  1
  V  V58  1  0.00150722  0.76130792  0.74498006  1
  V  V59  1  0.74934891  0.11808176  0.86124068  1
  V  V60  1  0.37556997  0.87676826  0.50682380  1
  V  V61  1  0.50614842  0.62776731  0.62492600  1
  V  V62  1  0.00367238  0.50109706  -0.00315565  1
  V  V63  1  0.50066445  0.37034787  0.37559904  1
  V  V64  1  0.37283251  0.37381462  0.50189451  1
  V  V65  1  0.88233830  0.49446479  0.86981556  1
  V  V66  1  0.10850541  0.24876855  0.87557254  1
  V  V67  1  0.25448422  0.00398999  0.24989978  1
  V  V68  1  0.50152946  0.87570995  0.37740143  1
  V  V69  1  0.31775990  0.93679919  -0.05771339  1
  V  V70  1  0.25593587  0.88069699  0.12518141  1
  V  V71  1  0.24639038  0.37262264  0.62798966  1
  V  V72  1  0.88660357  0.37001376  -0.00550234  1
  V  V73  1  0.74921189  0.36645272  0.60703256  1
  V  V74  1  -0.00046038  0.23710546  0.24647157  1
  V  V75  1  0.57067032  0.31710863  0.21044082  1
  V  V76  1  0.62834297  0.62656436  -0.00190073  1
  V  V77  1  0.87599959  0.74857728  0.11916433  1
  V  V78  1  0.50108263  0.50157891  0.00066885  1
  V  V79  1  0.87262264  0.62643596  0.25366526  1
  V  V80  1  0.50167927  0.62593495  0.12649802  1
  V  V81  1  0.63032536  0.87627767  0.76279827  1
  V  V82  1  0.74909586  0.48396108  0.75054656  1
  V  V83  1  0.62430280  0.74616969  0.38629807  1
  V  V84  1  0.75747176  0.24974902  -0.00856160  1
  Zn  Zn85  1  -0.01199946  0.37693450  0.37349085  1
  Zn  Zn86  1  0.12753546  0.87631187  0.25190779  1
  Zn  Zn87  1  0.37767042  0.37147805  0.00503053  1
  Zn  Zn88  1  0.24892767  0.00476476  0.76172161  1
  Zn  Zn89  1  0.89498204  0.88152144  -0.00861287  1
  Zn  Zn90  1  0.24574847  0.24790510  0.50142577  1
  Zn  Zn91  1  0.75099360  0.74937808  -0.00865340  1
  Zn  Zn92  1  0.12632982  0.50188800  0.12217025  1
  Zn  Zn93  1  0.75218496  0.73969495  0.50492618  1
  Zn  Zn94  1  0.49095074  0.00705776  -0.00201725  1
  Zn  Zn95  1  0.25180257  0.12769753  0.37711819  1
  Zn  Zn96  1  0.00239513  0.62348294  0.12409976  1
  Zn  Zn97  1  0.88694152  -0.01532040  0.86160096  1
  Zn  Zn98  1  0.24361124  0.62654170  0.87555669  1
  Zn  Zn99  1  0.63228849  0.25776362  0.86466967  1
  Zn  Zn100  1  0.00498265  0.87759829  0.38182441  1
  Zn  Zn101  1  0.37495529  0.75239834  0.62809597  1
  Zn  Zn102  1  0.50281708  0.14368589  0.12737111  1
  Zn  Zn103  1  0.10979165  0.89930196  0.75728747  1
  Zn  Zn104  1  0.11088709  0.75928341  0.87854687  1
  Zn  Zn105  1  -0.00616922  0.62623585  0.61925383  1
  Zn  Zn106  1  0.12317607  0.62875169  -0.00133148  1
  Zn  Zn107  1  0.19147059  0.18935234  0.18793720  1
  Zn  Zn108  1  0.18410508  0.18314107  0.69213570  1
  Zn  Zn109  1  0.18685391  0.68705011  0.18121052  1
  Zn  Zn110  1  0.18494886  0.68995186  0.68476322  1
  Zn  Zn111  1  0.69909780  0.18199085  0.18586921  1
  Zn  Zn112  1  0.68852351  0.19440042  0.68256776  1
  Zn  Zn113  1  0.68859757  0.68618559  0.19288760  1
  Zn  Zn114  1  0.68492159  0.68515235  0.69187349  1
  Zn  Zn115  1  0.30830631  0.31543972  0.31623879  1
  Zn  Zn116  1  0.31200596  0.31311432  0.81277691  1
  Zn  Zn117  1  0.31239526  0.81527677  0.31532080  1
  Zn  Zn118  1  0.31496276  0.81366500  0.80870666  1
  Zn  Zn119  1  0.81439985  0.28847253  0.31254812  1
  Zn  Zn120  1  0.82439207  0.30707616  0.80688187  1
  Zn  Zn121  1  0.81351951  0.81158728  0.31488738  1
  Zn  Zn122  1  0.81296182  0.80843647  0.80939966  1
  Zn  Zn123  1  0.18685457  0.43598915  0.43637479  1
  Zn  Zn124  1  0.18663613  0.42990070  0.93556324  1
  Zn  Zn125  1  0.19238594  0.93368739  0.43543676  1
  Zn  Zn126  1  0.06298291  0.94334936  0.93443981  1
  Zn  Zn127  1  0.67830902  0.43880198  0.44058053  1
  Zn  Zn128  1  0.69051490  0.44250858  0.94092895  1
  Zn  Zn129  1  0.69334634  0.93568462  0.44192152  1
  Zn  Zn130  1  0.72663614  0.94942112  0.94776474  1
  Zn  Zn131  1  0.31019957  0.07666636  0.07103136  1
  Zn  Zn132  1  0.30989010  0.06484630  0.56191490  1
  Zn  Zn133  1  0.31077616  0.56437087  0.06598832  1
  Zn  Zn134  1  0.31243640  0.56296789  0.56634536  1
  Zn  Zn135  1  0.81469028  0.06072594  0.05828406  1
  Zn  Zn136  1  0.81674246  0.05763878  0.56233458  1
  Zn  Zn137  1  0.81580513  0.55947505  0.06233575  1
  Zn  Zn138  1  0.80562480  0.55755154  0.55917239  1
  Zn  Zn139  1  0.43268561  0.44425280  0.18690714  1
  Zn  Zn140  1  0.43474848  0.43669089  0.68929525  1
  Zn  Zn141  1  0.43940696  0.94199638  0.18595635  1
  Zn  Zn142  1  0.44058478  0.94035572  0.69250723  1
  Zn  Zn143  1  0.94503938  0.42993234  0.17860292  1
  Zn  Zn144  1  0.93443156  0.43708485  0.67996741  1
  Zn  Zn145  1  0.93754556  0.93150788  0.18651634  1
  Zn  Zn146  1  0.92933265  0.94292505  0.68179859  1
  Zn  Zn147  1  0.06600333  0.06101298  0.31332104  1
  Zn  Zn148  1  0.06897165  0.07046061  0.80771155  1
  Zn  Zn149  1  0.06220815  0.56582198  0.31407373  1
  Zn  Zn150  1  0.06212137  0.57050692  0.81466231  1
  Zn  Zn151  1  0.56469642  0.06517446  0.31197707  1
  Zn  Zn152  1  0.56185487  0.06237908  0.81374813  1
  Zn  Zn153  1  0.56010566  0.56393540  0.31514142  1
  Zn  Zn154  1  0.56387708  0.56114544  0.81057857  1
  Zn  Zn155  1  0.43976238  0.18825358  0.43776929  1
  Zn  Zn156  1  0.44201747  0.19127360  0.93902822  1
  Zn  Zn157  1  0.43654656  0.68833208  0.43970360  1
  Zn  Zn158  1  0.43920382  0.68765800  0.93592731  1
  Zn  Zn159  1  0.94151995  0.18552816  0.43767185  1
  Zn  Zn160  1  0.95652359  0.13766285  0.92245102  1
  Zn  Zn161  1  0.93912450  0.68490720  0.43591098  1
  Zn  Zn162  1  0.93466517  0.68469897  0.93103011  1
  Zn  Zn163  1  0.06703557  0.31028545  0.06476465  1
  Zn  Zn164  1  0.05803540  0.31637390  0.56113413  1
  Zn  Zn165  1  0.06730821  0.81446120  0.06665687  1
  Zn  Zn166  1  0.05929440  0.80750951  0.56771845  1
  Zn  Zn167  1  0.56996002  0.31580510  0.04386972  1
  Zn  Zn168  1  0.56274902  0.31245305  0.56251326  1
  Zn  Zn169  1  0.56898752  0.81253376  0.06241377  1
  Zn  Zn170  1  0.56341092  0.81242287  0.56770347  1
  O  O171  1  0.13667359  0.11761027  0.11623125  1
  O  O172  1  0.11357411  0.13310823  0.61318202  1
  O  O173  1  0.12155678  0.61963730  0.11807200  1
  O  O174  1  0.12347621  0.61599812  0.61485209  1
  O  O175  1  0.62697993  0.11965650  0.11833948  1
  O  O176  1  0.62358192  0.11835158  0.61936079  1
  O  O177  1  0.62237573  0.61675389  0.12258826  1
  O  O178  1  0.61249050  0.61500758  0.63057543  1
  O  O179  1  0.38172520  0.38189248  0.38060096  1
  O  O180  1  0.38276222  0.38737448  0.87482894  1
  O  O181  1  0.37965253  0.88133075  0.38801858  1
  O  O182  1  0.38175414  0.88043364  0.88101285  1
  O  O183  1  0.86528111  0.38511184  0.36241417  1
  O  O184  1  0.87069058  0.38114466  0.88262395  1
  O  O185  1  0.87557677  0.87932675  0.38676343  1
  O  O186  1  0.86175544  0.87502245  0.88104545  1
  O  O187  1  0.25878864  0.00226920  0.36790696  1
  O  O188  1  0.25983154  -0.01158706  0.88241838  1
  O  O189  1  0.25675374  0.49456231  0.36198341  1
  O  O190  1  0.25667431  0.50087298  0.87110750  1
  O  O191  1  0.75669792  0.00398651  0.36916898  1
  O  O192  1  0.73951853  0.01873769  0.85772981  1
  O  O193  1  0.74498222  0.50256437  0.36877249  1
  O  O194  1  0.75834126  0.50239200  0.86636088  1
  O  O195  1  0.24927601  0.49340498  0.13744460  1
  O  O196  1  0.23866173  0.49502467  0.63025308  1
  O  O197  1  0.25031871  0.99592621  0.13302902  1
  O  O198  1  0.25410787  0.98436229  0.62096934  1
  O  O199  1  0.74374617  0.48491149  0.11924650  1
  O  O200  1  0.74221278  0.48942453  0.62910963  1
  O  O201  1  0.74223326  0.99346320  0.13375120  1
  O  O202  1  0.73893695  0.98906711  0.61965258  1
  O  O203  1  0.00862086  0.36911601  0.25325951  1
  O  O204  1  0.00941893  0.37777702  0.74442309  1
  O  O205  1  0.00369421  0.86040567  0.25305828  1
  O  O206  1  -0.00562592  0.86535164  0.73854143  1
  O  O207  1  0.49898098  0.38003201  0.25895044  1
  O  O208  1  0.49493841  0.36743714  0.75796002  1
  O  O209  1  0.50395817  0.87225507  0.25843942  1
  O  O210  1  0.50501912  0.86925609  0.76053340  1
  O  O211  1  0.48882115  0.12421355  0.24934768  1
  O  O212  1  0.49042198  0.13200720  0.74437397  1
  O  O213  1  0.49208131  0.63161707  0.24493542  1
  O  O214  1  0.49518029  0.63203243  0.74719247  1
  O  O215  1  1.00689138  0.13898199  0.25157658  1
  O  O216  1  0.99462575  0.13110934  0.73203027  1
  O  O217  1  0.99291168  0.63458363  0.25002392  1
  O  O218  1  0.98291646  0.61998028  0.74356327  1
  O  O219  1  0.36290380  0.25237795  -0.00263387  1
  O  O220  1  0.37319396  0.25512862  0.50861085  1
  O  O221  1  0.37364321  0.74382923  0.01476230  1
  O  O222  1  0.36838052  0.75827337  0.50277075  1
  O  O223  1  0.86800943  0.25497722  0.00498899  1
  O  O224  1  0.87474303  0.24689427  0.51018955  1
  O  O225  1  0.87247426  0.74665933  0.01072797  1
  O  O226  1  0.87184148  0.76098799  0.49424037  1
  O  O227  1  0.12198935  0.25258854  0.48726237  1
  O  O228  1  0.13360790  0.24939181  0.99238293  1
  O  O229  1  0.13088574  0.74235734  0.49647276  1
  O  O230  1  0.13820679  0.75139738  1.00104735  1
  O  O231  1  0.62116056  0.24041001  0.49058984  1
  O  O232  1  0.64135697  0.24092195  0.99636113  1
  O  O233  1  0.62374479  0.75172776  0.48899074  1
  O  O234  1  0.62840494  0.72994492  1.00803509  1
  O  O235  1  0.51956298  0.26251650  0.13523745  1
  O  O236  1  0.49227192  0.24646352  0.63057209  1
  O  O237  1  0.49447942  0.74794096  0.13087973  1
  O  O238  1  0.49825433  0.74157875  0.63328011  1
  O  O239  1  0.99470384  0.25545160  0.13758229  1
  O  O240  1  0.98727339  0.24584338  0.61812327  1
  O  O241  1  0.99237305  0.74750093  0.13333731  1
  O  O242  1  0.99621914  0.74162800  0.63823277  1
  O  O243  1  0.00304130  0.25452507  0.36407856  1
  O  O244  1  0.01026695  0.24192150  0.88036727  1
  O  O245  1  0.01092652  0.75025355  0.36919342  1
  O  O246  1  -0.00786222  0.74255237  0.85059296  1
  O  O247  1  0.50772947  0.26250058  0.37780159  1
  O  O248  1  0.50311490  0.26140122  0.86779474  1
  O  O249  1  0.50536449  0.75538520  0.37183981  1
  O  O250  1  0.49570798  0.76048358  0.86792173  1
  O  O251  1  0.23394977  0.12747021  0.50073943  1
  O  O252  1  0.24301865  0.14287395  1.00469831  1
  O  O253  1  0.24419357  0.63422704  0.50607511  1
  O  O254  1  0.25084807  0.63620956  0.99910446  1
  O  O255  1  0.73831516  0.11564935  0.49456696  1
  O  O256  1  0.74744199  0.13370987  0.98465690  1
  O  O257  1  0.75380025  0.62260503  0.48229274  1
  O  O258  1  0.74533649  0.61975032  0.99072798  1
  O  O259  1  0.25219316  0.36777168  0.00924365  1
  O  O260  1  0.25584293  0.37393261  0.50875547  1
  O  O261  1  0.26207875  0.87152327  0.00758216  1
  O  O262  1  0.25690562  0.86967248  0.51063985  1
  O  O263  1  0.75699244  0.36830345  0.00620742  1
  O  O264  1  0.75148758  0.38167657  0.50934537  1
  O  O265  1  0.73050788  0.86170898  0.01991506  1
  O  O266  1  0.75668685  0.86660856  0.50812126  1
  O  O267  1  0.13107567  0.49419768  0.25193299  1
  O  O268  1  0.12604480  0.49513381  0.74382983  1
  O  O269  1  0.14088270  1.00217154  0.24702092  1
  O  O270  1  0.13684698  1.00927174  0.74607580  1
  O  O271  1  0.62098601  0.50273745  0.23858747  1
  O  O272  1  0.63224861  0.49930268  0.73876612  1
  O  O273  1  0.63389935  0.99636925  0.24472083  1
  O  O274  1  0.61704205  0.99085427  0.73972807  1
  O  O275  1  0.36914523  0.00637918  0.25483713  1
  O  O276  1  0.37324324  0.01684590  0.74697024  1
  O  O277  1  0.36771708  0.51084780  0.25594620  1
  O  O278  1  0.36799656  0.50625689  0.75645654  1
  O  O279  1  0.86290914  -0.01045813  0.25766004  1
  O  O280  1  0.87473694  0.01948987  0.74657535  1
  O  O281  1  0.87667672  0.50477704  0.24667428  1
  O  O282  1  0.86801331  0.50229784  0.75360587  1
  O  O283  1  0.12566539  0.36776055  0.36369120  1
  O  O284  1  0.12181382  0.36150494  0.86860825  1
  O  O285  1  0.12451410  0.86301781  0.37432295  1
  O  O286  1  0.11975013  0.87230710  0.86741875  1
  O  O287  1  0.61739677  0.36515959  0.37648954  1
  O  O288  1  0.61387057  0.37797662  0.88025286  1
  O  O289  1  0.62212180  0.86872324  0.37220232  1
  O  O290  1  0.62277237  0.88077163  0.86518140  1
  O  O291  1  0.38352536  0.12936137  0.14158690  1
  O  O292  1  0.38011981  0.13581828  0.62452314  1
  O  O293  1  0.38099121  0.63300301  0.13620979  1
  O  O294  1  0.38551980  0.62264247  0.63798359  1
  O  O295  1  0.86622710  0.13668187  0.12254743  1
  O  O296  1  0.88383930  0.13227877  0.62227114  1
  O  O297  1  0.87351724  0.63103436  0.13597944  1
  O  O298  1  0.86971287  0.61556465  0.63683315  1
  O  O299  1  0.24406855  0.26081778  0.11359918  1
  O  O300  1  0.25627746  0.25368542  0.62570424  1
  O  O301  1  0.25767244  0.76008335  0.11725060  1
  O  O302  1  0.25264908  0.75997662  0.61576593  1
  O  O303  1  0.75763751  0.25912331  0.11887228  1
  O  O304  1  0.75531122  0.26167069  0.61809386  1
  O  O305  1  0.75964228  0.75511775  0.13031953  1
  O  O306  1  0.74012165  0.75803608  0.62179882  1
  O  O307  1  0.23823866  0.24777528  0.37786750  1
  O  O308  1  0.24501546  0.25905587  0.89031889  1
  O  O309  1  0.24463143  0.75582716  0.38988238  1
  O  O310  1  0.26090110  0.75160534  0.88931961  1
  O  O311  1  0.74236801  0.23614158  0.37832723  1
  O  O312  1  0.75009647  0.24830789  0.87863552  1
  O  O313  1  0.74007903  0.74174163  0.37450132  1
  O  O314  1  0.75042875  0.72985594  0.87269663  1
  O  O315  1  0.01948255  0.14018513  0.01700909  1
  O  O316  1  0.01379298  0.12689050  0.50732632  1
  O  O317  1  -0.00349484  0.61405464  0.00014786  1
  O  O318  1  0.00836051  0.61462284  0.49994380  1
  O  O319  1  0.51221897  0.12799253  0.00560958  1
  O  O320  1  0.51114833  0.12093101  0.50597349  1
  O  O321  1  0.50698992  0.62004333  0.00583110  1
  O  O322  1  0.49162996  0.61632324  0.51217918  1
  O  O323  1  0.49341115  0.38205240  0.49475881  1
  O  O324  1  0.49618757  0.38338990  0.99038006  1
  O  O325  1  0.49405954  0.87861993  0.49722856  1
  O  O326  1  0.50919491  0.87698144  0.98913422  1
  O  O327  1  1.00312826  0.39088179  0.49253479  1
  O  O328  1  0.99033965  0.37845538  1.00411014  1
  O  O329  1  0.98589427  0.86964643  0.50212170  1
  O  O330  1  1.00377964  0.88908896  1.01539010  1
  O  O331  1  0.49618250  0.49307492  0.38455753  1
  O  O332  1  0.49304405  0.49600195  0.87777095  1
  O  O333  1  0.49807617  0.99461714  0.38166294  1
  O  O334  1  0.50290051  0.99113528  0.88117188  1
  O  O335  1  1.00199255  0.49922592  0.38619800  1
  O  O336  1  0.98826277  0.50262620  0.87809116  1
  O  O337  1  0.98627280  0.99679846  0.36566803  1
  O  O338  1  0.99406990  1.02864989  0.88418838  1
  O  O339  1  0.01637247  0.00138299  0.14381362  1
  O  O340  1  -0.00230701  0.01634596  0.62146122  1
  O  O341  1  0.00214140  0.50145473  0.11184525  1
  O  O342  1  0.00973739  0.49970737  0.61336062  1
  O  O343  1  0.51516708  -0.00014747  0.11954557  1
  O  O344  1  0.50909834  0.00607157  0.62030400  1
  O  O345  1  0.50711483  0.50574202  0.12113874  1
  O  O346  1  0.50499970  0.50312122  0.62234869  1
  O  O347  1  0.24364390  0.38112575  0.24432591  1
  O  O348  1  0.24264521  0.38162997  0.74533541  1
  O  O349  1  0.25225482  0.88496598  0.24408963  1
  O  O350  1  0.25643850  0.87651746  0.73315961  1
  O  O351  1  0.76126651  0.38160047  0.24638387  1
  O  O352  1  0.75486158  0.38213792  0.74096765  1
  O  O353  1  0.74482430  0.87893971  0.24322440  1
  O  O354  1  0.74002769  0.86783718  0.74020936  1
  O  O355  1  0.26305432  0.12052965  0.25234495  1
  O  O356  1  0.26780348  0.12821380  0.74914454  1
  O  O357  1  0.25825505  0.61865312  0.24573039  1
  O  O358  1  0.25785604  0.62109822  0.74995778  1
  O  O359  1  0.74912986  0.11347070  0.26323502  1
  O  O360  1  0.75310995  0.13487269  0.75644085  1
  O  O361  1  0.75855214  0.62318080  0.26034592  1
  O  O362  1  0.75669275  0.61323472  0.75291603  1
  O  O363  1  0.37637586  0.11973171  0.36809516  1
  O  O364  1  0.38042847  0.12787068  0.86450643  1
  O  O365  1  0.38048515  0.62069226  0.36370956  1
  O  O366  1  0.37613722  0.61457228  0.86493573  1
  O  O367  1  0.86504714  0.11497102  0.38526055  1
  O  O368  1  0.86064884  0.13141560  0.86184521  1
  O  O369  1  0.86793450  0.62875179  0.36155130  1
  O  O370  1  0.86628960  0.61283232  0.86308736  1
  O  O371  1  0.13347822  0.37824278  0.13687704  1
  O  O372  1  0.12825276  0.38015354  0.63166242  1
  O  O373  1  0.14250184  0.88491262  0.12964519  1
  O  O374  1  0.13457959  0.87387596  0.62778282  1
  O  O375  1  0.63114660  0.37690091  0.13351014  1
  O  O376  1  0.63799140  0.37896186  0.62074593  1
  O  O377  1  0.62877508  0.88196509  0.13576565  1
  O  O378  1  0.63000300  0.88167348  0.63249263  1
  O  O379  1  0.11803263  0.25509094  0.25723171  1
  O  O380  1  0.12862065  0.25494037  0.76686018  1
  O  O381  1  0.12126846  0.74806969  0.25829379  1
  O  O382  1  0.10750432  0.74923860  0.74690265  1
  O  O383  1  0.63279446  0.24819851  0.26098223  1
  O  O384  1  0.60908409  0.24735944  0.74684711  1
  O  O385  1  0.61728043  0.75619289  0.25762124  1
  O  O386  1  0.61313799  0.75868045  0.74808935  1
  O  O387  1  0.37441925  0.23947027  0.25895942  1
  O  O388  1  0.38244767  0.24318204  0.74472135  1
  O  O389  1  0.37826227  0.74567101  0.24529578  1
  O  O390  1  0.38424149  0.74131432  0.74855118  1
  O  O391  1  0.89037123  0.24944005  0.23993126  1
  O  O392  1  0.86992735  0.23777653  0.72924694  1
  O  O393  1  0.88216818  0.74420726  0.24370957  1
  O  O394  1  0.87746840  0.73269770  0.74645982  1
  O  O395  1  0.38233910  0.49503963  0.49909086  1
  O  O396  1  0.38099517  0.50140406  0.99293494  1
  O  O397  1  0.38181120  0.99558168  0.49619853  1
  O  O398  1  0.37110891  1.00245039  1.00280793  1
  O  O399  1  0.88933614  0.50313433  0.50149071  1
  O  O400  1  0.88324928  0.49065839  0.99131707  1
  O  O401  1  0.86885722  0.98332611  0.49064956  1
  O  O402  1  0.83844400  0.98661824  0.98129021  1
  O  O403  1  0.12710885  0.01822668  0.00857330  1
  O  O404  1  0.12461816  0.00882017  0.49309992  1
  O  O405  1  0.11177312  0.49608739  -0.00533350  1
  O  O406  1  0.12420816  0.50626473  0.50579316  1
  O  O407  1  0.63594518  0.01480852  0.00746750  1
  O  O408  1  0.62035293  0.00518165  0.50649665  1
  O  O409  1  0.62013719  0.50636160  0.01204381  1
  O  O410  1  0.60998586  0.49823680  0.51216239  1
  O  O411  1  0.36260520  0.37897301  0.12556522  1
  O  O412  1  0.36936906  0.36402085  0.62354587  1
  O  O413  1  0.36761212  0.86759513  0.13202534  1
  O  O414  1  0.37730680  0.87545837  0.61503607  1
  O  O415  1  0.86899682  0.36733783  0.11475012  1
  O  O416  1  0.86501327  0.36318782  0.62357508  1
  O  O417  1  0.86538823  0.86585719  0.12275728  1
  O  O418  1  0.86402534  0.87741169  0.61268424  1
  O  O419  1  0.12444991  0.13146810  0.38700062  1
  O  O420  1  0.12776593  0.13959035  0.89099957  1
  O  O421  1  0.12603254  0.63416944  0.38688922  1
  O  O422  1  0.12711130  0.63772441  0.87913835  1
  O  O423  1  0.63164025  0.12959583  0.38322955  1
  O  O424  1  0.63318102  0.13205178  0.87866829  1
  O  O425  1  0.63200400  0.63463900  0.36889129  1
  O  O426  1  0.63446052  0.61127494  0.88548530  1
