# generated using pymatgen
data_V85Zn86O256
_symmetry_space_group_name_H-M   'P 1'
_cell_length_a   16.92280949
_cell_length_b   16.92118760
_cell_length_c   16.92091140
_cell_angle_alpha   90.00913632
_cell_angle_beta   89.94562033
_cell_angle_gamma   89.95938812
_symmetry_Int_Tables_number   1
_chemical_formula_structural   V85Zn86O256
_chemical_formula_sum   'V85 Zn86 O256'
_cell_volume   4845.36777742
_cell_formula_units_Z   1
loop_
 _symmetry_equiv_pos_site_id
 _symmetry_equiv_pos_as_xyz
  1  'x, y, z'
loop_
 _atom_site_type_symbol
 _atom_site_label
 _atom_site_symmetry_multiplicity
 _atom_site_fract_x
 _atom_site_fract_y
 _atom_site_fract_z
 _atom_site_occupancy
  V  V0  1  0.87268285  0.24877529  0.62056679  1
  V  V1  1  0.00265146  0.62511346  0.11568876  1
  V  V2  1  0.37537748  0.75207922  0.12422787  1
  V  V3  1  0.24488842  0.87552479  0.12241295  1
  V  V4  1  0.25234511  0.75330782  0.49756684  1
  V  V5  1  0.49844244  0.50087130  -0.00236580  1
  V  V6  1  0.62690163  0.50127918  0.12569045  1
  V  V7  1  0.38567484  0.87686063  -0.00165388  1
  V  V8  1  0.87466267  0.00378944  0.87500494  1
  V  V9  1  0.88116806  0.74960319  0.62833061  1
  V  V10  1  0.62403410  0.62816886  -0.00162996  1
  V  V11  1  0.61725581  -0.00097684  0.61918202  1
  V  V12  1  0.25206935  0.25679501  0.01289916  1
  V  V13  1  0.62257088  0.37254554  0.75336465  1
  V  V14  1  0.74993855  0.13166913  0.38018264  1
  V  V15  1  0.74891619  0.62526196  0.87672517  1
  V  V16  1  0.87272196  0.62908612  0.75364981  1
  V  V17  1  0.23682847  0.12791773  0.37337279  1
  V  V18  1  0.38767005  0.00285530  0.87341767  1
  V  V19  1  0.38235005  0.01054287  0.37918094  1
  V  V20  1  0.87099694  0.37142265  0.49753062  1
  V  V21  1  0.12361140  0.26796180  0.87059993  1
  V  V22  1  0.62374693  0.87174557  0.24589485  1
  V  V23  1  0.37331326  0.37397015  0.01412843  1
  V  V24  1  0.12520511  0.75047525  0.37256966  1
  V  V25  1  0.75804820  0.25620821  -0.00118452  1
  V  V26  1  0.45226514  0.05972581  0.06120437  1
  V  V27  1  0.49858525  0.62030317  0.62430696  1
  V  V28  1  0.12447063  0.49433462  0.62541637  1
  V  V29  1  0.13182745  0.50109873  0.12349387  1
  V  V30  1  0.75103556  0.74473440  0.49538352  1
  V  V31  1  0.38105879  0.49597963  0.37403008  1
  V  V32  1  0.74708951  0.75400864  0.00381342  1
  V  V33  1  0.25036767  0.62323715  0.37143610  1
  V  V34  1  0.74970108  -0.00180132  0.24658499  1
  V  V35  1  0.62607083  0.00162854  0.12382328  1
  V  V36  1  0.62182129  0.74865151  0.37264198  1
  V  V37  1  0.49682501  0.24468694  0.23698932  1
  V  V38  1  0.61805194  0.12542056  0.49769960  1
  V  V39  1  0.50064826  0.62944369  0.12968997  1
  V  V40  1  0.75072707  0.50151824  0.25267409  1
  V  V41  1  0.24020469  0.74190967  -0.01696132  1
  V  V42  1  0.73538131  0.12758547  0.87584515  1
  V  V43  1  0.87113147  0.87879971  0.00574654  1
  V  V44  1  0.38257192  0.37070487  0.49605528  1
  V  V45  1  0.87281648  0.50277555  0.37768828  1
  V  V46  1  -0.00050793  0.87486629  0.37480477  1
  V  V47  1  0.87499922  0.87525029  0.50000147  1
  V  V48  1  0.37371309  0.62462950  0.75931637  1
  V  V49  1  -0.00023591  0.48066334  0.00273155  1
  V  V50  1  0.73836785  -0.00371579  0.75209556  1
  V  V51  1  0.05910357  0.69929364  0.81021279  1
  V  V52  1  0.37743108  0.75137224  0.62504485  1
  V  V53  1  0.12391208  0.62324998  0.49924966  1
  V  V54  1  0.87379712  0.12544141  0.75014892  1
  V  V55  1  0.50149912  0.87694293  0.38135976  1
  V  V56  1  0.37544968  0.63087918  0.25078528  1
  V  V57  1  0.74405114  0.87326883  0.62839473  1
  V  V58  1  0.00219444  0.26430336  0.75304654  1
  V  V59  1  0.00842947  0.37305977  0.37598439  1
  V  V60  1  0.62094135  0.25569083  0.37840879  1
  V  V61  1  0.62812123  0.62113320  0.49698672  1
  V  V62  1  0.87345458  0.12880277  0.24594823  1
  V  V63  1  -0.00088420  0.87530922  0.86929023  1
  V  V64  1  0.87077547  0.75251711  0.12818555  1
  V  V65  1  0.24398751  0.12925637  0.87230573  1
  V  V66  1  0.00551201  0.24967019  0.25264255  1
  V  V67  1  0.87449075  0.62535888  0.25480188  1
  V  V68  1  0.62241992  0.13268471  0.00598977  1
  V  V69  1  0.50055537  0.24083345  0.74925958  1
  V  V70  1  0.49933744  0.37020422  0.87496608  1
  V  V71  1  0.12458707  0.88164092  0.24610659  1
  V  V72  1  0.01075677  -0.00019995  0.00629442  1
  V  V73  1  0.13428951  0.37291265  0.24752529  1
  V  V74  1  0.61931505  0.37594515  0.25283499  1
  V  V75  1  0.23660067  0.24712274  0.49621590  1
  V  V76  1  0.00130154  0.00614713  0.49937513  1
  V  V77  1  0.00041714  0.12597695  0.62511538  1
  V  V78  1  0.87478793  0.48549218  0.88114382  1
  V  V79  1  0.12448312  0.87395316  0.75224529  1
  V  V80  1  0.12579137  0.00532635  0.62123308  1
  V  V81  1  0.24893351  0.00108772  0.75210596  1
  V  V82  1  0.74799322  0.37190249  0.62385269  1
  V  V83  1  0.24967655  0.49884345  0.75571784  1
  V  V84  1  0.25031867  0.37343115  0.62756307  1
  Zn  Zn85  1  0.37218509  0.12815150  0.74555314  1
  Zn  Zn86  1  0.62519007  0.77015179  0.86287326  1
  Zn  Zn87  1  0.50605323  0.76096738  0.75711005  1
  Zn  Zn88  1  0.75592649  0.37754765  0.12156878  1
  Zn  Zn89  1  0.87278628  0.00132129  0.37480782  1
  Zn  Zn90  1  0.49550838  0.12295497  0.61915140  1
  Zn  Zn91  1  0.50424799  0.49297036  0.49637822  1
  Zn  Zn92  1  0.37678458  0.12707058  0.23884197  1
  Zn  Zn93  1  0.62455367  0.49724158  0.62441442  1
  Zn  Zn94  1  0.00304028  0.62653182  0.62866985  1
  Zn  Zn95  1  0.01217603  0.12014546  0.13136198  1
  Zn  Zn96  1  0.25443919  0.49584857  0.24363628  1
  Zn  Zn97  1  0.12308704  0.13037943  0.00280010  1
  Zn  Zn98  1  0.88306035  0.26009094  0.12008103  1
  Zn  Zn99  1  0.25005740  0.00305307  0.24805164  1
  Zn  Zn100  1  0.74873995  0.49791105  0.75111421  1
  Zn  Zn101  1  0.37915853  0.87884986  0.49865004  1
  Zn  Zn102  1  0.24998938  0.87675913  0.62309075  1
  Zn  Zn103  1  0.36775207  0.50157019  0.87911408  1
  Zn  Zn104  1  -0.00090032  0.50026390  0.50204436  1
  Zn  Zn105  1  0.00132627  0.74943519  0.24764784  1
  Zn  Zn106  1  0.37573266  0.24629558  0.62197489  1
  Zn  Zn107  1  0.18338515  0.18429953  0.18808983  1
  Zn  Zn108  1  0.18520657  0.19008970  0.68665630  1
  Zn  Zn109  1  0.18792688  0.68992878  0.18411646  1
  Zn  Zn110  1  0.19514450  0.68185500  0.68251414  1
  Zn  Zn111  1  0.68752281  0.18936833  0.18536208  1
  Zn  Zn112  1  0.68407912  0.18816170  0.68737276  1
  Zn  Zn113  1  0.69041914  0.68633204  0.19009742  1
  Zn  Zn114  1  0.68649562  0.68715783  0.68614523  1
  Zn  Zn115  1  0.31545611  0.30899921  0.31305302  1
  Zn  Zn116  1  0.31675441  0.31539257  0.81380493  1
  Zn  Zn117  1  0.31473508  0.81482465  0.31132413  1
  Zn  Zn118  1  0.32147558  0.81795358  0.81140444  1
  Zn  Zn119  1  0.81144213  0.31347329  0.30910258  1
  Zn  Zn120  1  0.80804059  0.30752285  0.81025881  1
  Zn  Zn121  1  0.80835283  0.81409815  0.31348203  1
  Zn  Zn122  1  0.80743950  0.81342440  0.81500345  1
  Zn  Zn123  1  0.19354786  0.43691513  0.43715101  1
  Zn  Zn124  1  0.18632466  0.43836169  0.94281534  1
  Zn  Zn125  1  0.18828132  0.94137807  0.43445432  1
  Zn  Zn126  1  0.19271853  0.92880327  0.93354613  1
  Zn  Zn127  1  0.69102861  0.43604008  0.43680261  1
  Zn  Zn128  1  0.68399908  0.43797803  0.93463661  1
  Zn  Zn129  1  0.68910100  0.93893648  0.43637281  1
  Zn  Zn130  1  0.69049740  0.94485161  0.94702556  1
  Zn  Zn131  1  0.28439141  0.06396035  0.06253808  1
  Zn  Zn132  1  0.31158300  0.06540463  0.55943915  1
  Zn  Zn133  1  0.31186794  0.56733766  0.05857598  1
  Zn  Zn134  1  0.31302117  0.56079574  0.56181081  1
  Zn  Zn135  1  0.81263737  0.06698406  0.06512351  1
  Zn  Zn136  1  0.80887009  0.06186565  0.56101672  1
  Zn  Zn137  1  0.81606256  0.56131269  0.06358117  1
  Zn  Zn138  1  0.81194856  0.56095138  0.56517567  1
  Zn  Zn139  1  0.44134229  0.43950822  0.19012988  1
  Zn  Zn140  1  0.43564633  0.43620758  0.68557207  1
  Zn  Zn141  1  0.43536057  0.93185017  0.19986003  1
  Zn  Zn142  1  0.43148686  0.93958931  0.68281154  1
  Zn  Zn143  1  0.93910860  0.43468601  0.18746875  1
  Zn  Zn144  1  0.93459112  0.44153654  0.68713543  1
  Zn  Zn145  1  0.93588065  0.93748793  0.18894154  1
  Zn  Zn146  1  0.93472797  0.93773000  0.68799115  1
  Zn  Zn147  1  0.06115769  0.06063991  0.31247874  1
  Zn  Zn148  1  0.06225466  0.06625541  0.81283971  1
  Zn  Zn149  1  0.05995167  0.56003136  0.30870317  1
  Zn  Zn150  1  0.06472316  0.52912233  0.81739375  1
  Zn  Zn151  1  0.56153186  0.06574752  0.31004678  1
  Zn  Zn152  1  0.55838024  -0.06874270  0.81436053  1
  Zn  Zn153  1  0.56177322  0.56542872  0.31392592  1
  Zn  Zn154  1  0.56195942  0.56577139  0.81070046  1
  Zn  Zn155  1  0.43974800  0.19347197  0.43358385  1
  Zn  Zn156  1  0.43149176  0.19225500  0.92986664  1
  Zn  Zn157  1  0.44145983  0.68740883  0.43712403  1
  Zn  Zn158  1  0.43828827  0.69400591  0.93767033  1
  Zn  Zn159  1  0.93883945  0.18775345  0.43443756  1
  Zn  Zn160  1  0.93971648  0.18734430  0.93552953  1
  Zn  Zn161  1  0.93941553  0.68763852  0.43749425  1
  Zn  Zn162  1  0.93159366  0.68386595  0.94414621  1
  Zn  Zn163  1  0.06805643  0.30913422  0.06888806  1
  Zn  Zn164  1  0.05988877  0.31410662  0.56317625  1
  Zn  Zn165  1  0.06149601  0.81085943  0.05919201  1
  Zn  Zn166  1  0.06369754  0.81531575  0.56277393  1
  Zn  Zn167  1  0.56803945  0.31535844  0.06246879  1
  Zn  Zn168  1  0.56401542  0.30774476  0.56248548  1
  Zn  Zn169  1  0.56218768  0.81548788  0.06375829  1
  Zn  Zn170  1  0.56269211  0.81000559  0.56440949  1
  O  O171  1  0.12675051  0.11973948  0.11689395  1
  O  O172  1  0.11778607  0.11266826  0.62997697  1
  O  O173  1  0.11235311  0.61728918  0.13385852  1
  O  O174  1  0.12463876  0.61691563  0.61554458  1
  O  O175  1  0.62437276  0.11704943  0.11898429  1
  O  O176  1  0.62783475  0.11729324  0.61449528  1
  O  O177  1  0.61771594  0.62352054  0.12059449  1
  O  O178  1  0.61815330  0.62141288  0.61400066  1
  O  O179  1  0.36932168  0.38430991  0.38257348  1
  O  O180  1  0.38611710  0.38091478  0.88338233  1
  O  O181  1  0.38413129  0.88413962  0.37360747  1
  O  O182  1  0.36516947  0.89273937  0.88786218  1
  O  O183  1  0.88081457  0.37979687  0.38146276  1
  O  O184  1  0.86937381  0.38765100  0.86891998  1
  O  O185  1  0.88152596  0.87601643  0.38113575  1
  O  O186  1  0.87900268  0.88440709  0.88075713  1
  O  O187  1  0.25738724  0.01415799  0.37424790  1
  O  O188  1  0.25052538  0.00937302  0.86817340  1
  O  O189  1  0.26118457  0.50873218  0.37287357  1
  O  O190  1  0.24682426  0.49288251  0.86038187  1
  O  O191  1  0.74926830  0.01013588  0.36303893  1
  O  O192  1  0.75835835  0.00766350  0.86901657  1
  O  O193  1  0.76435261  0.49726097  0.36868568  1
  O  O194  1  0.76136077  0.50562692  0.87713786  1
  O  O195  1  0.23572272  0.50713975  0.12183609  1
  O  O196  1  0.24434336  0.49165414  0.62872608  1
  O  O197  1  0.25077866  0.98149186  0.12939989  1
  O  O198  1  0.24153421  0.99943751  0.63071211  1
  O  O199  1  0.74362405  0.50292935  0.13294525  1
  O  O200  1  0.75220414  0.48499145  0.62940110  1
  O  O201  1  0.74285248  1.00535479  0.13779728  1
  O  O202  1  0.74508198  0.99227977  0.63222945  1
  O  O203  1  0.00845290  0.36882496  0.25831560  1
  O  O204  1  -0.00483409  0.36370676  0.74653070  1
  O  O205  1  0.00596026  0.87338441  0.25618575  1
  O  O206  1  0.00374361  0.87778145  0.76077991  1
  O  O207  1  0.51320425  0.36985491  0.24832730  1
  O  O208  1  0.50344913  0.37043663  0.75657357  1
  O  O209  1  0.51539533  0.87676161  0.26330827  1
  O  O210  1  0.48345999  0.87393806  0.75540322  1
  O  O211  1  0.49959860  0.13948579  0.24665836  1
  O  O212  1  0.50120930  0.13979362  0.75087206  1
  O  O213  1  0.49402574  0.62171023  0.23677013  1
  O  O214  1  0.49144393  0.62098194  0.73583028  1
  O  O215  1  0.99305129  0.13140738  0.25343119  1
  O  O216  1  0.99189351  0.13020921  0.74382842  1
  O  O217  1  0.98817873  0.62583658  0.24103063  1
  O  O218  1  0.99688102  0.63250922  0.75520921  1
  O  O219  1  0.36007250  0.25869488  -0.00501335  1
  O  O220  1  0.36706709  0.25710655  0.49844799  1
  O  O221  1  0.36820496  0.75925466  0.00556341  1
  O  O222  1  0.36732075  0.74979729  0.50390565  1
  O  O223  1  0.86254832  0.24325238  0.00039461  1
  O  O224  1  0.88127976  0.25602976  0.51182252  1
  O  O225  1  0.86642770  0.75741340  0.00724282  1
  O  O226  1  0.86816625  0.75199752  0.50612995  1
  O  O227  1  0.13764588  0.25496572  0.49968724  1
  O  O228  1  0.13472680  0.25511741  0.98834894  1
  O  O229  1  0.13171074  0.74387923  0.49552272  1
  O  O230  1  0.14023987  0.75594794  0.99828265  1
  O  O231  1  0.62643403  0.24232499  0.48979854  1
  O  O232  1  0.63399446  0.23850238  1.00457189  1
  O  O233  1  0.63259713  0.74269283  0.49533551  1
  O  O234  1  0.63726392  0.74715636  1.00543521  1
  O  O235  1  0.50593344  0.25450199  0.13816175  1
  O  O236  1  0.49791294  0.24756656  0.63413579  1
  O  O237  1  0.48641988  0.74280728  0.11879178  1
  O  O238  1  0.48806750  0.74226826  0.62262069  1
  O  O239  1  1.00066200  0.24500976  0.13796000  1
  O  O240  1  0.99488396  0.24532252  0.63179963  1
  O  O241  1  0.98907859  0.74282494  0.12375169  1
  O  O242  1  0.98529425  0.74963196  0.62033408  1
  O  O243  1  -0.00324556  0.25952279  0.36474642  1
  O  O244  1  0.01434138  0.24598584  0.86887750  1
  O  O245  1  0.00635059  0.75834961  0.37412919  1
  O  O246  1  -0.00218683  0.75463109  0.87582442  1
  O  O247  1  0.51562710  0.24769294  0.36296966  1
  O  O248  1  0.49736109  0.26075125  0.86631970  1
  O  O249  1  0.51406167  0.75705283  0.37706421  1
  O  O250  1  0.51593436  0.73442712  0.87136313  1
  O  O251  1  0.25062123  0.13859074  0.48989280  1
  O  O252  1  0.24740074  0.14144389  0.98966054  1
  O  O253  1  0.24129406  0.63370458  0.49469673  1
  O  O254  1  0.25426560  0.64225591  0.99670781  1
  O  O255  1  0.74565293  0.12270995  0.48497278  1
  O  O256  1  0.74375732  0.13248099  0.99552367  1
  O  O257  1  0.74258455  0.63368241  0.50655740  1
  O  O258  1  0.74827650  0.63327906  0.99524909  1
  O  O259  1  0.25807945  0.36540246  -0.00339202  1
  O  O260  1  0.25665136  0.36405644  0.50464517  1
  O  O261  1  0.25836782  0.86936374  0.00772756  1
  O  O262  1  0.24784551  0.86205949  0.49829423  1
  O  O263  1  0.74178272  0.35856249  -0.00388890  1
  O  O264  1  0.76333342  0.37524666  0.50655787  1
  O  O265  1  0.76335530  0.86910220  0.00009576  1
  O  O266  1  0.75680363  0.86861264  0.50673502  1
  O  O267  1  0.12666470  0.49264495  0.24141108  1
  O  O268  1  0.13476564  0.50123507  0.73678638  1
  O  O269  1  0.12804450  0.98579269  0.25526313  1
  O  O270  1  0.13131819  0.99361638  0.74545541  1
  O  O271  1  0.63161162  0.49711678  0.24934925  1
  O  O272  1  0.62523053  0.48743363  0.74697940  1
  O  O273  1  0.62980462  0.99662410  0.24225930  1
  O  O274  1  0.63599276  1.00017118  0.74060656  1
  O  O275  1  0.37096207  0.00388851  0.26412411  1
  O  O276  1  0.36084910  0.00282837  0.75574858  1
  O  O277  1  0.37402309  0.50989746  0.25438370  1
  O  O278  1  0.36764370  0.50629454  0.75088296  1
  O  O279  1  0.86696994  0.00676091  0.25160851  1
  O  O280  1  0.86722227  0.00601823  0.75675957  1
  O  O281  1  0.87004209  0.50615381  0.25694196  1
  O  O282  1  0.87813847  0.51179546  0.76349383  1
  O  O283  1  0.11297142  0.38482253  0.37012321  1
  O  O284  1  0.12477797  0.36684718  0.87204601  1
  O  O285  1  0.11980018  0.86998133  0.36898380  1
  O  O286  1  0.11669576  0.87685670  0.86063651  1
  O  O287  1  0.63088479  0.36714232  0.36744057  1
  O  O288  1  0.61080470  0.37977437  0.86766871  1
  O  O289  1  0.62069730  0.86940758  0.37120988  1
  O  O290  1  0.63752622  0.88286436  0.87414489  1
  O  O291  1  0.37951646  0.10943687  0.11787353  1
  O  O292  1  0.37808821  0.12602988  0.62715565  1
  O  O293  1  0.38055592  0.63109501  0.13107857  1
  O  O294  1  0.38156899  0.63072184  0.62731342  1
  O  O295  1  0.87999846  0.12719983  0.13819346  1
  O  O296  1  0.87680155  0.13248570  0.62791032  1
  O  O297  1  0.88139200  0.63125356  0.13316507  1
  O  O298  1  0.87823944  0.62992169  0.63557352  1
  O  O299  1  0.24668772  0.25001958  0.11092071  1
  O  O300  1  0.24899506  0.25549789  0.61403828  1
  O  O301  1  0.26082980  0.75649207  0.11897805  1
  O  O302  1  0.26044242  0.75019982  0.61522883  1
  O  O303  1  0.75288696  0.24996108  0.11024286  1
  O  O304  1  0.76005483  0.26053955  0.63084579  1
  O  O305  1  0.76242962  0.74467000  0.11889027  1
  O  O306  1  0.75874232  0.75614400  0.61645319  1
  O  O307  1  0.25222935  0.23901077  0.38455855  1
  O  O308  1  0.23844069  0.24724410  0.87300256  1
  O  O309  1  0.24689324  0.74393192  0.38047736  1
  O  O310  1  0.25410881  0.75735336  0.88429639  1
  O  O311  1  0.73752441  0.24082843  0.36446775  1
  O  O312  1  0.75364408  0.23976347  0.88575518  1
  O  O313  1  0.74070760  0.75487227  0.38865350  1
  O  O314  1  0.74867172  0.74208703  0.88582068  1
  O  O315  1  0.00080141  0.10895616  -0.00215760  1
  O  O316  1  -0.00523926  0.11294252  0.50465151  1
  O  O317  1  -0.00634169  0.61657098  0.01253525  1
  O  O318  1  0.01363339  0.62361396  0.50033990  1
  O  O319  1  0.50349736  0.12929585  -0.00047280  1
  O  O320  1  0.51372570  0.12820784  0.49780250  1
  O  O321  1  0.50143274  0.61846630  0.01061861  1
  O  O322  1  0.50783341  0.62359272  0.50932865  1
  O  O323  1  0.48709530  0.37313425  0.50282985  1
  O  O324  1  0.49657634  0.38106617  0.99501707  1
  O  O325  1  0.50173378  0.87197339  0.48640500  1
  O  O326  1  0.48587753  0.87371746  1.00117973  1
  O  O327  1  0.98969157  0.37640211  0.49292845  1
  O  O328  1  0.99825296  0.38222829  1.00679255  1
  O  O329  1  0.99480827  0.88370336  0.49593854  1
  O  O330  1  0.99161227  0.88201349  0.99034376  1
  O  O331  1  0.48595105  0.50593496  0.37726930  1
  O  O332  1  0.49988596  0.49777741  0.88809687  1
  O  O333  1  0.48963685  0.99624764  0.37217896  1
  O  O334  1  0.48600001  1.00960525  0.86922932  1
  O  O335  1  0.98851861  0.49192633  0.37538393  1
  O  O336  1  0.98852705  0.49802308  0.89169030  1
  O  O337  1  0.99775480  0.99378713  0.38375631  1
  O  O338  1  0.99199150  0.99409525  0.88046345  1
  O  O339  1  -0.00407919  -0.00262537  0.10911424  1
  O  O340  1  0.00469770  0.00409281  0.61911433  1
  O  O341  1  0.00434052  0.50523032  0.11604042  1
  O  O342  1  0.00914630  0.50368834  0.62364176  1
  O  O343  1  0.50463983  -0.00287211  0.12724056  1
  O  O344  1  0.51388082  0.00156146  0.62753641  1
  O  O345  1  0.50604713  0.50732068  0.11582001  1
  O  O346  1  0.50075654  0.50694943  0.61852858  1
  O  O347  1  0.23825525  0.37559307  0.25785399  1
  O  O348  1  0.25779890  0.38056239  0.73456994  1
  O  O349  1  0.24193274  0.87302441  0.24213449  1
  O  O350  1  0.24192144  0.88312257  0.74818589  1
  O  O351  1  0.74108187  0.38796227  0.25044816  1
  O  O352  1  0.74089688  0.37483627  0.74424474  1
  O  O353  1  0.73724453  0.88599211  0.25656428  1
  O  O354  1  0.75931559  0.88483556  0.73881996  1
  O  O355  1  0.25586097  0.12850852  0.26230309  1
  O  O356  1  0.24686716  0.11835654  0.75557523  1
  O  O357  1  0.25880055  0.62353359  0.25386132  1
  O  O358  1  0.26203919  0.61213140  0.74238414  1
  O  O359  1  0.75606687  0.12086141  0.25583126  1
  O  O360  1  0.75241316  0.11936115  0.75766785  1
  O  O361  1  0.76066770  0.61280047  0.24824550  1
  O  O362  1  0.75708763  0.62014291  0.75754726  1
  O  O363  1  0.37249500  0.11693093  0.37413497  1
  O  O364  1  0.36004324  0.11981652  0.87165844  1
  O  O365  1  0.37212875  0.62265520  0.36678954  1
  O  O366  1  0.37878007  0.62222781  0.86209774  1
  O  O367  1  0.86694025  0.12534397  0.36543408  1
  O  O368  1  0.86921634  0.11550523  0.87194135  1
  O  O369  1  0.88091182  0.61748023  0.36616784  1
  O  O370  1  0.86513922  0.62050456  0.87176184  1
  O  O371  1  0.12101983  0.38628125  0.13646726  1
  O  O372  1  0.13346595  0.38584234  0.61685229  1
  O  O373  1  0.13187072  0.86553713  0.13379709  1
  O  O374  1  0.12333949  0.88370468  0.63691537  1
  O  O375  1  0.63160189  0.38465597  0.13354602  1
  O  O376  1  0.63354828  0.37491656  0.62864875  1
  O  O377  1  0.62169747  0.88409147  0.13429844  1
  O  O378  1  0.63714778  0.88217626  0.61583688  1
  O  O379  1  0.11781578  0.25909428  0.24914473  1
  O  O380  1  0.11721841  0.24881613  0.76151192  1
  O  O381  1  0.12343801  0.75756487  0.25721988  1
  O  O382  1  0.12283294  0.75289354  0.74520780  1
  O  O383  1  0.61932405  0.25860789  0.25313442  1
  O  O384  1  0.61719229  0.26338389  0.74598269  1
  O  O385  1  0.63481785  0.75768070  0.26040792  1
  O  O386  1  0.62159714  0.75019202  0.74803342  1
  O  O387  1  0.39201201  0.24990476  0.25192545  1
  O  O388  1  0.38438230  0.25017195  0.74672472  1
  O  O389  1  0.37263055  0.73925279  0.24213272  1
  O  O390  1  0.37327089  0.74126809  0.74008921  1
  O  O391  1  0.88276831  0.24319932  0.24968113  1
  O  O392  1  0.88114572  0.24467136  0.74186829  1
  O  O393  1  0.87296251  0.74360209  0.24509212  1
  O  O394  1  0.86820158  0.73858334  0.74427645  1
  O  O395  1  0.37378393  0.49110573  0.49120146  1
  O  O396  1  0.38176770  0.49505288  0.99933257  1
  O  O397  1  0.36876611  0.99681896  0.48351154  1
  O  O398  1  0.38013538  1.00129514  0.99856519  1
  O  O399  1  0.87677253  0.49378724  0.49362904  1
  O  O400  1  0.88347185  0.50041628  0.99015887  1
  O  O401  1  0.88189001  0.99326020  0.49950275  1
  O  O402  1  0.87874250  0.99491404  0.99424179  1
  O  O403  1  0.11103846  -0.00693235  -0.00846800  1
  O  O404  1  0.11578165  -0.00717774  0.51072087  1
  O  O405  1  0.10959143  0.49608133  0.00641388  1
  O  O406  1  0.12688985  0.50775680  0.50548217  1
  O  O407  1  0.62895600  0.01180910  0.01630140  1
  O  O408  1  0.63339347  0.01047395  0.50821008  1
  O  O409  1  0.61896067  0.50766075  0.00554487  1
  O  O410  1  0.62555099  0.50713793  0.49931638  1
  O  O411  1  0.37957096  0.38049631  0.11356491  1
  O  O412  1  0.36549578  0.37384338  0.61368824  1
  O  O413  1  0.37048074  0.86783588  0.12230506  1
  O  O414  1  0.37006676  0.86626727  0.61696848  1
  O  O415  1  0.86878792  0.37316238  0.12944320  1
  O  O416  1  0.87075323  0.36892477  0.61823595  1
  O  O417  1  0.88020558  0.86542213  0.11738152  1
  O  O418  1  0.86750815  0.86784743  0.62057732  1
  O  O419  1  0.13819022  0.12159627  0.37389327  1
  O  O420  1  0.13400297  0.13078804  0.87870659  1
  O  O421  1  0.12892381  0.62831894  0.37909675  1
  O  O422  1  0.11122355  0.63321347  0.86086959  1
  O  O423  1  0.63147054  0.13029115  0.37977230  1
  O  O424  1  0.63593862  0.11760733  0.88836963  1
  O  O425  1  0.62072709  0.63319070  0.38670556  1
  O  O426  1  0.64048513  0.61554191  0.88192390  1
