# generated using pymatgen
data_V85Zn86O256
_symmetry_space_group_name_H-M   'P 1'
_cell_length_a   16.94607595
_cell_length_b   16.94892117
_cell_length_c   16.95546079
_cell_angle_alpha   90.05836411
_cell_angle_beta   90.01408006
_cell_angle_gamma   90.06964680
_symmetry_Int_Tables_number   1
_chemical_formula_structural   V85Zn86O256
_chemical_formula_sum   'V85 Zn86 O256'
_cell_volume   4869.90226846
_cell_formula_units_Z   1
loop_
 _symmetry_equiv_pos_site_id
 _symmetry_equiv_pos_as_xyz
  1  'x, y, z'
loop_
 _atom_site_type_symbol
 _atom_site_label
 _atom_site_symmetry_multiplicity
 _atom_site_fract_x
 _atom_site_fract_y
 _atom_site_fract_z
 _atom_site_occupancy
  V  V0  1  0.50076914  0.12948052  0.64492069  1
  V  V1  1  0.38128524  0.62685925  0.74916782  1
  V  V2  1  0.74977853  0.75330469  -0.00026721  1
  V  V3  1  0.00314634  0.12382941  0.12621063  1
  V  V4  1  0.25234821  0.62825304  0.87286152  1
  V  V5  1  0.24756666  0.38913754  0.12968683  1
  V  V6  1  0.62536068  0.62384198  -0.00193913  1
  V  V7  1  0.87860567  0.62076264  0.24617158  1
  V  V8  1  0.87003110  0.49972985  0.87039811  1
  V  V9  1  0.00161344  0.76829267  0.75310896  1
  V  V10  1  0.62434865  0.87976535  0.25134165  1
  V  V11  1  0.12983509  0.88184300  0.25467195  1
  V  V12  1  0.50397407  0.74592410  0.25432132  1
  V  V13  1  0.62212512  0.49556617  0.12051888  1
  V  V14  1  0.37405610  0.87770826  0.50094300  1
  V  V15  1  0.00546112  0.62664981  0.12158199  1
  V  V16  1  0.25413872  0.74837997  0.49568352  1
  V  V17  1  0.12601429  0.50045793  0.62440802  1
  V  V18  1  0.37594819  0.74753131  0.62393242  1
  V  V19  1  0.86864074  0.37245209  0.00085002  1
  V  V20  1  0.39107833  0.36631422  0.49947213  1
  V  V21  1  0.87488039  0.37194038  0.50715501  1
  V  V22  1  0.25267893  0.88146388  0.12846572  1
  V  V23  1  0.00256179  0.37608464  0.37652112  1
  V  V24  1  0.36646005  -0.00115055  0.37223602  1
  V  V25  1  0.00464432  -0.00603759  -0.00970339  1
  V  V26  1  0.12852827  -0.00006539  0.12778600  1
  V  V27  1  0.12700352  0.37682582  0.74993307  1
  V  V28  1  0.49905845  0.24739862  0.25193830  1
  V  V29  1  -0.00072106  0.50341742  0.50234402  1
  V  V30  1  0.12628137  0.62154980  -0.00177604  1
  V  V31  1  0.12433461  0.62768211  0.49950960  1
  V  V32  1  0.74552930  -0.00401395  0.74934313  1
  V  V33  1  0.24607816  0.87480957  0.63473726  1
  V  V34  1  0.12874157  0.39146432  0.24879036  1
  V  V35  1  0.74658731  0.61982101  0.86377042  1
  V  V36  1  0.12434243  0.24946097  0.87402300  1
  V  V37  1  0.50682910  0.76008802  0.74455166  1
  V  V38  1  0.86597375  0.75482926  0.12412239  1
  V  V39  1  0.37514102  0.37723760  0.00145756  1
  V  V40  1  -0.00719359  0.13155987  0.62511358  1
  V  V41  1  0.74985684  0.37340017  0.12676438  1
  V  V42  1  0.00077990  0.49982676  0.00498343  1
  V  V43  1  0.12323392  -0.00313228  0.63004631  1
  V  V44  1  0.49833129  0.00945655  0.49949986  1
  V  V45  1  0.63986401  0.24484088  0.87891029  1
  V  V46  1  0.24884657  0.75596321  -0.00051838  1
  V  V47  1  0.87252955  0.24927760  0.12520306  1
  V  V48  1  0.87587952  0.87649918  -0.00722282  1
  V  V49  1  -0.00098136  0.62712260  0.63069202  1
  V  V50  1  0.36881720  0.12019160  0.24756962  1
  V  V51  1  -0.01232153  -0.00255184  0.49604667  1
  V  V52  1  0.87148119  0.50001413  0.37617588  1
  V  V53  1  0.38000575  0.50390137  0.87464875  1
  V  V54  1  0.12279321  0.76287744  0.87088874  1
  V  V55  1  0.35680989  0.61915032  0.25761914  1
  V  V56  1  0.12648695  0.12507044  0.00075309  1
  V  V57  1  0.50733311  0.11227540  0.11903351  1
  V  V58  1  0.25213979  0.50114232  0.74518678  1
  V  V59  1  0.38827800  0.00069017  0.87234665  1
  V  V60  1  0.24961880  0.25003566  0.00314460  1
  V  V61  1  0.49665305  0.36078324  0.86719287  1
  V  V62  1  0.49568490  0.61212867  0.61119376  1
  V  V63  1  0.74803363  -0.00212580  0.24595889  1
  V  V64  1  0.37538689  0.25124607  0.12641913  1
  V  V65  1  0.62677741  0.24544068  0.37894341  1
  V  V66  1  0.00236529  0.37781106  0.87691902  1
  V  V67  1  0.87880973  0.11639098  0.25642103  1
  V  V68  1  0.00432443  0.25163409  0.25334094  1
  V  V69  1  0.75060566  0.37620219  0.63595622  1
  V  V70  1  0.62617170  0.36638591  0.24736875  1
  V  V71  1  0.63182372  0.50412153  0.61958874  1
  V  V72  1  0.12366133  0.74973055  0.37707853  1
  V  V73  1  0.12868035  0.12659036  0.49924306  1
  V  V74  1  -0.01475087  0.87907564  0.37525364  1
  V  V75  1  0.36779795  0.24026385  0.63925880  1
  V  V76  1  0.75355866  0.24715146  0.51158087  1
  V  V77  1  0.75452238  0.11778875  0.37889025  1
  V  V78  1  0.25121423  0.13075482  0.37736378  1
  V  V79  1  0.87193090  0.75892232  0.61870943  1
  V  V80  1  -0.00054210  0.75374040  0.24921047  1
  V  V81  1  0.25025921  0.36824589  0.61244653  1
  V  V82  1  0.62513784  0.75764400  0.86436254  1
  V  V83  1  0.73588028  0.51015019  0.25755709  1
  V  V84  1  0.37470656  0.74884544  0.12516921  1
  Zn  Zn85  1  -0.00361403  0.25459900  0.74307985  1
  Zn  Zn86  1  0.73911102  0.87284359  0.62060642  1
  Zn  Zn87  1  0.61781696  -0.01016773  0.63228345  1
  Zn  Zn88  1  0.62063843  0.37489234  0.74971553  1
  Zn  Zn89  1  0.13240835  0.25497033  0.37904447  1
  Zn  Zn90  1  0.50322520  0.87725204  0.37608835  1
  Zn  Zn91  1  0.26115180  0.12829781  0.86078600  1
  Zn  Zn92  1  0.72094549  0.62290803  0.39643365  1
  Zn  Zn93  1  0.87428117  0.62458207  0.74915700  1
  Zn  Zn94  1  0.40635988  0.89425130  0.00013491  1
  Zn  Zn95  1  0.49718230  0.62093666  0.12577526  1
  Zn  Zn96  1  0.62614121  0.12198420  0.50649899  1
  Zn  Zn97  1  0.25251301  0.00554047  0.75237244  1
  Zn  Zn98  1  0.76102927  0.12335858  0.88412079  1
  Zn  Zn99  1  0.49999075  0.50131662  -0.00363266  1
  Zn  Zn100  1  0.68854508  0.94076123  0.08121674  1
  Zn  Zn101  1  0.71361799  0.75147475  0.48502948  1
  Zn  Zn102  1  0.37811912  0.50690372  0.37773274  1
  Zn  Zn103  1  0.50715042  0.38259086  0.37953065  1
  Zn  Zn104  1  0.87037814  0.13184175  0.75182700  1
  Zn  Zn105  1  0.63231465  0.10847694  0.00326461  1
  Zn  Zn106  1  0.88281189  0.00003779  0.86599191  1
  Zn  Zn107  1  0.18936607  0.19224894  0.19000660  1
  Zn  Zn108  1  0.18132981  0.18715710  0.68546903  1
  Zn  Zn109  1  0.18559286  0.69122516  0.18724968  1
  Zn  Zn110  1  0.18721277  0.69089846  0.68747403  1
  Zn  Zn111  1  0.69087185  0.18197453  0.18622958  1
  Zn  Zn112  1  0.68334292  0.18598988  0.69910266  1
  Zn  Zn113  1  0.67886318  0.67673834  0.20291509  1
  Zn  Zn114  1  0.68721185  0.68203623  0.67947127  1
  Zn  Zn115  1  0.31279914  0.31470942  0.31352837  1
  Zn  Zn116  1  0.30995370  0.31389255  0.81189917  1
  Zn  Zn117  1  0.31314037  0.80814149  0.31350056  1
  Zn  Zn118  1  0.32020212  0.81916653  0.81465358  1
  Zn  Zn119  1  0.81206156  0.31094595  0.31532623  1
  Zn  Zn120  1  0.81828836  0.30727999  0.81168564  1
  Zn  Zn121  1  0.80210894  0.81181023  0.31065525  1
  Zn  Zn122  1  0.81347641  0.81311435  0.80907174  1
  Zn  Zn123  1  0.19322567  0.44174246  0.43069204  1
  Zn  Zn124  1  0.19128982  0.44011117  0.93849352  1
  Zn  Zn125  1  0.18581585  0.93961437  0.44153979  1
  Zn  Zn126  1  0.19686890  0.94092910  0.93586062  1
  Zn  Zn127  1  0.68517489  0.43302426  0.44376919  1
  Zn  Zn128  1  0.68633799  0.43325492  0.93531281  1
  Zn  Zn129  1  0.68552881  0.93362762  0.44044409  1
  Zn  Zn130  1  0.68557066  0.94117089  0.92154992  1
  Zn  Zn131  1  0.31663184  0.06322899  0.05752443  1
  Zn  Zn132  1  0.30997207  0.06442358  0.56550596  1
  Zn  Zn133  1  0.31433750  0.56786646  0.06248493  1
  Zn  Zn134  1  0.30046830  0.54621874  0.53005568  1
  Zn  Zn135  1  0.81804462  0.06708829  0.05706743  1
  Zn  Zn136  1  0.81003012  0.05789198  0.56692275  1
  Zn  Zn137  1  0.81012322  0.56324729  0.06153947  1
  Zn  Zn138  1  0.80902859  0.57037608  0.56098249  1
  Zn  Zn139  1  0.43751397  0.43910888  0.19256963  1
  Zn  Zn140  1  0.43413703  0.43539805  0.68281980  1
  Zn  Zn141  1  0.43549015  0.93544077  0.19011678  1
  Zn  Zn142  1  0.43503764  0.94224937  0.68827033  1
  Zn  Zn143  1  0.93955701  0.43828080  0.18794665  1
  Zn  Zn144  1  0.93776304  0.43669937  0.68918676  1
  Zn  Zn145  1  0.93834144  0.93686729  0.18360358  1
  Zn  Zn146  1  0.93253323  0.94327924  0.68449680  1
  Zn  Zn147  1  0.06462235  0.06104918  0.31545301  1
  Zn  Zn148  1  0.06866260  0.06452476  0.80958147  1
  Zn  Zn149  1  0.06038443  0.56603794  0.31577316  1
  Zn  Zn150  1  0.06308631  0.56485718  0.81461279  1
  Zn  Zn151  1  0.56189772  0.06100347  0.31194324  1
  Zn  Zn152  1  0.56584931  0.06114172  0.81793988  1
  Zn  Zn153  1  0.55528025  0.55852237  0.31158619  1
  Zn  Zn154  1  0.56464674  0.55831066  0.80401435  1
  Zn  Zn155  1  0.43269519  0.19202868  0.44132206  1
  Zn  Zn156  1  0.43691028  0.18024531  0.93964787  1
  Zn  Zn157  1  0.49233491  0.70580325  0.45151506  1
  Zn  Zn158  1  0.45610310  0.71914833  0.95213668  1
  Zn  Zn159  1  0.93863233  0.18797158  0.44011666  1
  Zn  Zn160  1  0.93885715  0.18753751  0.93798738  1
  Zn  Zn161  1  0.89100657  0.70997491  0.41644552  1
  Zn  Zn162  1  0.93635589  0.68965866  0.93344189  1
  Zn  Zn163  1  0.06319427  0.31517077  0.06655030  1
  Zn  Zn164  1  0.06617041  0.31159787  0.55840886  1
  Zn  Zn165  1  0.06359553  0.81307983  0.06219645  1
  Zn  Zn166  1  0.05760953  0.81522611  0.56168146  1
  Zn  Zn167  1  0.55750850  0.30875447  0.05798112  1
  Zn  Zn168  1  0.56589740  0.30435005  0.57086814  1
  Zn  Zn169  1  0.56579260  0.81063857  0.06836011  1
  Zn  Zn170  1  0.56895475  0.81632056  0.56138660  1
  O  O171  1  0.12321513  0.12118503  0.12254401  1
  O  O172  1  0.11656505  0.11664073  0.61442216  1
  O  O173  1  0.11367394  0.63264806  0.11518898  1
  O  O174  1  0.12022092  0.62042356  0.62155181  1
  O  O175  1  0.61081065  0.12701725  0.12764471  1
  O  O176  1  0.60839581  0.12703452  0.62624777  1
  O  O177  1  0.62443259  0.61286226  0.11738502  1
  O  O178  1  0.61100680  0.61282195  0.62570069  1
  O  O179  1  0.37615789  0.36909152  0.39256866  1
  O  O180  1  0.37992255  0.38205693  0.87932496  1
  O  O181  1  0.37054013  0.88415971  0.38256335  1
  O  O182  1  0.36616171  0.89120533  0.88591184  1
  O  O183  1  0.87973077  0.38430794  0.38290925  1
  O  O184  1  0.88041484  0.38088809  0.88495352  1
  O  O185  1  0.88675734  0.87471040  0.36431312  1
  O  O186  1  0.87595196  0.87407905  0.88933468  1
  O  O187  1  0.26005731  0.00958951  0.37859547  1
  O  O188  1  0.25267134  0.00988201  0.87198110  1
  O  O189  1  0.27262256  0.51623455  0.41876228  1
  O  O190  1  0.26134768  0.50556103  0.86812494  1
  O  O191  1  0.74555708  0.01402272  0.36792046  1
  O  O192  1  0.75977417  -0.00017409  0.86128002  1
  O  O193  1  0.75856826  0.49847250  0.37657087  1
  O  O194  1  0.75882356  0.50653187  0.88202569  1
  O  O195  1  0.25114348  0.48738038  0.11512558  1
  O  O196  1  0.24320036  0.49130747  0.62578947  1
  O  O197  1  0.24690015  0.98799922  0.11924502  1
  O  O198  1  0.24148506  0.99097561  0.62379163  1
  O  O199  1  0.73799027  0.49379670  0.12960669  1
  O  O200  1  0.74008311  0.49282931  0.62111984  1
  O  O201  1  0.76272179  1.00471461  0.14204271  1
  O  O202  1  0.74376922  0.99905675  0.63467620  1
  O  O203  1  0.00697722  0.36970882  0.25505999  1
  O  O204  1  0.00985813  0.37782017  0.75826493  1
  O  O205  1  0.00870019  0.87356364  0.25567919  1
  O  O206  1  -0.00023916  0.86627466  0.74790916  1
  O  O207  1  0.50465451  0.35916404  0.25026335  1
  O  O208  1  0.49388276  0.37741780  0.76514538  1
  O  O209  1  0.50475198  0.86600309  0.24879944  1
  O  O210  1  0.49270421  0.85810024  0.74227409  1
  O  O211  1  0.49180280  0.13244487  0.24384447  1
  O  O212  1  0.49956014  0.12252188  0.74225092  1
  O  O213  1  0.49451185  0.63794352  0.24660309  1
  O  O214  1  0.48922456  0.62734764  0.74389718  1
  O  O215  1  0.99666345  0.13199029  0.24910384  1
  O  O216  1  1.00504729  0.12427715  0.73099730  1
  O  O217  1  0.99570478  0.62849550  0.23904285  1
  O  O218  1  1.00124162  0.62666224  0.73953449  1
  O  O219  1  0.36699892  0.25589586  0.00509156  1
  O  O220  1  0.37339374  0.25879028  0.51485552  1
  O  O221  1  0.35796428  0.73487691  0.01411490  1
  O  O222  1  0.37087724  0.75902716  0.50469501  1
  O  O223  1  0.88684022  0.26195669  0.01329209  1
  O  O224  1  0.86735513  0.26171276  0.49575699  1
  O  O225  1  0.87042904  0.75529213  0.00444807  1
  O  O226  1  0.89275647  0.74880041  0.52184798  1
  O  O227  1  0.11993905  0.23280960  0.49532777  1
  O  O228  1  0.13200913  0.24907688  0.99613374  1
  O  O229  1  0.12962942  0.74896621  0.49402144  1
  O  O230  1  0.12877683  0.73996032  0.99365289  1
  O  O231  1  0.63447213  0.24514867  0.49366962  1
  O  O232  1  0.61751123  0.25352883  0.98022960  1
  O  O233  1  0.59526638  0.74597064  0.48120938  1
  O  O234  1  0.63391050  0.74069264  0.98778916  1
  O  O235  1  0.49242998  0.24466110  0.13347103  1
  O  O236  1  0.48857116  0.23588735  0.62705566  1
  O  O237  1  0.48890692  0.74654905  0.13901454  1
  O  O238  1  0.49351965  0.73322379  0.62942560  1
  O  O239  1  0.99388992  0.24636848  0.13449283  1
  O  O240  1  1.00672725  0.23452539  0.62082084  1
  O  O241  1  0.99517058  0.74370761  0.13006628  1
  O  O242  1  0.99919919  0.74564341  0.63788553  1
  O  O243  1  0.00180389  0.25849469  0.36864077  1
  O  O244  1  0.01378945  0.26103166  0.88165737  1
  O  O245  1  -0.00010413  0.75989415  0.36793617  1
  O  O246  1  0.00754438  0.74563464  0.86083222  1
  O  O247  1  0.50919791  0.24639576  0.36735483  1
  O  O248  1  0.49368512  0.26089776  0.87614530  1
  O  O249  1  0.47885359  0.76031788  0.35467096  1
  O  O250  1  0.51901829  0.73651448  0.85765227  1
  O  O251  1  0.24086538  0.12050658  0.49097859  1
  O  O252  1  0.24441285  0.14042275  1.00400643  1
  O  O253  1  0.23988829  0.64425540  0.51340020  1
  O  O254  1  0.24077902  0.63140130  0.99526304  1
  O  O255  1  0.75133298  0.13056020  0.49544216  1
  O  O256  1  0.74612372  0.12529622  0.99909714  1
  O  O257  1  0.74144011  0.63740288  0.50374457  1
  O  O258  1  0.74129683  0.63063092  0.99303112  1
  O  O259  1  0.25416092  0.36677025  0.00612584  1
  O  O260  1  0.24841023  0.36920058  0.51152920  1
  O  O261  1  0.24295788  0.86203557  0.01002425  1
  O  O262  1  0.25757597  0.86801737  0.50560397  1
  O  O263  1  0.76319341  0.37940945  0.00774162  1
  O  O264  1  0.75842590  0.36597811  0.50774428  1
  O  O265  1  0.75793726  0.86820944  0.00287032  1
  O  O266  1  0.73904104  0.86114627  0.50428034  1
  O  O267  1  0.12000498  0.49090551  0.25409075  1
  O  O268  1  0.13203204  0.49698729  0.74509371  1
  O  O269  1  0.12349056  0.98869526  0.24610387  1
  O  O270  1  0.12151425  0.99747502  0.73272665  1
  O  O271  1  0.62003272  0.47954660  0.23582748  1
  O  O272  1  0.62100119  0.49154953  0.73066981  1
  O  O273  1  0.63460184  0.99540053  0.24780778  1
  O  O274  1  0.64010260  1.00411238  0.75199684  1
  O  O275  1  0.37730295  0.00878536  0.25920300  1
  O  O276  1  0.37015265  -0.00658970  0.76465402  1
  O  O277  1  0.37347673  0.51425823  0.24944104  1
  O  O278  1  0.37002836  0.50681271  0.75397445  1
  O  O279  1  0.87519058  0.01263036  0.24906203  1
  O  O280  1  0.86799437  0.00948627  0.74748854  1
  O  O281  1  0.86966987  0.50264377  0.25711921  1
  O  O282  1  0.88203245  0.50118091  0.76732519  1
  O  O283  1  0.12274002  0.37497062  0.36917727  1
  O  O284  1  0.12366289  0.37143298  0.87104156  1
  O  O285  1  0.11964119  0.86848598  0.36988843  1
  O  O286  1  0.12899313  0.86100160  0.88343128  1
  O  O287  1  0.62766337  0.36016108  0.36900365  1
  O  O288  1  0.60952956  0.37164358  0.87462404  1
  O  O289  1  0.61891009  0.88192177  0.35852409  1
  O  O290  1  0.62996514  0.85536995  0.86827926  1
  O  O291  1  0.38010618  0.13111634  0.13220621  1
  O  O292  1  0.38209149  0.13433750  0.62297377  1
  O  O293  1  0.37650019  0.63220007  0.13347146  1
  O  O294  1  0.38233751  0.62551168  0.63249800  1
  O  O295  1  0.88426721  0.13390082  0.13463960  1
  O  O296  1  0.89164390  0.12390293  0.61884873  1
  O  O297  1  0.89034777  0.63107441  0.12197623  1
  O  O298  1  0.88480856  0.63091239  0.63012754  1
  O  O299  1  0.25651491  0.25831346  0.11928672  1
  O  O300  1  0.25893376  0.25435665  0.62823070  1
  O  O301  1  0.25335903  0.75948574  0.11898087  1
  O  O302  1  0.25636466  0.75780748  0.61946657  1
  O  O303  1  0.76585776  0.25554469  0.13541783  1
  O  O304  1  0.74301405  0.25546068  0.61559692  1
  O  O305  1  0.76207627  0.73952730  0.11965714  1
  O  O306  1  0.76690371  0.74852376  0.63195110  1
  O  O307  1  0.25013461  0.23556596  0.37033579  1
  O  O308  1  0.24028275  0.25160981  0.88383050  1
  O  O309  1  0.23757829  0.75644239  0.38527181  1
  O  O310  1  0.24592727  0.74645079  0.88170271  1
  O  O311  1  0.74464833  0.24125894  0.38349572  1
  O  O312  1  0.74182067  0.25474525  0.88022940  1
  O  O313  1  0.77887703  0.73011334  0.38179389  1
  O  O314  1  0.74295269  0.74059044  0.87617757  1
  O  O315  1  0.00862492  0.11859610  0.00888147  1
  O  O316  1  0.00532553  0.11562358  0.50421809  1
  O  O317  1  0.00598244  0.62073550  0.00264359  1
  O  O318  1  0.00970424  0.62036453  0.51611839  1
  O  O319  1  0.50437581  0.12925475  0.01730355  1
  O  O320  1  0.49709144  0.11649777  0.50186493  1
  O  O321  1  0.51465116  0.62606366  0.00211956  1
  O  O322  1  0.48190326  0.61279353  0.51292571  1
  O  O323  1  0.49456575  0.35968275  0.49824939  1
  O  O324  1  0.48929594  0.37841839  0.98893053  1
  O  O325  1  0.48451249  0.88893675  0.49957682  1
  O  O326  1  0.48909300  0.82368118  0.99261558  1
  O  O327  1  0.99310226  0.38039996  0.49732304  1
  O  O328  1  0.99522668  0.38461008  0.99875241  1
  O  O329  1  1.00295787  0.88910629  0.49056075  1
  O  O330  1  0.99415474  0.88463746  1.00589213  1
  O  O331  1  0.49133484  0.49406438  0.37142730  1
  O  O332  1  0.48836460  0.49678290  0.87347869  1
  O  O333  1  0.48639465  1.00151616  0.38202181  1
  O  O334  1  0.48907965  0.99793257  0.87197007  1
  O  O335  1  0.99383834  0.49365512  0.38201758  1
  O  O336  1  0.99487556  0.49738694  0.88689512  1
  O  O337  1  1.00362880  0.99485408  0.38765713  1
  O  O338  1  1.00629902  1.00254758  0.88733443  1
  O  O339  1  0.00954995  0.00677528  0.12046255  1
  O  O340  1  0.00535950  0.00511482  0.61265473  1
  O  O341  1  -0.00376800  0.50852370  0.11254068  1
  O  O342  1  0.00585545  0.50682504  0.62260404  1
  O  O343  1  0.49335169  0.01424934  0.12926925  1
  O  O344  1  0.49520035  0.01486214  0.61941074  1
  O  O345  1  0.51060757  0.49788292  0.12034583  1
  O  O346  1  0.50475562  0.50929787  0.62942734  1
  O  O347  1  0.24111529  0.37260533  0.24315341  1
  O  O348  1  0.24441826  0.38208769  0.74158328  1
  O  O349  1  0.24147555  0.86867258  0.24105190  1
  O  O350  1  0.25054972  0.87257183  0.73662860  1
  O  O351  1  0.74411124  0.38215493  0.24642162  1
  O  O352  1  0.75483901  0.37286366  0.73727508  1
  O  O353  1  0.74170549  0.88651660  0.25413253  1
  O  O354  1  0.76001998  0.89104304  0.74518002  1
  O  O355  1  0.26279058  0.12809922  0.25443319  1
  O  O356  1  0.23977173  0.12033483  0.74933827  1
  O  O357  1  0.25691539  0.62851865  0.24729306  1
  O  O358  1  0.26078035  0.62215751  0.75177305  1
  O  O359  1  0.76056218  0.12134500  0.25815245  1
  O  O360  1  0.75236700  0.11525192  0.75532510  1
  O  O361  1  0.77717233  0.61713703  0.22339416  1
  O  O362  1  0.75218811  0.62437121  0.76098294  1
  O  O363  1  0.36911796  0.12061769  0.36843280  1
  O  O364  1  0.37470694  0.11106301  0.87853172  1
  O  O365  1  0.37405030  0.63177507  0.35506008  1
  O  O366  1  0.37066223  0.61915944  0.86707369  1
  O  O367  1  0.86776152  0.13247900  0.36651160  1
  O  O368  1  0.87925182  0.11983393  0.87408172  1
  O  O369  1  0.88754988  0.60871990  0.36017576  1
  O  O370  1  0.86547652  0.61655222  0.87675001  1
  O  O371  1  0.13451620  0.37256255  0.13648092  1
  O  O372  1  0.13109238  0.37815681  0.62946536  1
  O  O373  1  0.13202137  0.87840138  0.13465804  1
  O  O374  1  0.13452743  0.88427121  0.61393106  1
  O  O375  1  0.63024751  0.37499369  0.12478212  1
  O  O376  1  0.63430628  0.37807391  0.62844600  1
  O  O377  1  0.62903366  0.86529997  0.14169642  1
  O  O378  1  0.62226213  0.87540191  0.63450846  1
  O  O379  1  0.11327818  0.25535980  0.25286342  1
  O  O380  1  0.11933820  0.25875945  0.75905824  1
  O  O381  1  0.11851674  0.75919755  0.25773583  1
  O  O382  1  0.11239327  0.74801074  0.75715296  1
  O  O383  1  0.62024034  0.24926394  0.25624668  1
  O  O384  1  0.62541920  0.25781687  0.77083200  1
  O  O385  1  0.60909640  0.75561520  0.25130358  1
  O  O386  1  0.62160522  0.74043578  0.75687963  1
  O  O387  1  0.38269890  0.24374742  0.24731893  1
  O  O388  1  0.37082718  0.25026370  0.73825975  1
  O  O389  1  0.37551735  0.74419948  0.23813307  1
  O  O390  1  0.38076496  0.74294286  0.74475759  1
  O  O391  1  0.88731459  0.24629045  0.24610168  1
  O  O392  1  0.88529238  0.24594641  0.75039526  1
  O  O393  1  0.88128424  0.74137072  0.24067000  1
  O  O394  1  0.88984997  0.74722662  0.74579097  1
  O  O395  1  0.38295508  0.46629660  0.52291108  1
  O  O396  1  0.37514434  0.49713242  0.99003616  1
  O  O397  1  0.37622259  0.99525227  0.49437103  1
  O  O398  1  0.37513186  1.00009098  0.98738703  1
  O  O399  1  0.87994038  0.49646134  0.49370345  1
  O  O400  1  0.88241348  0.49356516  0.99461680  1
  O  O401  1  0.88907122  1.00318847  0.50031289  1
  O  O402  1  0.88840288  0.99066652  1.00325312  1
  O  O403  1  0.12153614  0.00426972  0.00773842  1
  O  O404  1  0.11740928  0.00969198  0.50598600  1
  O  O405  1  0.11774086  0.51322999  -0.00662332  1
  O  O406  1  0.11755365  0.50582087  0.50531133  1
  O  O407  1  0.62905478  -0.00792056  0.00182017  1
  O  O408  1  0.61096746  0.00360244  0.50217597  1
  O  O409  1  0.62425239  0.50505595  0.00474983  1
  O  O410  1  0.61996770  0.48883721  0.51925580  1
  O  O411  1  0.36940156  0.37098528  0.12153411  1
  O  O412  1  0.36827322  0.35859813  0.62405522  1
  O  O413  1  0.36797857  0.86807745  0.12106292  1
  O  O414  1  0.36682837  0.87160536  0.61703451  1
  O  O415  1  0.87218838  0.36956600  0.12054505  1
  O  O416  1  0.86863131  0.38403886  0.61351419  1
  O  O417  1  0.88112604  0.86150596  0.11676387  1
  O  O418  1  0.87718001  0.86077996  0.62649269  1
  O  O419  1  0.13481345  0.12444223  0.38029727  1
  O  O420  1  0.12330043  0.13712610  0.88358886  1
  O  O421  1  0.11491836  0.64196759  0.38242924  1
  O  O422  1  0.13304875  0.63237769  0.88091248  1
  O  O423  1  0.63332103  0.13373243  0.37546758  1
  O  O424  1  0.62670736  0.13801671  0.87887036  1
  O  O425  1  0.66020089  0.60168594  0.30504148  1
  O  O426  1  0.63209146  0.62237627  0.88036935  1
