# generated using pymatgen
data_V85Zn86O256
_symmetry_space_group_name_H-M   'P 1'
_cell_length_a   16.91820318
_cell_length_b   16.91510075
_cell_length_c   16.91609319
_cell_angle_alpha   90.03910124
_cell_angle_beta   89.92293104
_cell_angle_gamma   89.98733524
_symmetry_Int_Tables_number   1
_chemical_formula_structural   V85Zn86O256
_chemical_formula_sum   'V85 Zn86 O256'
_cell_volume   4840.92539327
_cell_formula_units_Z   1
loop_
 _symmetry_equiv_pos_site_id
 _symmetry_equiv_pos_as_xyz
  1  'x, y, z'
loop_
 _atom_site_type_symbol
 _atom_site_label
 _atom_site_symmetry_multiplicity
 _atom_site_fract_x
 _atom_site_fract_y
 _atom_site_fract_z
 _atom_site_occupancy
  V  V0  1  0.50908431  0.62983766  0.62302809  1
  V  V1  1  0.62713970  0.73315938  0.88009970  1
  V  V2  1  0.74979488  0.49922462  0.25009899  1
  V  V3  1  0.39052047  0.88049158  -0.00165338  1
  V  V4  1  0.50730420  0.87605853  0.37514249  1
  V  V5  1  0.13783150  0.37879583  0.24813210  1
  V  V6  1  0.24595609  0.12570837  0.37548643  1
  V  V7  1  0.87311467  0.11396009  0.25574225  1
  V  V8  1  0.88122729  0.37296620  0.49686168  1
  V  V9  1  0.75258604  0.88013383  0.13673992  1
  V  V10  1  0.37170179  0.25328924  0.12323520  1
  V  V11  1  0.74868727  0.87172352  0.62649600  1
  V  V12  1  0.36063285  0.50084152  0.36964559  1
  V  V13  1  0.87287137  0.50922391  0.87696513  1
  V  V14  1  -0.00200382  0.74781041  0.76069639  1
  V  V15  1  0.24642690  0.87058766  0.62229843  1
  V  V16  1  0.36892716  0.37694297  -0.00003882  1
  V  V17  1  0.38288966  0.12362310  0.74652917  1
  V  V18  1  0.62604479  0.24835430  0.37277913  1
  V  V19  1  0.25041694  0.00058627  0.75037409  1
  V  V20  1  0.74960707  0.74371742  -0.00009793  1
  V  V21  1  0.74718077  0.25205992  0.49815816  1
  V  V22  1  0.12000594  0.00400132  0.62699233  1
  V  V23  1  0.62617311  0.50286985  0.11941900  1
  V  V24  1  0.00911338  0.24992947  0.73833059  1
  V  V25  1  0.00394330  0.74614132  0.25867657  1
  V  V26  1  0.24994804  0.51960424  0.75282687  1
  V  V27  1  0.36935480  0.74114744  0.62838750  1
  V  V28  1  0.87130971  0.87453579  0.49437824  1
  V  V29  1  0.50474846  0.62725681  0.12196183  1
  V  V30  1  -0.00277106  0.25832701  0.25058593  1
  V  V31  1  0.88221037  0.49463338  0.37345566  1
  V  V32  1  0.24364144  0.24935008  0.00165277  1
  V  V33  1  0.62236665  0.87358719  0.76256315  1
  V  V34  1  0.12647288  0.87059638  0.25473259  1
  V  V35  1  0.50949900  0.75275934  0.25037645  1
  V  V36  1  0.37080271  0.37870581  0.50203724  1
  V  V37  1  0.11910329  0.25540834  0.37494751  1
  V  V38  1  0.11964359  0.12747347  0.50324888  1
  V  V39  1  0.62491224  -0.00355860  0.14673228  1
  V  V40  1  0.12031450  0.49939561  0.62907548  1
  V  V41  1  0.61406181  0.00177863  0.62848081  1
  V  V42  1  0.74782332  0.24756043  -0.00249700  1
  V  V43  1  0.12652514  0.63586352  0.50241601  1
  V  V44  1  0.49692012  0.37788071  0.37287472  1
  V  V45  1  0.37443888  0.12525583  0.24898512  1
  V  V46  1  0.00265956  0.49828057  0.00005495  1
  V  V47  1  0.37562540  0.75031640  0.12612671  1
  V  V48  1  0.38001171  0.24653334  0.62397632  1
  V  V49  1  0.24445281  0.64223338  0.37248667  1
  V  V50  1  0.37217793  0.51643449  0.87060482  1
  V  V51  1  0.24888337  0.37637677  0.63865567  1
  V  V52  1  0.62433626  0.24952649  0.87522184  1
  V  V53  1  0.12467582  0.25729920  0.87144497  1
  V  V54  1  0.24734599  0.12496662  0.87775645  1
  V  V55  1  0.12282129  0.00649070  0.11906935  1
  V  V56  1  0.14165918  0.49633365  0.12743121  1
  V  V57  1  0.24808488  -0.00033150  0.25017940  1
  V  V58  1  0.24933842  0.87280244  0.12056466  1
  V  V59  1  0.38713992  -0.00215808  0.87903685  1
  V  V60  1  0.88249204  0.74200486  0.62248417  1
  V  V61  1  0.11619554  0.87922688  0.76040929  1
  V  V62  1  0.50231352  0.50331184  -0.00219545  1
  V  V63  1  0.49425073  0.74922302  0.75622114  1
  V  V64  1  0.49927435  0.24870450  0.24589202  1
  V  V65  1  0.37071146  0.86860580  0.50003612  1
  V  V66  1  0.49659938  0.37628578  0.87086391  1
  V  V67  1  0.13254041  0.62726281  -0.00572459  1
  V  V68  1  0.75292350  0.00349208  0.74863292  1
  V  V69  1  0.87652307  0.37203010  -0.00493948  1
  V  V70  1  0.75001515  0.50885674  0.75365692  1
  V  V71  1  0.37283084  -0.00079490  0.37719505  1
  V  V72  1  0.00308233  0.50072775  0.50162512  1
  V  V73  1  0.88100653  0.87925098  -0.00747159  1
  V  V74  1  0.00429662  0.62289101  0.12734101  1
  V  V75  1  0.61460026  0.12708445  0.50626057  1
  V  V76  1  0.50501808  0.50769707  0.49758287  1
  V  V77  1  0.62441297  0.37263555  0.24561853  1
  V  V78  1  -0.00234085  0.00147972  0.49914511  1
  V  V79  1  0.62784624  0.37737834  0.74812533  1
  V  V80  1  0.87471868  0.62450988  0.25251608  1
  V  V81  1  0.00074478  0.87715314  0.37534574  1
  V  V82  1  0.62178583  0.10854620  -0.00346303  1
  V  V83  1  0.87562131  0.23696093  0.62181778  1
  V  V84  1  0.87581989  0.24695522  0.12315516  1
  Zn  Zn85  1  0.73899671  0.62235780  0.38443681  1
  Zn  Zn86  1  0.25928032  0.74525401  -0.01113938  1
  Zn  Zn87  1  0.63080160  0.50424086  0.61933513  1
  Zn  Zn88  1  0.00303742  0.12668275  0.11963246  1
  Zn  Zn89  1  0.00409772  0.37583873  0.86739811  1
  Zn  Zn90  1  0.74938499  0.37415167  0.12333466  1
  Zn  Zn91  1  0.73451321  0.73798763  0.50518343  1
  Zn  Zn92  1  0.12818932  0.75134961  0.87631041  1
  Zn  Zn93  1  0.01106802  0.00462106  -0.01542173  1
  Zn  Zn94  1  0.75319814  0.37641349  0.62699797  1
  Zn  Zn95  1  0.88071272  0.12304088  0.74627605  1
  Zn  Zn96  1  0.49657729  0.11661946  0.11759539  1
  Zn  Zn97  1  0.36760483  0.61947028  0.24591308  1
  Zn  Zn98  1  0.75447074  0.12229010  0.87253106  1
  Zn  Zn99  1  0.87415586  0.75141200  0.12532408  1
  Zn  Zn100  1  0.50394737  0.24689013  0.74464309  1
  Zn  Zn101  1  0.62160543  0.73846008  0.38551930  1
  Zn  Zn102  1  0.87914660  0.62280777  0.75042494  1
  Zn  Zn103  1  0.24654204  0.25239159  0.50253483  1
  Zn  Zn104  1  0.49137897  0.00554787  0.50749723  1
  Zn  Zn105  1  0.88734538  0.00014148  0.86665462  1
  Zn  Zn106  1  0.74538329  0.10191002  0.36567596  1
  Zn  Zn107  1  0.18933453  0.19099683  0.18835218  1
  Zn  Zn108  1  0.19160836  0.18724680  0.68779507  1
  Zn  Zn109  1  0.18838212  0.68712916  0.18736074  1
  Zn  Zn110  1  0.17947751  0.68991790  0.68496194  1
  Zn  Zn111  1  0.69074492  0.18142790  0.18410518  1
  Zn  Zn112  1  0.68868859  0.18805614  0.68353620  1
  Zn  Zn113  1  0.68933030  0.68815364  0.18938394  1
  Zn  Zn114  1  0.68863639  0.68878275  0.68948506  1
  Zn  Zn115  1  0.30974710  0.31123316  0.31453106  1
  Zn  Zn116  1  0.31448149  0.31300276  0.81265743  1
  Zn  Zn117  1  0.31681834  0.81216579  0.30953498  1
  Zn  Zn118  1  0.30852943  0.81219906  0.81359521  1
  Zn  Zn119  1  0.81110865  0.31139969  0.31305682  1
  Zn  Zn120  1  0.81558961  0.31162839  0.81015451  1
  Zn  Zn121  1  0.80925562  0.80617884  0.31673705  1
  Zn  Zn122  1  0.80955770  0.81047775  0.81391942  1
  Zn  Zn123  1  0.18468812  0.43655677  0.43881243  1
  Zn  Zn124  1  0.18949486  0.44018429  0.93442015  1
  Zn  Zn125  1  0.18532909  0.93529060  0.43859416  1
  Zn  Zn126  1  0.19580114  0.93619624  0.93765937  1
  Zn  Zn127  1  0.68925295  0.43798071  0.43374877  1
  Zn  Zn128  1  0.68931534  0.43761545  0.93589208  1
  Zn  Zn129  1  0.68477805  0.93534131  0.44248803  1
  Zn  Zn130  1  0.69795069  0.93177133  0.93751532  1
  Zn  Zn131  1  0.31088671  0.06306067  0.06137043  1
  Zn  Zn132  1  0.30719992  0.06236204  0.56278796  1
  Zn  Zn133  1  0.31539661  0.56274198  0.06097385  1
  Zn  Zn134  1  0.30862189  0.56426687  0.55950724  1
  Zn  Zn135  1  0.81202745  0.06127208  0.06246525  1
  Zn  Zn136  1  0.79550844  0.04914835  0.53465190  1
  Zn  Zn137  1  0.81459928  0.56169895  0.06494492  1
  Zn  Zn138  1  0.81377969  0.55988614  0.56573105  1
  Zn  Zn139  1  0.43456761  0.43825880  0.18586810  1
  Zn  Zn140  1  0.43533466  0.44412957  0.68727831  1
  Zn  Zn141  1  0.43979467  0.93690236  0.18851536  1
  Zn  Zn142  1  0.43528503  0.93031753  0.69231076  1
  Zn  Zn143  1  0.94183656  0.43463737  0.18475012  1
  Zn  Zn144  1  0.93693783  0.43215318  0.68598636  1
  Zn  Zn145  1  0.93849916  0.93448207  0.18429446  1
  Zn  Zn146  1  0.93764829  0.93424865  0.68435696  1
  Zn  Zn147  1  0.05703326  0.06377281  0.30936926  1
  Zn  Zn148  1  0.06051041  0.07090431  0.81383186  1
  Zn  Zn149  1  0.06708397  0.55879977  0.31737736  1
  Zn  Zn150  1  0.06017014  0.56153471  0.81101328  1
  Zn  Zn151  1  0.55794576  0.06497932  0.31749883  1
  Zn  Zn152  1  0.56486181  0.06234295  0.81271119  1
  Zn  Zn153  1  0.55610609  0.56193453  0.30663333  1
  Zn  Zn154  1  0.55849184  0.56470085  0.80687041  1
  Zn  Zn155  1  0.43531983  0.19108692  0.43624456  1
  Zn  Zn156  1  0.43821087  0.18638079  0.93584252  1
  Zn  Zn157  1  0.43459465  0.68824213  0.43749406  1
  Zn  Zn158  1  0.44361849  0.69293547  0.94151749  1
  Zn  Zn159  1  0.93818638  0.18665959  0.43491637  1
  Zn  Zn160  1  0.94298620  0.17721835  0.93305124  1
  Zn  Zn161  1  0.93531703  0.68393160  0.43921375  1
  Zn  Zn162  1  0.93960468  0.69049323  0.94161487  1
  Zn  Zn163  1  0.06289051  0.31302521  0.06347888  1
  Zn  Zn164  1  0.06223586  0.31838777  0.56347704  1
  Zn  Zn165  1  0.06038923  0.81085113  0.06637781  1
  Zn  Zn166  1  0.05911589  0.81454982  0.56807974  1
  Zn  Zn167  1  0.55892873  0.31184672  0.05966843  1
  Zn  Zn168  1  0.55937348  0.31845309  0.56202046  1
  Zn  Zn169  1  0.56948206  0.81637986  0.06350949  1
  Zn  Zn170  1  0.55758574  0.81708161  0.56476702  1
  O  O171  1  0.12906334  0.10914302  0.13218573  1
  O  O172  1  0.13172305  0.11785560  0.61460350  1
  O  O173  1  0.12069769  0.61651197  0.12072893  1
  O  O174  1  0.13022618  0.61438151  0.61099475  1
  O  O175  1  0.62695121  0.10927480  0.11593714  1
  O  O176  1  0.62320971  0.11652259  0.61927894  1
  O  O177  1  0.61746455  0.61461022  0.13130256  1
  O  O178  1  0.61303117  0.62445604  0.62807854  1
  O  O179  1  0.37494105  0.38136359  0.38206891  1
  O  O180  1  0.38203241  0.38266676  0.87921161  1
  O  O181  1  0.37586457  0.87992158  0.38378051  1
  O  O182  1  0.36935445  0.88612754  0.88625066  1
  O  O183  1  0.87181764  0.37941343  0.38663305  1
  O  O184  1  0.87690856  0.37867009  0.88614192  1
  O  O185  1  0.88210199  0.87001810  0.38861474  1
  O  O186  1  0.86953886  0.87560407  0.88932976  1
  O  O187  1  0.25302476  0.00432745  0.36976722  1
  O  O188  1  0.25592469  0.00927856  0.86966353  1
  O  O189  1  0.25824157  0.50493293  0.38036623  1
  O  O190  1  0.25546188  0.50046013  0.86050219  1
  O  O191  1  0.76561480  0.00929266  0.42575363  1
  O  O192  1  0.75153341  -0.00267034  0.85751262  1
  O  O193  1  0.76319010  0.49920279  0.36736098  1
  O  O194  1  0.76077951  0.49572492  0.86827818  1
  O  O195  1  0.24126760  0.50162554  0.12506088  1
  O  O196  1  0.24662659  0.49692273  0.63589125  1
  O  O197  1  0.24261613  0.99285485  0.13061992  1
  O  O198  1  0.23933246  0.99375767  0.63004255  1
  O  O199  1  0.74235053  0.49674220  0.12963953  1
  O  O200  1  0.74940632  0.49492552  0.63568376  1
  O  O201  1  0.74016180  0.98893373  0.12265642  1
  O  O202  1  0.73888386  0.99122818  0.63038168  1
  O  O203  1  0.00836586  0.36276569  0.24713300  1
  O  O204  1  -0.00516488  0.35682316  0.75151232  1
  O  O205  1  0.00533023  0.86790658  0.25588806  1
  O  O206  1  0.00711031  0.86419211  0.74518744  1
  O  O207  1  0.50401973  0.36889210  0.25350104  1
  O  O208  1  0.50467327  0.37829312  0.75903668  1
  O  O209  1  0.49097766  0.86521302  0.26240358  1
  O  O210  1  0.51044938  0.86074175  0.74608700  1
  O  O211  1  0.49153598  0.13253897  0.24862228  1
  O  O212  1  0.48712469  0.12645080  0.75321568  1
  O  O213  1  0.49147643  0.63326162  0.23706061  1
  O  O214  1  0.49925530  0.63853277  0.74021083  1
  O  O215  1  0.99074047  0.13721337  0.24441370  1
  O  O216  1  0.99906384  0.14377549  0.74632605  1
  O  O217  1  1.00005979  0.62904085  0.24772332  1
  O  O218  1  1.00038098  0.64219461  0.75171092  1
  O  O219  1  0.36876437  0.25654833  0.00417459  1
  O  O220  1  0.37071379  0.25905677  0.50556150  1
  O  O221  1  0.37720733  0.75870721  0.01104853  1
  O  O222  1  0.37637545  0.76251996  0.50941553  1
  O  O223  1  0.86920389  0.25372572  0.00368636  1
  O  O224  1  0.86842877  0.25446410  0.50054484  1
  O  O225  1  0.87046564  0.75992430  0.00345803  1
  O  O226  1  0.88316179  0.75790908  0.51271841  1
  O  O227  1  0.12278383  0.24524120  0.49295361  1
  O  O228  1  0.13824015  0.25554689  0.99456987  1
  O  O229  1  0.11699760  0.73461238  0.50744084  1
  O  O230  1  0.12293386  0.73589769  1.00357436  1
  O  O231  1  0.62724826  0.24966817  0.49575260  1
  O  O232  1  0.63249654  0.24593563  0.99549504  1
  O  O233  1  0.62125020  0.75471740  0.50024032  1
  O  O234  1  0.63104060  0.75457752  0.98691925  1
  O  O235  1  0.48818226  0.24647847  0.12758424  1
  O  O236  1  0.48434885  0.25708980  0.62608789  1
  O  O237  1  0.49740966  0.74601457  0.12888851  1
  O  O238  1  0.49031193  0.74522571  0.63238151  1
  O  O239  1  0.99232620  0.24885826  0.13079391  1
  O  O240  1  0.99457003  0.25284787  0.63072846  1
  O  O241  1  0.99888125  0.73723295  0.13615607  1
  O  O242  1  0.98679878  0.75427692  0.63617424  1
  O  O243  1  0.01154070  0.24759006  0.36696248  1
  O  O244  1  0.01057912  0.25081007  0.86504122  1
  O  O245  1  -0.00369135  0.75836825  0.36562513  1
  O  O246  1  0.00422797  0.75207809  0.86480483  1
  O  O247  1  0.50437669  0.25806719  0.36723491  1
  O  O248  1  0.50488134  0.25986676  0.87172543  1
  O  O249  1  0.49567781  0.75776577  0.36652135  1
  O  O250  1  0.51334309  0.74739960  0.86875274  1
  O  O251  1  0.23634463  0.12628038  0.49273846  1
  O  O252  1  0.25603798  0.13634464  0.98982172  1
  O  O253  1  0.23578597  0.62310460  0.49017584  1
  O  O254  1  0.23609685  0.62622522  1.00567547  1
  O  O255  1  0.73339452  0.14451000  0.50572679  1
  O  O256  1  0.73959440  0.13106486  0.99853588  1
  O  O257  1  0.76705442  0.62885213  0.49498699  1
  O  O258  1  0.75735130  0.64383695  1.01159236  1
  O  O259  1  0.26266870  0.36847013  -0.00697187  1
  O  O260  1  0.26017661  0.37776164  0.50849976  1
  O  O261  1  0.25729976  0.87266548  0.01320247  1
  O  O262  1  0.25350012  0.87933475  0.51303583  1
  O  O263  1  0.75756254  0.36606636  0.00117757  1
  O  O264  1  0.75495010  0.36617296  0.50063247  1
  O  O265  1  0.75985998  0.86620977  0.00962955  1
  O  O266  1  0.75718041  0.86885042  0.51376059  1
  O  O267  1  0.12107732  0.48589232  0.24450118  1
  O  O268  1  0.13634412  0.50603124  0.74263084  1
  O  O269  1  0.12994963  0.99203014  0.24349404  1
  O  O270  1  0.12860999  0.99718383  0.74255082  1
  O  O271  1  0.62638148  0.49077583  0.23815063  1
  O  O272  1  0.63270066  0.49425762  0.75046673  1
  O  O273  1  0.63012144  1.00685438  0.24517938  1
  O  O274  1  0.62978428  0.99258674  0.74589492  1
  O  O275  1  0.36727020  0.00484960  0.25501900  1
  O  O276  1  0.36980737  0.00477414  0.75498499  1
  O  O277  1  0.37867204  0.50127132  0.26294725  1
  O  O278  1  0.36146707  0.50186338  0.75672063  1
  O  O279  1  0.88366108  0.01562674  0.24585497  1
  O  O280  1  0.86599466  0.00116424  0.74262518  1
  O  O281  1  0.87392213  0.50104170  0.25565049  1
  O  O282  1  0.87006430  0.49881041  0.75872435  1
  O  O283  1  0.12874729  0.36797108  0.36285836  1
  O  O284  1  0.12740568  0.36210921  0.87630705  1
  O  O285  1  0.11925144  0.87678125  0.36306595  1
  O  O286  1  0.13025384  0.87796778  0.86253931  1
  O  O287  1  0.61829146  0.37035053  0.36446563  1
  O  O288  1  0.61702949  0.37221809  0.86617101  1
  O  O289  1  0.60934807  0.87822159  0.37952522  1
  O  O290  1  0.62897973  0.87077821  0.86447027  1
  O  O291  1  0.37682104  0.13119836  0.13011781  1
  O  O292  1  0.36723630  0.13410350  0.63216477  1
  O  O293  1  0.38097071  0.63400452  0.12440108  1
  O  O294  1  0.37807469  0.63819317  0.61870295  1
  O  O295  1  0.87242390  0.13620516  0.13224418  1
  O  O296  1  0.86772519  0.13648690  0.61613925  1
  O  O297  1  0.88696926  0.62137476  0.13715342  1
  O  O298  1  0.87642101  0.63921931  0.62946260  1
  O  O299  1  0.26170352  0.24598950  0.11633030  1
  O  O300  1  0.25864601  0.26019244  0.62380914  1
  O  O301  1  0.25898343  0.75658203  0.12303651  1
  O  O302  1  0.25557145  0.75952023  0.63204311  1
  O  O303  1  0.75591450  0.25083576  0.11314576  1
  O  O304  1  0.75790571  0.25651155  0.61749183  1
  O  O305  1  0.74831973  0.76326280  0.12081737  1
  O  O306  1  0.76246311  0.75604113  0.62917747  1
  O  O307  1  0.23757864  0.24434011  0.37795621  1
  O  O308  1  0.24758743  0.24521699  0.88055332  1
  O  O309  1  0.25273065  0.74102998  0.37643759  1
  O  O310  1  0.24205381  0.75206645  0.87793222  1
  O  O311  1  0.74013426  0.25061128  0.38229167  1
  O  O312  1  0.74508832  0.25024246  0.88467853  1
  O  O313  1  0.74328760  0.74521354  0.38111700  1
  O  O314  1  0.73680423  0.75095552  0.88235624  1
  O  O315  1  -0.00055188  0.11743817  0.00732588  1
  O  O316  1  0.01030360  0.11685523  0.49348085  1
  O  O317  1  0.00735214  0.61980478  0.01065378  1
  O  O318  1  0.01310794  0.61207117  0.49184308  1
  O  O319  1  0.51742502  0.13027127  0.00054140  1
  O  O320  1  0.50958634  0.12724961  0.49630753  1
  O  O321  1  0.49861893  0.61923878  0.01362502  1
  O  O322  1  0.49252880  0.61692647  0.50774648  1
  O  O323  1  0.48682763  0.38202078  0.49401993  1
  O  O324  1  0.49239526  0.38078164  0.98790619  1
  O  O325  1  0.48617738  0.88108729  0.49388583  1
  O  O326  1  0.48952244  0.87540493  1.00639610  1
  O  O327  1  0.99428315  0.38687978  0.49872169  1
  O  O328  1  0.99311942  0.38046703  0.99789763  1
  O  O329  1  0.99772440  0.87978897  0.49259321  1
  O  O330  1  0.98407116  0.87681076  1.00961603  1
  O  O331  1  0.48886807  0.49541864  0.38080696  1
  O  O332  1  0.49329351  0.49593074  0.87707381  1
  O  O333  1  0.48825955  0.99349269  0.37645889  1
  O  O334  1  0.48651544  1.00310432  0.87166651  1
  O  O335  1  0.98916979  0.49876565  0.38084037  1
  O  O336  1  0.99357657  0.49511620  0.88082120  1
  O  O337  1  1.00405515  0.98708116  0.38265790  1
  O  O338  1  1.00208275  0.99699473  0.87125374  1
  O  O339  1  0.01764315  -0.00122763  0.12781659  1
  O  O340  1  0.01414077  -0.00460574  0.61847058  1
  O  O341  1  0.00795884  0.50848923  0.12057422  1
  O  O342  1  0.01004488  0.49600486  0.61908797  1
  O  O343  1  0.51880565  -0.00072362  0.13184849  1
  O  O344  1  0.51008710  -0.00650557  0.62883194  1
  O  O345  1  0.50575638  0.50759408  0.12034969  1
  O  O346  1  0.49854780  0.51166451  0.61686275  1
  O  O347  1  0.23685331  0.36952249  0.24715299  1
  O  O348  1  0.25452704  0.38215638  0.74070593  1
  O  O349  1  0.24434929  0.87718122  0.24145914  1
  O  O350  1  0.24230358  0.88354724  0.73965626  1
  O  O351  1  0.74218628  0.37990763  0.24621105  1
  O  O352  1  0.74221815  0.38295878  0.75101123  1
  O  O353  1  0.76107697  0.87397047  0.23583211  1
  O  O354  1  0.74387428  0.87859058  0.74142674  1
  O  O355  1  0.25474538  0.12130050  0.25685438  1
  O  O356  1  0.26067294  0.11975718  0.75602234  1
  O  O357  1  0.24847718  0.62804049  0.26625702  1
  O  O358  1  0.24894408  0.61785512  0.74615517  1
  O  O359  1  0.76581190  0.12738766  0.25216021  1
  O  O360  1  0.75000605  0.11502729  0.74798838  1
  O  O361  1  0.76202765  0.61647408  0.24681459  1
  O  O362  1  0.75382244  0.61268281  0.74882643  1
  O  O363  1  0.36705226  0.12068503  0.37098963  1
  O  O364  1  0.36754602  0.12069032  0.86790700  1
  O  O365  1  0.35976587  0.61952757  0.37644287  1
  O  O366  1  0.38026971  0.61488520  0.88373438  1
  O  O367  1  0.87412899  0.13092639  0.35849033  1
  O  O368  1  0.87034728  0.12038638  0.86623485  1
  O  O369  1  0.87999547  0.61506789  0.36186237  1
  O  O370  1  0.88092822  0.61256951  0.87665227  1
  O  O371  1  0.12265547  0.38242745  0.13677656  1
  O  O372  1  0.13705938  0.38767449  0.61920800  1
  O  O373  1  0.13197300  0.88019074  0.13395142  1
  O  O374  1  0.13065751  0.88224724  0.63145127  1
  O  O375  1  0.62270634  0.38005958  0.13110768  1
  O  O376  1  0.62269457  0.37783132  0.63913167  1
  O  O377  1  0.63645770  0.88826438  0.12604632  1
  O  O378  1  0.63197921  0.88051723  0.63498936  1
  O  O379  1  0.11945224  0.25863096  0.25402559  1
  O  O380  1  0.11719325  0.25026711  0.75237611  1
  O  O381  1  0.11642559  0.75865532  0.24481000  1
  O  O382  1  0.11170109  0.75936772  0.74848315  1
  O  O383  1  0.62053099  0.25239490  0.25031105  1
  O  O384  1  0.62420637  0.25747190  0.75580760  1
  O  O385  1  0.61129051  0.75105586  0.24857753  1
  O  O386  1  0.62156837  0.75428531  0.76154836  1
  O  O387  1  0.37684411  0.24732708  0.24166519  1
  O  O388  1  0.37597123  0.24175420  0.74237089  1
  O  O389  1  0.38160848  0.74908310  0.23639261  1
  O  O390  1  0.38401127  0.75990984  0.74182600  1
  O  O391  1  0.88099325  0.25096639  0.24076567  1
  O  O392  1  0.88143021  0.24819509  0.73676530  1
  O  O393  1  0.88347150  0.73970106  0.24798136  1
  O  O394  1  0.88424756  0.75076955  0.74561688  1
  O  O395  1  0.38069169  0.49447308  0.49371912  1
  O  O396  1  0.37976986  0.49302830  0.99295630  1
  O  O397  1  0.37202414  0.99229181  0.49580418  1
  O  O398  1  0.37195051  0.99354458  0.99228892  1
  O  O399  1  0.88343456  0.49218357  0.49479372  1
  O  O400  1  0.87905916  0.49160243  0.99571883  1
  O  O401  1  0.89373971  0.98722585  0.51773049  1
  O  O402  1  0.87215553  0.98666256  0.99833778  1
  O  O403  1  0.12938857  -0.00864489  0.01624023  1
  O  O404  1  0.11690639  0.00645986  0.50555096  1
  O  O405  1  0.12348378  0.50671725  0.00724924  1
  O  O406  1  0.11888320  0.50411039  0.50657637  1
  O  O407  1  0.63006532  0.00789932  -0.00306273  1
  O  O408  1  0.61672620  0.00976269  0.51175851  1
  O  O409  1  0.61985043  0.49262286  0.01151549  1
  O  O410  1  0.60912599  0.48925526  0.50076284  1
  O  O411  1  0.38068740  0.36680192  0.11233708  1
  O  O412  1  0.36890848  0.37212480  0.61892402  1
  O  O413  1  0.36818119  0.87121964  0.12084923  1
  O  O414  1  0.36558678  0.86886140  0.61911783  1
  O  O415  1  0.87531248  0.36444975  0.11362795  1
  O  O416  1  0.87481625  0.36677932  0.60970169  1
  O  O417  1  0.86530781  0.87505282  0.11807663  1
  O  O418  1  0.86750001  0.86554129  0.61813383  1
  O  O419  1  0.12747702  0.13187910  0.37887687  1
  O  O420  1  0.14095834  0.13883027  0.86716386  1
  O  O421  1  0.13649454  0.62231919  0.38513437  1
  O  O422  1  0.11822857  0.62221901  0.89297780  1
  O  O423  1  0.62755492  0.13129895  0.38318037  1
  O  O424  1  0.62907784  0.12945011  0.88316330  1
  O  O425  1  0.62664124  0.62414014  0.36294921  1
  O  O426  1  0.62412595  0.63444668  0.87465387  1
