# generated using pymatgen
data_V85Zn86O256
_symmetry_space_group_name_H-M   'P 1'
_cell_length_a   16.95009108
_cell_length_b   16.92786509
_cell_length_c   16.94572517
_cell_angle_alpha   89.94561536
_cell_angle_beta   90.06584188
_cell_angle_gamma   89.93084538
_symmetry_Int_Tables_number   1
_chemical_formula_structural   V85Zn86O256
_chemical_formula_sum   'V85 Zn86 O256'
_cell_volume   4862.20856991
_cell_formula_units_Z   1
loop_
 _symmetry_equiv_pos_site_id
 _symmetry_equiv_pos_as_xyz
  1  'x, y, z'
loop_
 _atom_site_type_symbol
 _atom_site_label
 _atom_site_symmetry_multiplicity
 _atom_site_fract_x
 _atom_site_fract_y
 _atom_site_fract_z
 _atom_site_occupancy
  V  V0  1  -0.00095767  0.25457654  0.25472505  1
  V  V1  1  0.05313344  -0.04290842  0.05709558  1
  V  V2  1  0.49675024  0.62560995  0.63269156  1
  V  V3  1  0.11287661  0.12860679  -0.00594880  1
  V  V4  1  0.87860325  0.24405722  0.12274365  1
  V  V5  1  0.50430229  0.86400224  0.37623976  1
  V  V6  1  0.87772710  0.64608590  0.74931424  1
  V  V7  1  0.87503708  0.38142743  0.50060218  1
  V  V8  1  0.37702290  0.37061827  0.00367569  1
  V  V9  1  0.12986061  0.11690044  0.50419289  1
  V  V10  1  0.74994211  0.75481231  0.00562218  1
  V  V11  1  0.62810771  0.37721788  0.75457416  1
  V  V12  1  -0.00593792  0.50596004  0.50135335  1
  V  V13  1  0.75252910  0.37770000  0.62541797  1
  V  V14  1  0.62406699  0.63251936  0.49003692  1
  V  V15  1  0.49898443  0.24889100  0.75284200  1
  V  V16  1  0.87445862  0.86550962  0.50682948  1
  V  V17  1  0.86913505  0.00168781  0.38244176  1
  V  V18  1  0.74589222  0.25663191  0.48881838  1
  V  V19  1  0.25052538  0.75026585  0.49768632  1
  V  V20  1  0.25245601  0.24746615  0.01049528  1
  V  V21  1  0.50750114  -0.00151295  0.50291384  1
  V  V22  1  0.86936005  0.12634345  0.25282480  1
  V  V23  1  0.87691638  0.37488536  -0.00553065  1
  V  V24  1  0.61634208  0.75472286  0.88042604  1
  V  V25  1  0.87207567  0.87717792  0.00541580  1
  V  V26  1  0.13335391  0.62734526  -0.00166680  1
  V  V27  1  0.74786234  -0.00316247  0.24941347  1
  V  V28  1  0.37199500  0.74579324  0.63197618  1
  V  V29  1  0.49995002  0.13179780  0.12086618  1
  V  V30  1  0.12156382  0.75185554  0.36066383  1
  V  V31  1  0.38094705  0.48298786  0.38071514  1
  V  V32  1  0.62469404  0.25038874  0.87743176  1
  V  V33  1  0.12463180  0.37301661  0.24848729  1
  V  V34  1  0.00014165  0.00060849  0.50785524  1
  V  V35  1  0.36298789  0.75328299  0.12453156  1
  V  V36  1  0.62539485  0.86838894  0.25209908  1
  V  V37  1  0.00491413  0.12564483  0.62586371  1
  V  V38  1  0.62777693  -0.00379659  0.12500277  1
  V  V39  1  0.62124230  0.37641924  0.25298447  1
  V  V40  1  0.00152183  0.87382484  0.36712573  1
  V  V41  1  0.50126899  0.12090495  0.62683681  1
  V  V42  1  0.78429178  0.62347300  0.34829442  1
  V  V43  1  0.50147646  0.50765683  -0.00266457  1
  V  V44  1  0.76821778  0.39226635  0.14732637  1
  V  V45  1  -0.00507775  0.62806313  0.13348959  1
  V  V46  1  0.37945961  -0.00479574  0.87217183  1
  V  V47  1  0.12142017  0.86900177  0.74284128  1
  V  V48  1  0.37190679  0.12705126  0.24047737  1
  V  V49  1  0.74741845  0.62964468  0.88044926  1
  V  V50  1  0.12895097  0.37688249  0.74956379  1
  V  V51  1  -0.00254031  0.64038921  0.63012694  1
  V  V52  1  0.87426770  0.12481089  0.74757179  1
  V  V53  1  0.25701032  0.63169255  0.86861657  1
  V  V54  1  0.25255224  0.49706689  0.24778705  1
  V  V55  1  0.88058454  0.00075258  0.87744353  1
  V  V56  1  0.35739235  0.87284059  0.00257697  1
  V  V57  1  0.87393390  0.25065544  0.62373977  1
  V  V58  1  0.25254690  0.62413994  0.37546873  1
  V  V59  1  0.50025162  -0.00962745  -0.00054559  1
  V  V60  1  0.25084365  0.26224307  0.50400882  1
  V  V61  1  0.49999908  0.24907870  0.25666342  1
  V  V62  1  0.75148226  0.25065694  0.00336622  1
  V  V63  1  0.25195505  0.12466688  0.37628040  1
  V  V64  1  0.02095553  0.10717290  0.15019934  1
  V  V65  1  0.25009564  0.12789441  0.87381380  1
  V  V66  1  0.75475063  0.50538507  0.75224004  1
  V  V67  1  0.75118283  0.12303227  0.87610096  1
  V  V68  1  0.25923137  0.50027271  0.74746007  1
  V  V69  1  0.74980324  0.87433640  0.62886913  1
  V  V70  1  0.24417549  0.00126553  0.74358461  1
  V  V71  1  0.37272896  0.26373757  0.62315668  1
  V  V72  1  0.37935197  0.00097808  0.36805298  1
  V  V73  1  0.37604351  0.87485156  0.49801962  1
  V  V74  1  0.61285486  0.88012780  0.74717004  1
  V  V75  1  -0.00264046  0.38267585  0.37789865  1
  V  V76  1  0.62472866  0.50395575  0.12199989  1
  V  V77  1  0.12465779  0.62619628  0.50077104  1
  V  V78  1  0.00082491  0.87127977  0.86925625  1
  V  V79  1  0.62575535  0.50645218  0.62361838  1
  V  V80  1  0.62264951  0.13092716  0.49529608  1
  V  V81  1  0.37992922  0.62449807  0.24947519  1
  V  V82  1  0.24455099  0.88222377  0.61660901  1
  V  V83  1  0.12901574  0.49690035  0.62471207  1
  V  V84  1  0.00339209  0.50050589  -0.00275287  1
  Zn  Zn85  1  0.49620818  0.48865828  0.50248440  1
  Zn  Zn86  1  0.12384177  0.74942052  0.87223582  1
  Zn  Zn87  1  0.49273038  0.74915807  0.75685268  1
  Zn  Zn88  1  0.37764875  0.50158876  0.87309905  1
  Zn  Zn89  1  0.62523589  0.12326481  0.00133868  1
  Zn  Zn90  1  0.12420264  0.24861640  0.37963076  1
  Zn  Zn91  1  0.74213841  0.13148788  0.37384085  1
  Zn  Zn92  1  0.74675300  0.74762282  0.49799052  1
  Zn  Zn93  1  0.00310708  0.37429816  0.87312043  1
  Zn  Zn94  1  0.25411828  0.36770946  0.12760152  1
  Zn  Zn95  1  0.50181488  0.74846074  0.24829178  1
  Zn  Zn96  1  0.87691991  0.50466914  0.87380002  1
  Zn  Zn97  1  0.37332532  0.12552925  0.74766415  1
  Zn  Zn98  1  0.12432157  0.25306775  0.87061496  1
  Zn  Zn99  1  0.00175733  0.25414765  0.74914045  1
  Zn  Zn100  1  0.55626377  0.32481079  0.41867585  1
  Zn  Zn101  1  0.74238495  0.00346708  0.74299079  1
  Zn  Zn102  1  0.50316801  0.63059810  0.12055612  1
  Zn  Zn103  1  0.20583656  -0.08473750  0.17848797  1
  Zn  Zn104  1  0.86575789  0.73906761  0.14711869  1
  Zn  Zn105  1  0.12662984  0.49788619  0.12346903  1
  Zn  Zn106  1  0.49776060  0.37653221  0.87709518  1
  Zn  Zn107  1  0.19230996  0.09480249  0.18270579  1
  Zn  Zn108  1  0.18887727  0.18992470  0.68598094  1
  Zn  Zn109  1  0.18862644  0.68308424  0.18471933  1
  Zn  Zn110  1  0.18716991  0.68708933  0.68639362  1
  Zn  Zn111  1  0.68570205  0.18988609  0.18809729  1
  Zn  Zn112  1  0.68628412  0.18814217  0.68439386  1
  Zn  Zn113  1  0.68857104  0.68513741  0.18910570  1
  Zn  Zn114  1  0.68605987  0.69398324  0.69004320  1
  Zn  Zn115  1  0.31224381  0.30435121  0.30902569  1
  Zn  Zn116  1  0.31244032  0.31583261  0.81378067  1
  Zn  Zn117  1  0.31188429  0.81095622  0.30639329  1
  Zn  Zn118  1  0.30947792  0.81612255  0.81215517  1
  Zn  Zn119  1  0.81890140  0.33433713  0.30652424  1
  Zn  Zn120  1  0.81350500  0.31106237  0.81206990  1
  Zn  Zn121  1  0.80840769  0.80765916  0.31912383  1
  Zn  Zn122  1  0.80682092  0.81766280  0.81658176  1
  Zn  Zn123  1  0.18497741  0.43985233  0.43329723  1
  Zn  Zn124  1  0.19185115  0.43868192  0.93436822  1
  Zn  Zn125  1  0.20411626  0.92175968  0.38957032  1
  Zn  Zn126  1  0.18861624  0.93954822  0.92789898  1
  Zn  Zn127  1  0.69455206  0.45362714  0.43453236  1
  Zn  Zn128  1  0.69042948  0.43819001  0.94274757  1
  Zn  Zn129  1  0.68614106  0.93728845  0.44008929  1
  Zn  Zn130  1  0.68632381  0.93602220  0.93436324  1
  Zn  Zn131  1  0.31063717  0.05790468  0.05851370  1
  Zn  Zn132  1  0.31919923  0.06449516  0.56030309  1
  Zn  Zn133  1  0.31570144  0.55939158  0.06254008  1
  Zn  Zn134  1  0.31331692  0.56028599  0.56153255  1
  Zn  Zn135  1  0.81608252  0.06031233  0.06492129  1
  Zn  Zn136  1  0.80626663  0.06167358  0.56450740  1
  Zn  Zn137  1  0.81424708  0.56418160  0.06003382  1
  Zn  Zn138  1  0.81270632  0.57058618  0.56518882  1
  Zn  Zn139  1  0.43846566  0.43568597  0.18326769  1
  Zn  Zn140  1  0.44219985  0.43688263  0.68941196  1
  Zn  Zn141  1  0.43837421  0.93717929  0.18475658  1
  Zn  Zn142  1  0.43276772  0.93688716  0.68439496  1
  Zn  Zn143  1  0.93769323  0.44072467  0.18251079  1
  Zn  Zn144  1  0.94111715  0.44389656  0.68696828  1
  Zn  Zn145  1  0.91748033  0.90533401  0.20962601  1
  Zn  Zn146  1  0.93305035  0.93763045  0.68917021  1
  Zn  Zn147  1  0.05851820  0.06094446  0.32211590  1
  Zn  Zn148  1  0.06247090  0.05818708  0.80972685  1
  Zn  Zn149  1  0.06428625  0.56181809  0.31425223  1
  Zn  Zn150  1  0.06338826  0.56328597  0.81166108  1
  Zn  Zn151  1  0.56140682  0.06206209  0.31328416  1
  Zn  Zn152  1  0.56130169  0.06267256  0.81503707  1
  Zn  Zn153  1  0.56045648  0.55546148  0.31167462  1
  Zn  Zn154  1  0.56433191  0.56745537  0.81457188  1
  Zn  Zn155  1  0.43207142  0.18753626  0.44102830  1
  Zn  Zn156  1  0.43543444  0.18460951  0.93842038  1
  Zn  Zn157  1  0.43864358  0.68096745  0.44240623  1
  Zn  Zn158  1  0.43360198  0.69058757  0.94217701  1
  Zn  Zn159  1  0.93470315  0.18968888  0.43894553  1
  Zn  Zn160  1  0.94107441  0.18901855  0.93332886  1
  Zn  Zn161  1  0.93961792  0.68985138  0.43363295  1
  Zn  Zn162  1  0.93651788  0.68918150  0.93969670  1
  Zn  Zn163  1  0.06401200  0.30675394  0.06352643  1
  Zn  Zn164  1  0.06597235  0.31221230  0.56341260  1
  Zn  Zn165  1  0.06352341  0.79518250  0.06202198  1
  Zn  Zn166  1  0.06648079  0.81545824  0.55459498  1
  Zn  Zn167  1  0.56511679  0.31751718  0.06509611  1
  Zn  Zn168  1  0.56425945  0.31299836  0.57807718  1
  Zn  Zn169  1  0.55855362  0.81218121  0.06550568  1
  Zn  Zn170  1  0.56310198  0.81062809  0.56778337  1
  O  O171  1  0.11561743  0.14251163  0.10831798  1
  O  O172  1  0.11268713  0.12868689  0.62051251  1
  O  O173  1  0.12012035  0.62152541  0.11276631  1
  O  O174  1  0.11852502  0.61743080  0.62090085  1
  O  O175  1  0.61800369  0.11492510  0.12376922  1
  O  O176  1  0.61025573  0.13375583  0.61401216  1
  O  O177  1  0.62353705  0.60851070  0.13333229  1
  O  O178  1  0.61814836  0.62120028  0.62392523  1
  O  O179  1  0.37031861  0.38518270  0.36955292  1
  O  O180  1  0.37635764  0.37902279  0.88650176  1
  O  O181  1  0.38297767  0.88352623  0.37923538  1
  O  O182  1  0.36826547  0.88295106  0.88728657  1
  O  O183  1  0.88947522  0.37823123  0.38522963  1
  O  O184  1  0.87538802  0.37583249  0.88476838  1
  O  O185  1  0.88128184  0.88699868  0.38777156  1
  O  O186  1  0.88215795  0.88328939  0.87877308  1
  O  O187  1  0.26495319  0.01672320  0.38550129  1
  O  O188  1  0.25804155  0.00962824  0.86582761  1
  O  O189  1  0.25725875  0.50351848  0.36510683  1
  O  O190  1  0.25155167  0.51145138  0.86443636  1
  O  O191  1  0.75591427  0.00504213  0.37324932  1
  O  O192  1  0.75295863  0.01362364  0.87313521  1
  O  O193  1  0.75107540  0.53033419  0.37532846  1
  O  O194  1  0.74889148  0.51040038  0.86907007  1
  O  O195  1  0.24967597  0.49611169  0.13798901  1
  O  O196  1  0.24105767  0.50883896  0.63410369  1
  O  O197  1  0.24731246  1.00856946  0.13422821  1
  O  O198  1  0.25814480  0.99320452  0.63016769  1
  O  O199  1  0.74278084  0.49097008  0.11293925  1
  O  O200  1  0.74484755  0.49837259  0.63325164  1
  O  O201  1  0.74118027  1.00591286  0.13659292  1
  O  O202  1  0.74679780  0.98465092  0.62519547  1
  O  O203  1  0.00406521  0.37563402  0.25784407  1
  O  O204  1  0.01335828  0.37949689  0.74951908  1
  O  O205  1  0.01490673  0.90173575  0.27245751  1
  O  O206  1  0.00978298  0.88235389  0.75462515  1
  O  O207  1  0.50834552  0.36107430  0.24303356  1
  O  O208  1  0.51043835  0.36814612  0.75488341  1
  O  O209  1  0.50706609  0.87605497  0.25991743  1
  O  O210  1  0.50947465  0.87253892  0.74474938  1
  O  O211  1  0.49473932  0.13284017  0.24410849  1
  O  O212  1  0.49967842  0.13005512  0.74329290  1
  O  O213  1  0.48872731  0.62440495  0.24948071  1
  O  O214  1  0.50205585  0.62872416  0.73783538  1
  O  O215  1  0.98550391  0.13880018  0.25785365  1
  O  O216  1  0.99418471  0.12446152  0.74043389  1
  O  O217  1  1.00647318  0.61305928  0.23124300  1
  O  O218  1  0.98991198  0.62173293  0.74278787  1
  O  O219  1  0.36499509  0.25613865  -0.00620044  1
  O  O220  1  0.36678211  0.24766098  0.51387280  1
  O  O221  1  0.37411987  0.76582710  0.00590472  1
  O  O222  1  0.36898138  0.75514797  0.50628916  1
  O  O223  1  0.87322435  0.25235136  0.00550732  1
  O  O224  1  0.86789695  0.25877022  0.50777145  1
  O  O225  1  0.86664316  0.76133001  -0.00088590  1
  O  O226  1  0.87633444  0.76330972  0.49894242  1
  O  O227  1  0.13250472  0.23888804  0.50120654  1
  O  O228  1  0.13294308  0.24456974  0.99158319  1
  O  O229  1  0.13372220  0.74105759  0.49521629  1
  O  O230  1  0.12818514  0.73190335  0.99409308  1
  O  O231  1  0.63030703  0.24925146  0.49767090  1
  O  O232  1  0.63167755  0.24918413  0.99389665  1
  O  O233  1  0.62101845  0.73646602  0.50056667  1
  O  O234  1  0.63097059  0.76222892  0.98795117  1
  O  O235  1  0.50541776  0.23629807  0.12961615  1
  O  O236  1  0.48973569  0.24352308  0.63370398  1
  O  O237  1  0.48778921  0.74776253  0.12784959  1
  O  O238  1  0.48887543  0.74327507  0.62600261  1
  O  O239  1  0.99340881  0.24073453  0.13537415  1
  O  O240  1  0.99187146  0.24275862  0.62472646  1
  O  O241  1  0.99536596  0.73180733  0.12444054  1
  O  O242  1  1.00838222  0.73889158  0.61995396  1
  O  O243  1  -0.00142456  0.26071232  0.37127945  1
  O  O244  1  0.00427230  0.25450703  0.86711258  1
  O  O245  1  0.00843182  0.76116152  0.37593990  1
  O  O246  1  0.00135706  0.76688777  0.88058674  1
  O  O247  1  0.49625470  0.24523003  0.36207489  1
  O  O248  1  0.50947687  0.24815071  0.87106312  1
  O  O249  1  0.49286722  0.76154529  0.37491244  1
  O  O250  1  0.51240321  0.74518196  0.87672002  1
  O  O251  1  0.24450700  0.13126012  0.49787574  1
  O  O252  1  0.24223245  0.12929273  0.99035742  1
  O  O253  1  0.24474159  0.62899892  0.49379240  1
  O  O254  1  0.23907225  0.61477492  0.98902753  1
  O  O255  1  0.73955052  0.13796105  0.50198392  1
  O  O256  1  0.75026267  0.13159859  0.99281636  1
  O  O257  1  0.73145230  0.62838002  0.50875784  1
  O  O258  1  0.75608891  0.63362355  0.98626576  1
  O  O259  1  0.25553488  0.36534735  0.00043563  1
  O  O260  1  0.23944899  0.36111129  0.49612100  1
  O  O261  1  0.25848172  0.88205577  0.00100072  1
  O  O262  1  0.25550107  0.87183365  0.49999078  1
  O  O263  1  0.76098975  0.36832861  0.00794583  1
  O  O264  1  0.75333390  0.37506653  0.50354946  1
  O  O265  1  0.75982661  0.86705638  -0.00953672  1
  O  O266  1  0.75558151  0.87225250  0.50745660  1
  O  O267  1  0.13537751  0.49083886  0.25070528  1
  O  O268  1  0.13266942  0.49690794  0.74205987  1
  O  O269  1  0.09174136  1.04720325  0.21559375  1
  O  O270  1  0.13872946  0.99073219  0.75146326  1
  O  O271  1  0.61769348  0.48353976  0.24114415  1
  O  O272  1  0.63664560  0.50100083  0.74327658  1
  O  O273  1  0.62949626  0.99596574  0.24417511  1
  O  O274  1  0.62431398  0.98435759  0.75947240  1
  O  O275  1  0.38493124  0.00924581  0.26175914  1
  O  O276  1  0.36514156  -0.00197263  0.75719629  1
  O  O277  1  0.37082328  0.50327584  0.25621048  1
  O  O278  1  0.36313657  0.49511458  0.74963048  1
  O  O279  1  0.86454977  0.00165246  0.26141647  1
  O  O280  1  0.86891266  0.00734217  0.76030752  1
  O  O281  1  0.83464174  0.43128505  0.22721223  1
  O  O282  1  0.86315730  0.50399158  0.75144621  1
  O  O283  1  0.11505096  0.37274227  0.36585632  1
  O  O284  1  0.12503934  0.37603395  0.86354108  1
  O  O285  1  0.11048961  0.86130132  0.39483690  1
  O  O286  1  0.11875650  0.87429547  0.86389790  1
  O  O287  1  0.63242213  0.38466877  0.35918313  1
  O  O288  1  0.62984266  0.36266547  0.87284113  1
  O  O289  1  0.61491214  0.88105424  0.36691601  1
  O  O290  1  0.62859537  0.86390195  0.86229156  1
  O  O291  1  0.38377724  0.11800461  0.13487316  1
  O  O292  1  0.38809581  0.13213527  0.62659615  1
  O  O293  1  0.37401308  0.63235763  0.13260476  1
  O  O294  1  0.38240037  0.63458329  0.61836272  1
  O  O295  1  0.88419336  0.12932472  0.13443027  1
  O  O296  1  0.88105610  0.13106942  0.62690050  1
  O  O297  1  0.88951708  0.62426897  0.12115652  1
  O  O298  1  0.88495725  0.62554820  0.63647178  1
  O  O299  1  0.24838366  0.24643007  0.10958489  1
  O  O300  1  0.26504672  0.24615406  0.61948581  1
  O  O301  1  0.26165917  0.75470132  0.13330679  1
  O  O302  1  0.25444305  0.75600552  0.61667644  1
  O  O303  1  0.76491489  0.25122227  0.12201655  1
  O  O304  1  0.75414203  0.25924368  0.61638257  1
  O  O305  1  0.75057247  0.74329916  0.10973770  1
  O  O306  1  0.74345381  0.76741302  0.62088106  1
  O  O307  1  0.25195958  0.23967453  0.38601744  1
  O  O308  1  0.24982108  0.23629754  0.87553496  1
  O  O309  1  0.24516840  0.74249487  0.38117834  1
  O  O310  1  0.24698244  0.73568441  0.86861857  1
  O  O311  1  0.76071179  0.25413999  0.38743826  1
  O  O312  1  0.74570545  0.24035700  0.87982224  1
  O  O313  1  0.75893538  0.72653138  0.38047634  1
  O  O314  1  0.74121922  0.74644617  0.88271375  1
  O  O315  1  0.01049806  0.12553837  0.00274497  1
  O  O316  1  0.00536699  0.12195726  0.50678858  1
  O  O317  1  0.01031019  0.61791203  0.00327827  1
  O  O318  1  0.00426765  0.62087284  0.50659427  1
  O  O319  1  0.50014592  0.11518090  0.00701981  1
  O  O320  1  0.50386805  0.12011753  0.50599856  1
  O  O321  1  0.49474905  0.61214828  0.00135436  1
  O  O322  1  0.50984592  0.61834737  0.51215286  1
  O  O323  1  0.50819525  0.37537660  0.50401209  1
  O  O324  1  0.49325467  0.38000592  0.99857070  1
  O  O325  1  0.49865899  0.88129010  0.49593962  1
  O  O326  1  0.49146950  0.88806612  1.00354539  1
  O  O327  1  0.99814658  0.38362448  0.49541793  1
  O  O328  1  0.99582666  0.38133203  0.99926809  1
  O  O329  1  0.99105672  0.88562028  0.50142376  1
  O  O330  1  0.99985991  0.88093175  0.99555441  1
  O  O331  1  0.48423441  0.49716093  0.37666669  1
  O  O332  1  0.50082748  0.49905273  0.88115572  1
  O  O333  1  0.49468782  0.99397776  0.38283286  1
  O  O334  1  0.48719254  1.00565056  0.88315568  1
  O  O335  1  1.00842159  0.49465209  0.38973112  1
  O  O336  1  0.99820212  0.49928272  0.88611030  1
  O  O337  1  0.99046210  0.99961503  0.39190024  1
  O  O338  1  0.99085913  0.99030710  0.87185168  1
  O  O339  1  -0.01715604  0.00797752  0.11685895  1
  O  O340  1  -0.00782267  0.00988414  0.61545429  1
  O  O341  1  0.00202715  0.50586581  0.11311550  1
  O  O342  1  0.00879968  0.50940704  0.61592724  1
  O  O343  1  0.50648781  0.00930540  0.11850260  1
  O  O344  1  0.49372445  0.00799992  0.61585525  1
  O  O345  1  0.50728261  0.50102505  0.11604904  1
  O  O346  1  0.50921772  0.50690918  0.62694520  1
  O  O347  1  0.24163820  0.37657032  0.24979703  1
  O  O348  1  0.23950013  0.38590387  0.75276217  1
  O  O349  1  0.23346113  0.88546162  0.28067779  1
  O  O350  1  0.24402011  0.88233524  0.73808558  1
  O  O351  1  0.72336701  0.34408102  0.24181388  1
  O  O352  1  0.74721559  0.38469626  0.74778383  1
  O  O353  1  0.73826392  0.88965529  0.26156296  1
  O  O354  1  0.74084009  0.87771535  0.74195343  1
  O  O355  1  0.26265435  0.13573193  0.26234789  1
  O  O356  1  0.25012126  0.11775552  0.75427876  1
  O  O357  1  0.25912168  0.61476950  0.25402599  1
  O  O358  1  0.24460179  0.61828048  0.76202431  1
  O  O359  1  0.75146141  0.11830320  0.25441119  1
  O  O360  1  0.75446400  0.12508311  0.75586349  1
  O  O361  1  0.76968104  0.63193727  0.24826500  1
  O  O362  1  0.75697396  0.62274712  0.75653229  1
  O  O363  1  0.37180509  0.11965418  0.36771275  1
  O  O364  1  0.36692350  0.11529877  0.87170043  1
  O  O365  1  0.36978244  0.61925532  0.36733366  1
  O  O366  1  0.35997201  0.62417558  0.88034877  1
  O  O367  1  0.87090238  0.11576024  0.37302570  1
  O  O368  1  0.86932538  0.12055828  0.86925564  1
  O  O369  1  0.88413982  0.62017747  0.36418166  1
  O  O370  1  0.86803485  0.62613874  0.86673577  1
  O  O371  1  0.12461348  0.37455086  0.13810498  1
  O  O372  1  0.12149034  0.39008119  0.62950203  1
  O  O373  1  0.11004640  0.88718181  0.11450672  1
  O  O374  1  0.13752430  0.87497378  0.62550737  1
  O  O375  1  0.63530516  0.38368908  0.13382958  1
  O  O376  1  0.63449743  0.38567107  0.63596818  1
  O  O377  1  0.61782014  0.88925417  0.13458286  1
  O  O378  1  0.62966585  0.87339860  0.63998501  1
  O  O379  1  0.10718218  0.25759526  0.25590999  1
  O  O380  1  0.12544867  0.26290214  0.74638988  1
  O  O381  1  0.12885670  0.74526949  0.26149747  1
  O  O382  1  0.12921997  0.76508640  0.74939753  1
  O  O383  1  0.60684980  0.25299176  0.24720660  1
  O  O384  1  0.62181446  0.25468893  0.75832525  1
  O  O385  1  0.62403957  0.76432721  0.24360079  1
  O  O386  1  0.62069800  0.76167076  0.76100017  1
  O  O387  1  0.38793844  0.24151688  0.24741527  1
  O  O388  1  0.37847396  0.24930862  0.74091591  1
  O  O389  1  0.37720512  0.74109878  0.24449907  1
  O  O390  1  0.37406786  0.75795816  0.73622786  1
  O  O391  1  0.88219046  0.25111246  0.24286544  1
  O  O392  1  0.87480527  0.24382699  0.74013649  1
  O  O393  1  0.88379009  0.79868196  0.23967701  1
  O  O394  1  0.87113909  0.74494859  0.75350808  1
  O  O395  1  0.37310869  0.49958104  0.48441794  1
  O  O396  1  0.38403091  0.49168551  0.99781527  1
  O  O397  1  0.38738602  0.99646667  0.49021380  1
  O  O398  1  0.37948414  0.99130116  0.99261598  1
  O  O399  1  0.88577217  0.49747187  0.50917361  1
  O  O400  1  0.88337910  0.49074543  0.99715212  1
  O  O401  1  0.87859673  0.99684776  0.49664233  1
  O  O402  1  0.86764265  0.99607914  0.98402582  1
  O  O403  1  0.12278719  0.00913120  -0.00384120  1
  O  O404  1  0.11438428  0.01417976  0.49874430  1
  O  O405  1  0.11993071  0.50703195  0.00088099  1
  O  O406  1  0.12050350  0.50698419  0.50645933  1
  O  O407  1  0.61853548  -0.00067603  0.00580157  1
  O  O408  1  0.61327285  0.00890101  0.49891643  1
  O  O409  1  0.61372411  0.49179804  0.00852626  1
  O  O410  1  0.62637513  0.50817499  0.51447553  1
  O  O411  1  0.37209837  0.37632706  0.11036151  1
  O  O412  1  0.37887078  0.36238503  0.62702662  1
  O  O413  1  0.37490820  0.87192634  0.11305664  1
  O  O414  1  0.36399297  0.86889481  0.61618615  1
  O  O415  1  0.87822758  0.36201909  0.10781063  1
  O  O416  1  0.87127704  0.37165785  0.62099986  1
  O  O417  1  0.87551136  0.88659367  0.10479634  1
  O  O418  1  0.86283437  0.87836441  0.61972672  1
  O  O419  1  0.13500617  0.12617253  0.38396809  1
  O  O420  1  0.13167820  0.12440166  0.87817513  1
  O  O421  1  0.13050427  0.63138484  0.38095540  1
  O  O422  1  0.13240944  0.62576884  0.88312042  1
  O  O423  1  0.62306271  0.12441501  0.38952162  1
  O  O424  1  0.63276615  0.13478668  0.87665929  1
  O  O425  1  0.61439876  0.61967573  0.39108979  1
  O  O426  1  0.63504473  0.64278997  0.86860497  1
