# generated using pymatgen
data_V85Zn86O256
_symmetry_space_group_name_H-M   'P 1'
_cell_length_a   16.94243107
_cell_length_b   16.95873933
_cell_length_c   16.95468191
_cell_angle_alpha   90.04544386
_cell_angle_beta   90.02503329
_cell_angle_gamma   89.98674988
_symmetry_Int_Tables_number   1
_chemical_formula_structural   V85Zn86O256
_chemical_formula_sum   'V85 Zn86 O256'
_cell_volume   4871.45560429
_cell_formula_units_Z   1
loop_
 _symmetry_equiv_pos_site_id
 _symmetry_equiv_pos_as_xyz
  1  'x, y, z'
loop_
 _atom_site_type_symbol
 _atom_site_label
 _atom_site_symmetry_multiplicity
 _atom_site_fract_x
 _atom_site_fract_y
 _atom_site_fract_z
 _atom_site_occupancy
  V  V0  1  0.74295617  0.12790046  0.87322470  1
  V  V1  1  -0.01267152  0.24280722  0.24659680  1
  V  V2  1  0.75170834  0.37556562  0.13277909  1
  V  V3  1  0.25192006  0.37262526  0.12148252  1
  V  V4  1  -0.00167778  0.11961657  0.62127931  1
  V  V5  1  0.75183603  0.74528309  0.49989217  1
  V  V6  1  0.12274275  0.49975240  0.62176418  1
  V  V7  1  0.74766656  0.37470426  0.62814856  1
  V  V8  1  0.61160206  0.00843954  0.12708186  1
  V  V9  1  0.26108863  0.12161208  0.37384197  1
  V  V10  1  0.37842464  0.24485392  0.62267645  1
  V  V11  1  0.39367081  0.87407567  -0.00709933  1
  V  V12  1  0.37789876  0.23441600  0.12510540  1
  V  V13  1  0.00240749  0.88174415  0.39006103  1
  V  V14  1  0.12978030  0.24698924  0.37497195  1
  V  V15  1  0.50009535  0.48960082  -0.00291972  1
  V  V16  1  0.62597703  0.87542574  0.24304085  1
  V  V17  1  0.87889767  0.37365501  0.49831693  1
  V  V18  1  0.12523478  0.12505417  0.49677217  1
  V  V19  1  0.62425953  0.74378753  0.37493283  1
  V  V20  1  0.80988227  0.81582448  0.17788949  1
  V  V21  1  0.88215780  0.49786674  0.88079200  1
  V  V22  1  0.25024760  0.50249423  0.74905716  1
  V  V23  1  0.24580233  0.36710843  0.62016491  1
  V  V24  1  0.00131839  0.37197910  0.37704739  1
  V  V25  1  0.74472386  0.49818291  0.75305721  1
  V  V26  1  0.24770478  0.49615609  0.24502144  1
  V  V27  1  0.12543409  0.75064542  0.37143193  1
  V  V28  1  -0.05238825  0.54744006  0.44365512  1
  V  V29  1  0.37379717  0.62664893  0.24743785  1
  V  V30  1  0.39092292  -0.00239342  0.87376305  1
  V  V31  1  0.49797660  0.50147138  0.49939502  1
  V  V32  1  0.25100780  0.24603609  -0.00480319  1
  V  V33  1  0.75047092  0.25140029  0.00468184  1
  V  V34  1  0.75439214  0.87602896  0.61920705  1
  V  V35  1  0.87534129  0.62673912  0.75331662  1
  V  V36  1  0.75082823  0.62547569  0.87788290  1
  V  V37  1  0.86737998  0.86826733  -0.00171351  1
  V  V38  1  0.50207479  0.26483002  0.74973349  1
  V  V39  1  0.87543787  0.24975807  0.62612938  1
  V  V40  1  0.12036024  0.37307517  0.75100782  1
  V  V41  1  0.88081210  0.37363649  0.00548175  1
  V  V42  1  0.12395912  0.12635668  -0.00095466  1
  V  V43  1  0.75384825  0.51373813  0.27020377  1
  V  V44  1  0.12833410  0.88315529  0.75494635  1
  V  V45  1  0.24936355  0.62542849  0.37490199  1
  V  V46  1  0.12813201  0.63193184  -0.00027031  1
  V  V47  1  0.25149584  0.11483191  0.87035215  1
  V  V48  1  0.37600258  0.88248647  0.49443440  1
  V  V49  1  0.12879915  0.00469073  0.12753337  1
  V  V50  1  0.12647014  0.87593075  0.25066829  1
  V  V51  1  0.37212027  0.49924716  0.37487371  1
  V  V52  1  0.12625062  0.62174841  0.50076878  1
  V  V53  1  0.49490224  0.23521743  0.24684357  1
  V  V54  1  0.00277808  0.62289033  0.63064633  1
  V  V55  1  0.37904474  0.75107448  0.62436021  1
  V  V56  1  0.75417948  0.12059266  0.37728315  1
  V  V57  1  0.62223182  0.87658273  0.75401070  1
  V  V58  1  0.74687839  -0.00002585  0.75079390  1
  V  V59  1  -0.00040072  0.00032731  0.00048932  1
  V  V60  1  0.62185256  0.62260200  0.00191912  1
  V  V61  1  0.36661863  0.37024258  0.49791940  1
  V  V62  1  0.49938065  0.88080054  0.37331000  1
  V  V63  1  0.26400563  0.00084406  0.25153706  1
  V  V64  1  0.62469174  0.24929827  0.37337424  1
  V  V65  1  0.37041475  0.74767539  0.11611873  1
  V  V66  1  0.81150789  0.06031189  0.20442498  1
  V  V67  1  -0.01501810  0.62418480  0.12627976  1
  V  V68  1  0.25238992  0.88281590  0.63006241  1
  V  V69  1  0.61605316  0.00225610  0.62385660  1
  V  V70  1  0.12412467  0.00042183  0.62038165  1
  V  V71  1  0.49667721  0.37262466  0.37138808  1
  V  V72  1  0.62253608  0.75434284  0.87959666  1
  V  V73  1  0.50299841  0.74925870  0.75242478  1
  V  V74  1  0.38008356  0.12055096  0.74692446  1
  V  V75  1  0.24713634  0.87333134  0.11043827  1
  V  V76  1  0.00296293  0.87035421  0.87891147  1
  V  V77  1  0.37783518  0.49571326  0.87222435  1
  V  V78  1  0.87394254  0.12567766  0.75099478  1
  V  V79  1  0.00121193  0.75306480  0.75399557  1
  V  V80  1  0.25102581  0.75111036  0.50250092  1
  V  V81  1  0.62211612  0.26697839  0.87192569  1
  V  V82  1  0.87975085  0.00207872  0.39844553  1
  V  V83  1  0.61771974  0.12627931  0.50345712  1
  V  V84  1  0.62268821  0.49796263  0.62783888  1
  Zn  Zn85  1  0.00146413  0.24773043  0.75345864  1
  Zn  Zn86  1  0.12429070  0.24894019  0.87336920  1
  Zn  Zn87  1  0.61352477  0.12549940  0.00121931  1
  Zn  Zn88  1  0.62040531  0.37638650  0.24769794  1
  Zn  Zn89  1  0.75222786  0.74708494  0.00604530  1
  Zn  Zn90  1  -0.01231513  0.74842653  0.24721829  1
  Zn  Zn91  1  0.12228264  0.37142844  0.24673310  1
  Zn  Zn92  1  -0.01241860  0.12879463  0.12550829  1
  Zn  Zn93  1  0.37748323  0.37149278  -0.00558645  1
  Zn  Zn94  1  0.25000003  0.63802604  0.88786969  1
  Zn  Zn95  1  0.49402044  0.00523719  0.49794740  1
  Zn  Zn96  1  0.49852976  0.74777764  0.24933424  1
  Zn  Zn97  1  0.49547406  0.62109022  0.12251088  1
  Zn  Zn98  1  0.62984253  0.61943961  0.49484314  1
  Zn  Zn99  1  0.87255807  0.00009843  0.87488823  1
  Zn  Zn100  1  0.11319270  0.49645302  0.11336930  1
  Zn  Zn101  1  0.74753235  0.25178167  0.50058012  1
  Zn  Zn102  1  0.50141957  0.62616431  0.62396474  1
  Zn  Zn103  1  0.62242077  0.49791824  0.12867904  1
  Zn  Zn104  1  0.00377293  0.37302863  0.88312174  1
  Zn  Zn105  1  0.87669786  0.75571060  0.62359412  1
  Zn  Zn106  1  0.37213508  0.63043764  0.75428310  1
  Zn  Zn107  1  0.18849512  0.18610665  0.19075997  1
  Zn  Zn108  1  0.19107505  0.18679776  0.68890338  1
  Zn  Zn109  1  0.18523634  0.68647816  0.17983160  1
  Zn  Zn110  1  0.20001137  0.70521800  0.71558967  1
  Zn  Zn111  1  0.68278979  0.19282806  0.18694814  1
  Zn  Zn112  1  0.68314165  0.18995464  0.68732385  1
  Zn  Zn113  1  0.68272868  0.67858520  0.19309715  1
  Zn  Zn114  1  0.68643639  0.68531752  0.68566546  1
  Zn  Zn115  1  0.31134953  0.30690004  0.30844760  1
  Zn  Zn116  1  0.31059578  0.31311670  0.80947306  1
  Zn  Zn117  1  0.31206103  0.81334292  0.31057312  1
  Zn  Zn118  1  0.31219043  0.81431168  0.81577902  1
  Zn  Zn119  1  0.81260159  0.31462528  0.31605918  1
  Zn  Zn120  1  0.81260149  0.31323720  0.81426726  1
  Zn  Zn121  1  0.80867378  0.82521990  0.33958570  1
  Zn  Zn122  1  0.81073530  0.81280944  0.81457044  1
  Zn  Zn123  1  0.18383407  0.43720074  0.43615787  1
  Zn  Zn124  1  0.18677548  0.44333113  0.93683747  1
  Zn  Zn125  1  0.18979695  0.94124332  0.43928703  1
  Zn  Zn126  1  0.18900193  0.94153136  0.93619621  1
  Zn  Zn127  1  0.68635560  0.43370285  0.44045265  1
  Zn  Zn128  1  0.69144208  0.43856585  0.94183996  1
  Zn  Zn129  1  0.68628800  0.93754512  0.43646946  1
  Zn  Zn130  1  0.68318414  0.93826417  0.94052784  1
  Zn  Zn131  1  0.43699493  0.06103986  0.05540599  1
  Zn  Zn132  1  0.30893258  0.06487784  0.56078460  1
  Zn  Zn133  1  0.30822480  0.56037348  0.05755472  1
  Zn  Zn134  1  0.31093700  0.56244128  0.56690103  1
  Zn  Zn135  1  0.80445481  0.05669668  0.04455352  1
  Zn  Zn136  1  0.80399688  0.06529691  0.56474065  1
  Zn  Zn137  1  0.80915372  0.55648319  0.06499158  1
  Zn  Zn138  1  0.81118131  0.56627368  0.56850590  1
  Zn  Zn139  1  0.43543206  0.43322725  0.18331478  1
  Zn  Zn140  1  0.43334841  0.43698457  0.68456868  1
  Zn  Zn141  1  0.43765718  0.92846914  0.18648848  1
  Zn  Zn142  1  0.43876741  0.93655990  0.69052190  1
  Zn  Zn143  1  0.93248521  0.44107619  0.19238760  1
  Zn  Zn144  1  0.93542655  0.44016431  0.68956887  1
  Zn  Zn145  1  0.94935408  0.93699563  0.18984888  1
  Zn  Zn146  1  0.93626328  0.94131550  0.68791292  1
  Zn  Zn147  1  0.05920769  0.06344830  0.31228093  1
  Zn  Zn148  1  0.06124087  0.06092184  0.81232720  1
  Zn  Zn149  1  0.06432162  0.56625770  0.29719415  1
  Zn  Zn150  1  0.06708084  0.56122190  0.81839988  1
  Zn  Zn151  1  0.56589252  0.05955561  0.31120718  1
  Zn  Zn152  1  0.55945530  0.07089741  0.81023045  1
  Zn  Zn153  1  0.56315500  0.55912422  0.31003542  1
  Zn  Zn154  1  0.56081644  0.56354465  0.81471594  1
  Zn  Zn155  1  0.43803360  0.18903022  0.43763378  1
  Zn  Zn156  1  0.43818254  0.19211502  0.93031857  1
  Zn  Zn157  1  0.43897140  0.69030810  0.43609631  1
  Zn  Zn158  1  0.43721260  0.68323927  0.93585521  1
  Zn  Zn159  1  0.93954872  0.18754833  0.43854243  1
  Zn  Zn160  1  0.93540742  0.19037106  0.93597147  1
  Zn  Zn161  1  0.93851148  0.71046032  0.44009847  1
  Zn  Zn162  1  0.94430754  0.68491985  0.94473248  1
  Zn  Zn163  1  0.06438610  0.30983863  0.06633424  1
  Zn  Zn164  1  0.06185521  0.30573007  0.56033444  1
  Zn  Zn165  1  0.05833598  0.80536909  0.06499452  1
  Zn  Zn166  1  0.06697955  0.80820740  0.56762521  1
  Zn  Zn167  1  0.56373066  0.30971934  0.06287963  1
  Zn  Zn168  1  0.55857943  0.31465506  0.56270675  1
  Zn  Zn169  1  0.56258807  0.80814808  0.06800783  1
  Zn  Zn170  1  0.56544149  0.81530846  0.56138022  1
  O  O171  1  0.12586612  0.11678310  0.11845382  1
  O  O172  1  0.12125849  0.11968368  0.62013778  1
  O  O173  1  0.12088560  0.61919574  0.11745885  1
  O  O174  1  0.11676824  0.62394211  0.61856372  1
  O  O175  1  0.62425255  0.11177439  0.12800276  1
  O  O176  1  0.63177756  0.11591027  0.61503808  1
  O  O177  1  0.62066322  0.62361175  0.11271861  1
  O  O178  1  0.62299762  0.61063150  0.62115222  1
  O  O179  1  0.37467522  0.37704774  0.38135543  1
  O  O180  1  0.36650702  0.38998080  0.87544969  1
  O  O181  1  0.38391637  0.86858828  0.38355420  1
  O  O182  1  0.37125525  0.88058318  0.88567494  1
  O  O183  1  0.88160036  0.37160772  0.39071534  1
  O  O184  1  0.87394473  0.38204328  0.88435581  1
  O  O185  1  0.88675759  0.89271859  0.38098432  1
  O  O186  1  0.88221105  0.87815527  0.88338346  1
  O  O187  1  0.24532951  0.01115847  0.36587359  1
  O  O188  1  0.26060976  0.01182979  0.87893497  1
  O  O189  1  0.25419745  0.50534429  0.36796249  1
  O  O190  1  0.25554477  0.50585932  0.86164573  1
  O  O191  1  0.76437156  0.00714599  0.38016847  1
  O  O192  1  0.74666833  0.00958347  0.86972078  1
  O  O193  1  0.74272735  0.50100272  0.37013747  1
  O  O194  1  0.75637568  0.50484029  0.86802389  1
  O  O195  1  0.25441027  0.48826977  0.13171178  1
  O  O196  1  0.24528155  0.48388229  0.62581175  1
  O  O197  1  0.23650630  0.98885814  0.13490649  1
  O  O198  1  0.24257404  0.98953149  0.62152404  1
  O  O199  1  0.74454455  0.48627791  0.13091076  1
  O  O200  1  0.74348268  0.49523713  0.63225308  1
  O  O201  1  0.75103587  1.00882845  0.14037769  1
  O  O202  1  0.73976804  0.99352818  0.63073414  1
  O  O203  1  -0.00079035  0.36765711  0.26293054  1
  O  O204  1  0.01238906  0.37426246  0.74556081  1
  O  O205  1  0.01525951  0.87197290  0.25804327  1
  O  O206  1  0.00152305  0.87314397  0.75966222  1
  O  O207  1  0.49839013  0.36778171  0.25722348  1
  O  O208  1  0.49627396  0.36372082  0.74651208  1
  O  O209  1  0.50797184  0.87023958  0.25641584  1
  O  O210  1  0.51446269  0.86447466  0.74509284  1
  O  O211  1  0.49960915  0.13619043  0.25765970  1
  O  O212  1  0.48504732  0.13770342  0.75030819  1
  O  O213  1  0.48405971  0.62199057  0.24887980  1
  O  O214  1  0.50029439  0.63785727  0.74587666  1
  O  O215  1  1.00008130  0.13776047  0.24763812  1
  O  O216  1  0.99036666  0.12365072  0.74355230  1
  O  O217  1  0.99882122  0.63298698  0.23716142  1
  O  O218  1  0.99990852  0.63494197  0.74759455  1
  O  O219  1  0.36830567  0.25176059  0.00735693  1
  O  O220  1  0.38088975  0.25913497  0.50923318  1
  O  O221  1  0.37659269  0.76045602  0.00280614  1
  O  O222  1  0.37220103  0.75972162  0.50710675  1
  O  O223  1  0.85847447  0.25743727  -0.00599303  1
  O  O224  1  0.87311293  0.25731070  0.50788600  1
  O  O225  1  0.87408894  0.76368309  -0.00438901  1
  O  O226  1  0.85819880  0.75442900  0.50457398  1
  O  O227  1  0.12359004  0.24096848  0.48554786  1
  O  O228  1  0.13192026  0.24269148  0.99869493  1
  O  O229  1  0.13025242  0.74360023  0.49003873  1
  O  O230  1  0.12268740  0.73427845  1.00454624  1
  O  O231  1  0.62337713  0.24421945  0.49351279  1
  O  O232  1  0.63292553  0.25005995  0.98956459  1
  O  O233  1  0.63206164  0.74656604  0.49399167  1
  O  O234  1  0.62641425  0.74400937  0.99449117  1
  O  O235  1  0.48601474  0.25344128  0.13069173  1
  O  O236  1  0.49017895  0.25443504  0.63469586  1
  O  O237  1  0.48429482  0.74536703  0.12782618  1
  O  O238  1  0.49530676  0.75074206  0.62991867  1
  O  O239  1  1.00142076  0.24855748  0.14183743  1
  O  O240  1  0.99429694  0.23674190  0.62802581  1
  O  O241  1  0.99943681  0.73583332  0.13207885  1
  O  O242  1  0.99638730  0.74051112  0.63050178  1
  O  O243  1  0.00686183  0.25433737  0.36788020  1
  O  O244  1  0.00406471  0.25408114  0.87138552  1
  O  O245  1  0.00874986  0.76130569  0.36850995  1
  O  O246  1  -0.00276403  0.76251991  0.86937450  1
  O  O247  1  0.50396134  0.25418182  0.36789606  1
  O  O248  1  0.50681748  0.25395481  0.86014086  1
  O  O249  1  0.50771646  0.76124169  0.37471958  1
  O  O250  1  0.51342635  0.74480247  0.86698873  1
  O  O251  1  0.23703111  0.11851803  0.48668178  1
  O  O252  1  0.24433364  0.13788672  0.98758182  1
  O  O253  1  0.24705871  0.63207452  0.49620825  1
  O  O254  1  0.23823963  0.62972853  1.00256382  1
  O  O255  1  0.73918313  0.12862941  0.49037788  1
  O  O256  1  0.74250861  0.13400908  0.98990790  1
  O  O257  1  0.74781396  0.64014777  0.50716752  1
  O  O258  1  0.74133739  0.62482954  0.99500477  1
  O  O259  1  0.24908010  0.36264450  0.00447408  1
  O  O260  1  0.25903071  0.37656566  0.50377665  1
  O  O261  1  0.25095958  0.87713147  0.00920881  1
  O  O262  1  0.25656317  0.86973731  0.50607311  1
  O  O263  1  0.75573426  0.36898992  0.01090103  1
  O  O264  1  0.75975668  0.37569645  0.51187562  1
  O  O265  1  0.76367118  0.87306385  -0.00311584  1
  O  O266  1  0.74089271  0.86369512  0.50941028  1
  O  O267  1  0.13996257  0.49519588  0.24794752  1
  O  O268  1  0.13121679  0.49341465  0.74300628  1
  O  O269  1  0.12581329  0.99326977  0.24328452  1
  O  O270  1  0.11832356  0.99055382  0.73740472  1
  O  O271  1  0.63621352  0.49553276  0.24958109  1
  O  O272  1  0.63632708  0.50442621  0.74487868  1
  O  O273  1  0.62496496  0.99178173  0.23766503  1
  O  O274  1  0.62645756  0.99505637  0.74475364  1
  O  O275  1  0.36282711  -0.00815241  0.24538728  1
  O  O276  1  0.37890806  0.00799346  0.75619413  1
  O  O277  1  0.36543476  0.50445608  0.25487778  1
  O  O278  1  0.36869513  0.50128786  0.75388504  1
  O  O279  1  0.87428853  -0.00171527  0.25597214  1
  O  O280  1  0.86560937  0.00855641  0.75281202  1
  O  O281  1  0.85107698  0.48691853  0.25687291  1
  O  O282  1  0.86336078  0.50643589  0.75633392  1
  O  O283  1  0.11875933  0.36510783  0.37431918  1
  O  O284  1  0.12437040  0.37560012  0.86399078  1
  O  O285  1  0.12333517  0.87120219  0.37044421  1
  O  O286  1  0.11686172  0.88342737  0.86653141  1
  O  O287  1  0.61858807  0.36091686  0.37756307  1
  O  O288  1  0.63514634  0.36569280  0.87247191  1
  O  O289  1  0.62220045  0.86799866  0.36345858  1
  O  O290  1  0.63018310  0.86663446  0.86735133  1
  O  O291  1  0.37169236  0.13610214  0.11993265  1
  O  O292  1  0.36643237  0.13649892  0.63013925  1
  O  O293  1  0.37062038  0.63171848  0.13013162  1
  O  O294  1  0.37716092  0.64120696  0.62399345  1
  O  O295  1  0.86737364  0.11087091  0.13415886  1
  O  O296  1  0.88027803  0.12805740  0.62873135  1
  O  O297  1  0.88531291  0.62368168  0.11614811  1
  O  O298  1  0.88369032  0.62769287  0.63608865  1
  O  O299  1  0.25855532  0.25168025  0.11914006  1
  O  O300  1  0.25832012  0.26142102  0.62782360  1
  O  O301  1  0.26203695  0.76137373  0.13227658  1
  O  O302  1  0.25776127  0.76269193  0.62299113  1
  O  O303  1  0.74454067  0.25923464  0.11586803  1
  O  O304  1  0.75456738  0.25913080  0.62434873  1
  O  O305  1  0.75156593  0.74934377  0.12609685  1
  O  O306  1  0.74780110  0.75768393  0.61684112  1
  O  O307  1  0.24275033  0.23416777  0.36753689  1
  O  O308  1  0.25038369  0.24329852  0.88104469  1
  O  O309  1  0.24449078  0.74544154  0.38185418  1
  O  O310  1  0.24528551  0.72725792  0.82039143  1
  O  O311  1  0.74131981  0.24305711  0.37753137  1
  O  O312  1  0.74166656  0.24518778  0.87793122  1
  O  O313  1  0.74115742  0.75246778  0.39112943  1
  O  O314  1  0.73893522  0.74276759  0.87632152  1
  O  O315  1  0.00034930  0.11665857  0.00413437  1
  O  O316  1  0.01302141  0.12828913  0.50847428  1
  O  O317  1  0.00909551  0.62530472  0.01533813  1
  O  O318  1  0.00134530  0.62066302  0.50442041  1
  O  O319  1  0.50152271  0.12609781  -0.00683615  1
  O  O320  1  0.51274349  0.12224738  0.49382962  1
  O  O321  1  0.50691011  0.61499846  0.00006432  1
  O  O322  1  0.49659154  0.61065716  0.50008820  1
  O  O323  1  0.48841981  0.38447740  0.49440262  1
  O  O324  1  0.49985017  0.38571318  1.00114285  1
  O  O325  1  0.49271814  0.87627277  0.49269080  1
  O  O326  1  0.49182878  0.87092764  0.99890361  1
  O  O327  1  0.99537906  0.37024406  0.48807479  1
  O  O328  1  0.98488129  0.36717456  1.00450663  1
  O  O329  1  1.00898694  0.86904398  0.48907710  1
  O  O330  1  0.99446224  0.87988109  0.99597395  1
  O  O331  1  0.49249553  0.49324652  0.38075906  1
  O  O332  1  0.49094470  0.50301345  0.88202655  1
  O  O333  1  0.50745827  0.98525098  0.37757551  1
  O  O334  1  0.49087803  1.00032336  0.86992635  1
  O  O335  1  1.00883132  0.49435957  0.37749040  1
  O  O336  1  0.98497243  0.49434692  0.86590950  1
  O  O337  1  0.98868369  0.99737262  0.37674509  1
  O  O338  1  0.99889218  0.99223322  0.88731708  1
  O  O339  1  0.01091419  0.00081223  0.11575281  1
  O  O340  1  0.00586229  0.01173585  0.62672420  1
  O  O341  1  0.00037241  0.51399847  0.13843228  1
  O  O342  1  0.00558884  0.51464225  0.63369540  1
  O  O343  1  0.50717325  -0.00035591  0.12724542  1
  O  O344  1  0.51284557  -0.00575295  0.62191843  1
  O  O345  1  0.50070480  0.50084041  0.11513027  1
  O  O346  1  0.50554386  0.49907672  0.61807126  1
  O  O347  1  0.25006606  0.38029037  0.24171820  1
  O  O348  1  0.24037783  0.38212316  0.74008805  1
  O  O349  1  0.24060574  0.88209002  0.24680628  1
  O  O350  1  0.23986026  0.87694925  0.74176242  1
  O  O351  1  0.74561584  0.36772137  0.23894085  1
  O  O352  1  0.75797161  0.38403904  0.73638685  1
  O  O353  1  0.74742975  0.86763413  0.24311199  1
  O  O354  1  0.73952204  0.87921313  0.74540027  1
  O  O355  1  0.24604577  0.11419978  0.26301074  1
  O  O356  1  0.26417888  0.13259343  0.76000210  1
  O  O357  1  0.25787842  0.61749914  0.25251035  1
  O  O358  1  0.25392295  0.60301720  0.72321132  1
  O  O359  1  0.75201545  0.12790123  0.26060592  1
  O  O360  1  0.75360595  0.12164999  0.75420552  1
  O  O361  1  0.75154980  0.61312609  0.25342633  1
  O  O362  1  0.75489099  0.61912944  0.75638857  1
  O  O363  1  0.35966925  0.12503808  0.38359243  1
  O  O364  1  0.37038443  0.11643311  0.86694454  1
  O  O365  1  0.36796539  0.62180946  0.36800070  1
  O  O366  1  0.36986259  0.61395991  0.87186273  1
  O  O367  1  0.86843994  0.11403208  0.38258551  1
  O  O368  1  0.86133999  0.12437549  0.86964991  1
  O  O369  1  0.89416381  0.61143558  0.39184300  1
  O  O370  1  0.87210381  0.61823279  0.87370284  1
  O  O371  1  0.13719667  0.37605919  0.12705320  1
  O  O372  1  0.12958331  0.37662068  0.62657671  1
  O  O373  1  0.12997276  0.87792846  0.13177341  1
  O  O374  1  0.13220209  0.88318398  0.62880222  1
  O  O375  1  0.63665882  0.37531646  0.12565623  1
  O  O376  1  0.63414060  0.38702905  0.61881783  1
  O  O377  1  0.62063403  0.88134522  0.13675545  1
  O  O378  1  0.63361173  0.88219266  0.63277264  1
  O  O379  1  0.11782320  0.25017073  0.26126351  1
  O  O380  1  0.12497523  0.25942738  0.74987128  1
  O  O381  1  0.13323225  0.75683473  0.26228854  1
  O  O382  1  0.10639090  0.76997624  0.73860885  1
  O  O383  1  0.61425628  0.25178972  0.25823735  1
  O  O384  1  0.60977858  0.24868782  0.75324441  1
  O  O385  1  0.62223256  0.75558722  0.25660746  1
  O  O386  1  0.62205632  0.75634718  0.75591882  1
  O  O387  1  0.37919757  0.24937931  0.23408044  1
  O  O388  1  0.38343080  0.24764881  0.74264742  1
  O  O389  1  0.37442491  0.74094769  0.24313268  1
  O  O390  1  0.38898435  0.75484000  0.74105689  1
  O  O391  1  0.88900319  0.25088302  0.25757810  1
  O  O392  1  0.87453399  0.24255390  0.74325956  1
  O  O393  1  0.86644229  0.76818380  0.24829454  1
  O  O394  1  0.88511288  0.74662362  0.75006567  1
  O  O395  1  0.37806706  0.49282216  0.49533420  1
  O  O396  1  0.38218188  0.49748976  0.99141592  1
  O  O397  1  0.37541916  0.98666111  0.50687931  1
  O  O398  1  0.37849772  0.98260218  0.99183939  1
  O  O399  1  0.88196429  0.49463114  0.50551070  1
  O  O400  1  0.86668050  0.48739440  0.99042802  1
  O  O401  1  0.87589823  1.00323853  0.49687485  1
  O  O402  1  0.88295722  0.98784248  0.99794926  1
  O  O403  1  0.11873555  0.00532202  0.00722213  1
  O  O404  1  0.12563815  0.00614292  0.51247527  1
  O  O405  1  0.12874389  0.51350579  0.00176170  1
  O  O406  1  0.13037799  0.50906081  0.50824062  1
  O  O407  1  0.63535310  -0.00071228  0.02452945  1
  O  O408  1  0.62485321  0.00761988  0.50737728  1
  O  O409  1  0.61762672  0.50680225  -0.00108812  1
  O  O410  1  0.61462180  0.49984560  0.50620122  1
  O  O411  1  0.36270917  0.36592556  0.11984125  1
  O  O412  1  0.36618779  0.36767446  0.61641800  1
  O  O413  1  0.36925778  0.86873345  0.11074202  1
  O  O414  1  0.36985831  0.86856833  0.62095195  1
  O  O415  1  0.86154622  0.37773249  0.11917692  1
  O  O416  1  0.87243498  0.37169036  0.61643758  1
  O  O417  1  0.87380702  0.87533282  0.11966021  1
  O  O418  1  0.85869711  0.87604020  0.63285113  1
  O  O419  1  0.12803081  0.12879391  0.38130791  1
  O  O420  1  0.13330611  0.12250209  0.87913437  1
  O  O421  1  0.12926217  0.63274666  0.37797443  1
  O  O422  1  0.12442187  0.62277892  0.89201813  1
  O  O423  1  0.63246352  0.13182932  0.37957356  1
  O  O424  1  0.63439716  0.13459419  0.87114145  1
  O  O425  1  0.61491556  0.63974736  0.37561259  1
  O  O426  1  0.62957047  0.63110756  0.88533028  1
