# generated using pymatgen
data_V85Zn86O256
_symmetry_space_group_name_H-M   'P 1'
_cell_length_a   16.93511932
_cell_length_b   16.94113911
_cell_length_c   16.93629412
_cell_angle_alpha   90.01285509
_cell_angle_beta   89.97623023
_cell_angle_gamma   90.01722729
_symmetry_Int_Tables_number   1
_chemical_formula_structural   V85Zn86O256
_chemical_formula_sum   'V85 Zn86 O256'
_cell_volume   4859.02561990
_cell_formula_units_Z   1
loop_
 _symmetry_equiv_pos_site_id
 _symmetry_equiv_pos_as_xyz
  1  'x, y, z'
loop_
 _atom_site_type_symbol
 _atom_site_label
 _atom_site_symmetry_multiplicity
 _atom_site_fract_x
 _atom_site_fract_y
 _atom_site_fract_z
 _atom_site_occupancy
  V  V0  1  0.49615749  0.25348952  0.74817853  1
  V  V1  1  0.37330797  0.87763419  -0.00437617  1
  V  V2  1  0.74339447  0.12619131  0.87851702  1
  V  V3  1  0.62439586  0.63072855  -0.00355558  1
  V  V4  1  -0.00310307  0.12304044  0.62586938  1
  V  V5  1  0.25581788  0.62888802  0.86818706  1
  V  V6  1  0.86972175  0.48628958  0.37278504  1
  V  V7  1  0.12427695  0.74873352  0.87414433  1
  V  V8  1  0.12032988  0.13139619  -0.00383238  1
  V  V9  1  0.25032287  0.74772624  0.00262556  1
  V  V10  1  0.48944137  0.63196577  0.62516226  1
  V  V11  1  0.87336590  0.87595389  0.00249152  1
  V  V12  1  0.36326922  0.61717655  0.27518880  1
  V  V13  1  0.87190283  0.12561707  0.74878341  1
  V  V14  1  0.25293153  0.24988769  0.49936573  1
  V  V15  1  -0.00390151  0.62213814  0.62599486  1
  V  V16  1  0.38603128  -0.00586849  0.37637142  1
  V  V17  1  0.63364841  0.50548257  0.12961124  1
  V  V18  1  0.11481923  0.25267874  0.37644631  1
  V  V19  1  0.50446408  0.00978331  0.00045261  1
  V  V20  1  0.75236624  0.12657223  0.37908197  1
  V  V21  1  0.50607476  0.87297239  0.87668570  1
  V  V22  1  0.12344616  -0.00425628  0.62552667  1
  V  V23  1  0.37741897  0.12635108  0.24679417  1
  V  V24  1  0.63193390  0.77192955  0.37071585  1
  V  V25  1  0.62716169  0.37891761  0.75001155  1
  V  V26  1  0.12506065  0.49676133  0.62267874  1
  V  V27  1  0.49316861  0.62890894  0.12892571  1
  V  V28  1  0.24817133  0.00114960  0.24992808  1
  V  V29  1  0.76198952  0.50219683  0.75051975  1
  V  V30  1  0.88025476  0.38209529  -0.00131301  1
  V  V31  1  -0.00948496  0.74298380  0.75068772  1
  V  V32  1  0.24531507  0.87713726  0.12139869  1
  V  V33  1  0.13583341  0.74297611  0.36947417  1
  V  V34  1  0.12205425  0.86884988  0.24798221  1
  V  V35  1  0.43201869  0.07720965  0.69641940  1
  V  V36  1  0.88099615  0.24195948  0.12443360  1
  V  V37  1  0.24722370  0.25450854  0.00717473  1
  V  V38  1  0.50385598  0.25178076  0.25074126  1
  V  V39  1  0.25448439  0.87063122  0.62503298  1
  V  V40  1  0.62958571  0.25076684  0.38403695  1
  V  V41  1  0.75138044  0.37198492  0.61247900  1
  V  V42  1  0.62344242  0.00397101  0.13178315  1
  V  V43  1  0.74723335  0.75232830  -0.00253734  1
  V  V44  1  0.25316969  0.48787275  0.25984573  1
  V  V45  1  0.24756592  0.00449396  0.75057225  1
  V  V46  1  0.25729201  0.74800676  0.50065940  1
  V  V47  1  0.37732270  0.50510622  0.87098060  1
  V  V48  1  0.74317038  0.87249728  0.13451557  1
  V  V49  1  0.87550768  -0.00446096  0.37279354  1
  V  V50  1  0.75640232  0.62640758  0.87328503  1
  V  V51  1  0.88760434  0.75036379  0.13183755  1
  V  V52  1  0.49523467  0.38300125  0.37819638  1
  V  V53  1  0.25044657  0.13732746  0.87103828  1
  V  V54  1  0.87119483  0.00121315  0.87620752  1
  V  V55  1  0.12881277  0.62317103  0.49477544  1
  V  V56  1  0.11722454  0.00845361  0.12566298  1
  V  V57  1  0.38147734  0.25198287  0.62327028  1
  V  V58  1  0.74415630  0.25034667  0.00462607  1
  V  V59  1  0.25045454  0.12446201  0.37266811  1
  V  V60  1  0.62618154  0.50853965  0.62401536  1
  V  V61  1  0.50017462  0.37849997  0.87540432  1
  V  V62  1  0.74280521  -0.00093764  0.74089466  1
  V  V63  1  0.12422534  0.12215574  0.49787132  1
  V  V64  1  0.00852014  0.60587077  0.12637520  1
  V  V65  1  0.37452488  0.00633374  0.87570516  1
  V  V66  1  0.00203457  0.24946473  0.75608816  1
  V  V67  1  0.00113793  0.86273301  0.37345933  1
  V  V68  1  0.62210691  0.11961805  0.51209064  1
  V  V69  1  0.62894066  0.86408426  0.75200747  1
  V  V70  1  0.12858506  0.36865557  0.75321343  1
  V  V71  1  0.37100724  0.37893287  0.00813072  1
  V  V72  1  0.25677503  0.50439713  0.74457856  1
  V  V73  1  0.50090384  0.50284905  0.00053096  1
  V  V74  1  0.62260712  0.25111560  0.88066564  1
  V  V75  1  0.86762039  0.61834311  0.25504802  1
  V  V76  1  -0.00278555  0.00599231  0.00152565  1
  V  V77  1  0.63971913  0.63316507  0.49127883  1
  V  V78  1  0.75063118  0.86488626  0.62034593  1
  V  V79  1  0.38018294  0.76211961  0.13942983  1
  V  V80  1  -0.00075232  -0.00675926  0.49912888  1
  V  V81  1  -0.00152039  0.87491073  0.87423988  1
  V  V82  1  0.11504095  0.37615623  0.24902262  1
  V  V83  1  0.63186387  0.38226230  0.25242489  1
  V  V84  1  0.48929724  0.74318435  0.75607784  1
  Zn  Zn85  1  0.74201735  -0.00483882  0.25712651  1
  Zn  Zn86  1  0.89026707  0.36204402  0.48998043  1
  Zn  Zn87  1  0.16203464  0.46467651  0.10107725  1
  Zn  Zn88  1  -0.00151032  0.24288778  0.25011079  1
  Zn  Zn89  1  0.50739191  0.75644398  0.25879610  1
  Zn  Zn90  1  0.87859300  0.11850916  0.24577829  1
  Zn  Zn91  1  0.37441906  0.25728688  0.12837967  1
  Zn  Zn92  1  0.86840330  0.24738468  0.61932978  1
  Zn  Zn93  1  0.37112646  0.38375495  0.49424203  1
  Zn  Zn94  1  0.38401976  0.86676692  0.49867878  1
  Zn  Zn95  1  0.49662030  0.51032954  0.49486055  1
  Zn  Zn96  1  0.25317553  0.37444575  0.62418317  1
  Zn  Zn97  1  0.50623698  0.13266842  0.12034997  1
  Zn  Zn98  1  0.00462164  0.49288685  0.48483679  1
  Zn  Zn99  1  0.00737538  0.37996723  0.87896621  1
  Zn  Zn100  1  0.88701597  0.50689494  0.87557697  1
  Zn  Zn101  1  0.12267477  0.87364915  0.74946993  1
  Zn  Zn102  1  0.86926806  0.73720460  0.61969788  1
  Zn  Zn103  1  0.87011143  0.86232609  0.49616105  1
  Zn  Zn104  1  0.11830376  0.61110412  -0.00227440  1
  Zn  Zn105  1  0.50383317  -0.00097905  0.50678317  1
  Zn  Zn106  1  0.75248695  0.37782221  0.12778070  1
  Zn  Zn107  1  0.18451072  0.19064333  0.18571963  1
  Zn  Zn108  1  0.18805266  0.18670887  0.68453182  1
  Zn  Zn109  1  0.19489151  0.67834517  0.19116980  1
  Zn  Zn110  1  0.18393909  0.68625148  0.68573482  1
  Zn  Zn111  1  0.69093998  0.18514402  0.19280461  1
  Zn  Zn112  1  0.68452070  0.19144192  0.69166761  1
  Zn  Zn113  1  0.68741767  0.69177952  0.19043234  1
  Zn  Zn114  1  0.68374015  0.68696145  0.69283257  1
  Zn  Zn115  1  0.31005027  0.31249161  0.31175831  1
  Zn  Zn116  1  0.31549763  0.31630510  0.81321807  1
  Zn  Zn117  1  0.32361803  0.81642758  0.30541199  1
  Zn  Zn118  1  0.31282836  0.81778660  0.80941394  1
  Zn  Zn119  1  0.80942745  0.30906192  0.31029642  1
  Zn  Zn120  1  0.81384066  0.31356786  0.81109212  1
  Zn  Zn121  1  0.81125581  0.80514829  0.31413624  1
  Zn  Zn122  1  0.81334996  0.81016190  0.81323992  1
  Zn  Zn123  1  0.18628495  0.43372320  0.43446508  1
  Zn  Zn124  1  0.18956603  0.43758181  0.92748765  1
  Zn  Zn125  1  0.19106011  0.93342277  0.43585629  1
  Zn  Zn126  1  0.18460905  0.94038704  0.93543317  1
  Zn  Zn127  1  0.68714010  0.44879362  0.43377666  1
  Zn  Zn128  1  0.69155594  0.43988675  0.93929063  1
  Zn  Zn129  1  0.68736618  0.94203531  0.44304361  1
  Zn  Zn130  1  0.68483694  0.93932972  0.94155535  1
  Zn  Zn131  1  0.31011678  0.06608876  0.06178463  1
  Zn  Zn132  1  0.30908154  0.05901859  0.55750311  1
  Zn  Zn133  1  0.31114359  0.56411771  0.06512556  1
  Zn  Zn134  1  0.31389445  0.56364995  0.55574235  1
  Zn  Zn135  1  0.80381851  0.06375727  0.06178499  1
  Zn  Zn136  1  0.81077404  0.05861151  0.55784760  1
  Zn  Zn137  1  0.81490042  0.56742051  0.06525081  1
  Zn  Zn138  1  0.81573633  0.55451590  0.55583920  1
  Zn  Zn139  1  0.44095955  0.44301376  0.19091024  1
  Zn  Zn140  1  0.43787294  0.44046219  0.67950576  1
  Zn  Zn141  1  0.43695693  0.93779018  0.18626247  1
  Zn  Zn142  1  0.46587025  0.90039527  0.65329165  1
  Zn  Zn143  1  0.93491723  0.43452623  0.18940109  1
  Zn  Zn144  1  0.94022123  0.43381581  0.68335262  1
  Zn  Zn145  1  0.93892875  0.93525306  0.18964675  1
  Zn  Zn146  1  0.93329602  0.93444036  0.69038725  1
  Zn  Zn147  1  0.05667149  0.06329426  0.31122185  1
  Zn  Zn148  1  0.06289225  0.06411969  0.81489796  1
  Zn  Zn149  1  0.05679338  0.56261316  0.30640646  1
  Zn  Zn150  1  0.06625946  0.55953694  0.81191181  1
  Zn  Zn151  1  0.56474103  0.06515319  0.31318017  1
  Zn  Zn152  1  0.56986697  0.05720773  0.81702982  1
  Zn  Zn153  1  0.56020767  0.56880802  0.31072018  1
  Zn  Zn154  1  0.56930745  0.56579207  0.81246004  1
  Zn  Zn155  1  0.44228179  0.18611113  0.43603697  1
  Zn  Zn156  1  0.43285274  0.19088243  0.93642728  1
  Zn  Zn157  1  0.44797907  0.69352557  0.43915666  1
  Zn  Zn158  1  0.43561684  0.69099230  0.94037108  1
  Zn  Zn159  1  0.93320535  0.18486695  0.44268340  1
  Zn  Zn160  1  0.93348781  0.19119284  0.93771186  1
  Zn  Zn161  1  0.93940858  0.68330903  0.43817911  1
  Zn  Zn162  1  0.93821227  0.68571892  0.94543088  1
  Zn  Zn163  1  0.06048214  0.31057154  0.06263332  1
  Zn  Zn164  1  0.06193768  0.31003921  0.56651160  1
  Zn  Zn165  1  0.06367439  0.81353805  0.05726187  1
  Zn  Zn166  1  0.06191942  0.80635158  0.56017634  1
  Zn  Zn167  1  0.56209540  0.31789394  0.06533073  1
  Zn  Zn168  1  0.56595633  0.31301876  0.56259628  1
  Zn  Zn169  1  0.56368613  0.81523717  0.06276351  1
  Zn  Zn170  1  0.57240944  0.80740003  0.56109340  1
  O  O171  1  0.12934157  0.11730303  0.11240865  1
  O  O172  1  0.11934589  0.11243239  0.61899473  1
  O  O173  1  0.11232560  0.62752150  0.12668852  1
  O  O174  1  0.11966538  0.61594816  0.61657167  1
  O  O175  1  0.62482032  0.10980731  0.12810144  1
  O  O176  1  0.63080989  0.13250408  0.61034350  1
  O  O177  1  0.61600830  0.62234174  0.12020694  1
  O  O178  1  0.62125209  0.62194712  0.61908018  1
  O  O179  1  0.39241139  0.36619229  0.37502543  1
  O  O180  1  0.38230171  0.38431291  0.88366088  1
  O  O181  1  0.36964056  0.89116300  0.38136216  1
  O  O182  1  0.38501996  0.88422096  0.87664671  1
  O  O183  1  0.87374669  0.38168689  0.37029825  1
  O  O184  1  0.87304145  0.37346249  0.89052606  1
  O  O185  1  0.88497521  0.87579594  0.37316070  1
  O  O186  1  0.87861179  0.88016190  0.88209174  1
  O  O187  1  0.25701888  0.00662721  0.36928251  1
  O  O188  1  0.25547083  0.00567943  0.86857815  1
  O  O189  1  0.25456984  0.49018130  0.36128351  1
  O  O190  1  0.25773744  0.51046888  0.86435310  1
  O  O191  1  0.75914055  0.00265250  0.37532642  1
  O  O192  1  0.75211345  0.00815752  0.87241633  1
  O  O193  1  0.76878237  0.50387682  0.37536399  1
  O  O194  1  0.75338581  0.50818845  0.86730447  1
  O  O195  1  0.25580099  0.50643524  0.14518433  1
  O  O196  1  0.24192202  0.50091687  0.62928058  1
  O  O197  1  0.23800781  0.99672636  0.12739809  1
  O  O198  1  0.24071345  0.99681023  0.62970563  1
  O  O199  1  0.73651932  0.50068804  0.11918480  1
  O  O200  1  0.74388787  0.49451509  0.63143218  1
  O  O201  1  0.73753306  0.99277649  0.12534033  1
  O  O202  1  0.75397003  0.99018284  0.63777397  1
  O  O203  1  0.01176056  0.36765690  0.24947309  1
  O  O204  1  0.00942439  0.36394674  0.74499629  1
  O  O205  1  0.01473750  0.87749110  0.25724597  1
  O  O206  1  0.00082917  0.86562766  0.75721312  1
  O  O207  1  0.50766307  0.37054747  0.25952294  1
  O  O208  1  0.50554378  0.37050533  0.75386799  1
  O  O209  1  0.42874683  0.83533397  0.23210386  1
  O  O210  1  0.50807943  0.86351334  0.75362049  1
  O  O211  1  0.49431762  0.13508905  0.24960648  1
  O  O212  1  0.49839213  0.13105166  0.75613023  1
  O  O213  1  0.48186757  0.62855804  0.24489944  1
  O  O214  1  0.50628690  0.63739978  0.74616218  1
  O  O215  1  0.99279916  0.12863248  0.25029148  1
  O  O216  1  0.99368732  0.12800422  0.74615557  1
  O  O217  1  0.98893595  0.62436638  0.23260785  1
  O  O218  1  1.01120627  0.63350309  0.73984223  1
  O  O219  1  0.36865835  0.26131297  0.00314757  1
  O  O220  1  0.37027101  0.24724188  0.50676352  1
  O  O221  1  0.36827693  0.76012675  0.00833956  1
  O  O222  1  0.36191897  0.74893155  0.49454664  1
  O  O223  1  0.86575989  0.25608871  0.00896723  1
  O  O224  1  0.87242403  0.25113224  0.50625160  1
  O  O225  1  0.86795364  0.75597307  0.01179291  1
  O  O226  1  0.88712854  0.75182288  0.50801943  1
  O  O227  1  0.13315057  0.24269624  0.49562613  1
  O  O228  1  0.13225432  0.24292873  1.00183627  1
  O  O229  1  0.13300169  0.74180031  0.49071077  1
  O  O230  1  0.13246844  0.74967460  0.98829463  1
  O  O231  1  0.62190151  0.24242709  0.48856565  1
  O  O232  1  0.63042578  0.25762965  0.99294847  1
  O  O233  1  0.62764988  0.74064495  0.48885800  1
  O  O234  1  0.63405044  0.74232593  1.00545247  1
  O  O235  1  0.49949287  0.25098089  0.13733586  1
  O  O236  1  0.49450897  0.25176981  0.63337479  1
  O  O237  1  0.49881373  0.74270351  0.12602600  1
  O  O238  1  0.50662126  0.73945615  0.63997041  1
  O  O239  1  0.98324400  0.24747498  0.12235616  1
  O  O240  1  1.00042172  0.23469709  0.63445745  1
  O  O241  1  0.98745484  0.75801066  0.12382326  1
  O  O242  1  1.00538344  0.73984686  0.63603546  1
  O  O243  1  0.01296028  0.24245648  0.37796306  1
  O  O244  1  -0.00544829  0.25180702  0.85964052  1
  O  O245  1  0.01424236  0.75966198  0.37711477  1
  O  O246  1  0.00634291  0.75059508  0.87115483  1
  O  O247  1  0.50904994  0.25674907  0.36562490  1
  O  O248  1  0.50289069  0.25704851  0.86972428  1
  O  O249  1  0.51997429  0.75054503  0.37478221  1
  O  O250  1  0.49675443  0.75762409  0.86656365  1
  O  O251  1  0.24469860  0.13278629  0.49456353  1
  O  O252  1  0.24379286  0.13392956  0.99219590  1
  O  O253  1  0.23814430  0.63343883  0.50469106  1
  O  O254  1  0.25061086  0.63890977  0.99397796  1
  O  O255  1  0.73847415  0.11780195  0.48860800  1
  O  O256  1  0.75105906  0.13904659  0.99059351  1
  O  O257  1  0.73720996  0.62268697  0.50709232  1
  O  O258  1  0.74327910  0.63379548  0.99877569  1
  O  O259  1  0.25907915  0.36697794  -0.00739899  1
  O  O260  1  0.25150447  0.36051603  0.50022614  1
  O  O261  1  0.25105179  0.86586930  -0.00080055  1
  O  O262  1  0.25091956  0.86668003  0.50862754  1
  O  O263  1  0.75667118  0.36429520  0.00189327  1
  O  O264  1  0.74414947  0.38128871  0.51276249  1
  O  O265  1  0.75446129  0.86962799  0.00645761  1
  O  O266  1  0.74910408  0.87825209  0.51810081  1
  O  O267  1  0.13297136  0.48424596  0.25449159  1
  O  O268  1  0.13889676  0.49290798  0.74180298  1
  O  O269  1  0.12910502  0.99500037  0.24188195  1
  O  O270  1  0.12662826  0.99800151  0.74111346  1
  O  O271  1  0.61749626  0.49534138  0.24152162  1
  O  O272  1  0.63331858  0.49768058  0.74119748  1
  O  O273  1  0.62119378  0.99719549  0.23703531  1
  O  O274  1  0.63444384  0.98508320  0.75647901  1
  O  O275  1  0.37106944  0.00666432  0.25909264  1
  O  O276  1  0.37230432  0.01256997  0.75277216  1
  O  O277  1  0.36828954  0.50883735  0.25202120  1
  O  O278  1  0.36394215  0.49485660  0.75199152  1
  O  O279  1  0.87429533  -0.00359310  0.26284191  1
  O  O280  1  0.86549492  0.00535568  0.75872222  1
  O  O281  1  0.87472393  0.50873218  0.25544866  1
  O  O282  1  0.86411280  0.49515951  0.75036551  1
  O  O283  1  0.12884316  0.36293969  0.36302518  1
  O  O284  1  0.12643632  0.37202093  0.85768015  1
  O  O285  1  0.12137706  0.86934682  0.36531409  1
  O  O286  1  0.11613958  0.86746453  0.87524447  1
  O  O287  1  0.61999859  0.37041783  0.37069033  1
  O  O288  1  0.61926435  0.37320620  0.87017113  1
  O  O289  1  0.62622391  0.87192370  0.37722975  1
  O  O290  1  0.61184437  0.87908110  0.87245958  1
  O  O291  1  0.37867989  0.12297194  0.13818779  1
  O  O292  1  0.37315003  0.13130231  0.62923036  1
  O  O293  1  0.38724913  0.63550778  0.11945738  1
  O  O294  1  0.39125344  0.62609548  0.62540694  1
  O  O295  1  0.86580826  0.13848324  0.12349533  1
  O  O296  1  0.87910043  0.11929220  0.63177093  1
  O  O297  1  0.88641015  0.63490346  0.12690372  1
  O  O298  1  0.89199675  0.61684896  0.62030022  1
  O  O299  1  0.25559099  0.24546572  0.11119719  1
  O  O300  1  0.26036367  0.24772012  0.61634869  1
  O  O301  1  0.25247870  0.75694888  0.11682353  1
  O  O302  1  0.23960019  0.75958296  0.61565668  1
  O  O303  1  0.75272841  0.25208533  0.11788546  1
  O  O304  1  0.74522460  0.26965747  0.63244392  1
  O  O305  1  0.75592711  0.75707369  0.11621181  1
  O  O306  1  0.75276910  0.76079933  0.63563939  1
  O  O307  1  0.24524184  0.24240410  0.38212763  1
  O  O308  1  0.25695245  0.24131915  0.88245349  1
  O  O309  1  0.24012165  0.76001043  0.38326357  1
  O  O310  1  0.24568155  0.74716611  0.87817892  1
  O  O311  1  0.74073496  0.24035584  0.37112512  1
  O  O312  1  0.74312003  0.24458651  0.87958440  1
  O  O313  1  0.73283639  0.75192850  0.37435644  1
  O  O314  1  0.75499110  0.74463479  0.88909924  1
  O  O315  1  0.00812645  0.11978386  -0.00876063  1
  O  O316  1  0.00531294  0.11305428  0.50622373  1
  O  O317  1  0.00289072  0.63057752  0.02039977  1
  O  O318  1  0.01465035  0.61952816  0.50742167  1
  O  O319  1  0.49300773  0.11400918  0.00176368  1
  O  O320  1  0.51638960  0.12203126  0.49613969  1
  O  O321  1  0.50741735  0.62356754  0.00506331  1
  O  O322  1  0.50947452  0.62992392  0.51595529  1
  O  O323  1  0.50380003  0.37289982  0.48411033  1
  O  O324  1  0.49438707  0.38403030  0.99404338  1
  O  O325  1  0.49238911  0.88507878  0.53759033  1
  O  O326  1  0.49440959  0.88173019  0.99188178  1
  O  O327  1  1.00140680  0.38248613  0.51066056  1
  O  O328  1  0.98436338  0.36659025  0.99711239  1
  O  O329  1  1.00499256  0.87999759  0.49061949  1
  O  O330  1  0.99281573  0.88344564  0.99375240  1
  O  O331  1  0.50491776  0.48569047  0.37440367  1
  O  O332  1  0.49619072  0.49994044  0.87848547  1
  O  O333  1  0.48793752  1.00033844  0.37251385  1
  O  O334  1  0.49574064  0.99503898  0.88295384  1
  O  O335  1  0.97934214  0.50963221  0.37116291  1
  O  O336  1  0.99840698  0.49358252  0.86818522  1
  O  O337  1  0.99565451  0.98808804  0.38074544  1
  O  O338  1  0.99117068  0.99570821  0.87980671  1
  O  O339  1  0.01038962  -0.00501862  0.11863948  1
  O  O340  1  0.00481958  0.00149219  0.62149763  1
  O  O341  1  0.00260121  0.50582070  0.12632044  1
  O  O342  1  0.01534266  0.50568370  0.63041882  1
  O  O343  1  0.50857412  -0.00125603  0.11955320  1
  O  O344  1  0.48913829  0.01649972  0.64067353  1
  O  O345  1  0.50627829  0.51182797  0.11997089  1
  O  O346  1  0.51108364  0.51708812  0.63288327  1
  O  O347  1  0.24355897  0.38076132  0.24861290  1
  O  O348  1  0.24615430  0.38158563  0.74714886  1
  O  O349  1  0.24138862  0.88341669  0.24287567  1
  O  O350  1  0.24452221  0.88414282  0.74413843  1
  O  O351  1  0.73512252  0.37344380  0.24752940  1
  O  O352  1  0.74322339  0.38452743  0.74690874  1
  O  O353  1  0.75523074  0.87591012  0.23690624  1
  O  O354  1  0.74506146  0.87983145  0.74900200  1
  O  O355  1  0.25690656  0.12102061  0.25253797  1
  O  O356  1  0.24216753  0.11960736  0.76088137  1
  O  O357  1  0.25492752  0.60575832  0.26083595  1
  O  O358  1  0.24735932  0.61831883  0.75655122  1
  O  O359  1  0.75426001  0.11761799  0.26386543  1
  O  O360  1  0.75042924  0.11722858  0.75494013  1
  O  O361  1  0.76966776  0.62550626  0.23505891  1
  O  O362  1  0.74420584  0.61732711  0.76235041  1
  O  O363  1  0.37174300  0.11867969  0.36448752  1
  O  O364  1  0.36293923  0.11883576  0.87953180  1
  O  O365  1  0.37887959  0.62479344  0.37181729  1
  O  O366  1  0.36339952  0.62279439  0.87921470  1
  O  O367  1  0.86818997  0.11263509  0.37745511  1
  O  O368  1  0.86174084  0.12339945  0.86869403  1
  O  O369  1  0.87713930  0.63068674  0.35620803  1
  O  O370  1  0.86124073  0.62373654  0.88611544  1
  O  O371  1  0.12452995  0.36531359  0.14195902  1
  O  O372  1  0.13163576  0.38196730  0.63346438  1
  O  O373  1  0.12779736  0.88146441  0.12947629  1
  O  O374  1  0.12980188  0.88517377  0.62393198  1
  O  O375  1  0.62321123  0.38810335  0.13441375  1
  O  O376  1  0.63131437  0.38596018  0.62927148  1
  O  O377  1  0.63289487  0.88571108  0.12187933  1
  O  O378  1  0.63916051  0.87039653  0.63762755  1
  O  O379  1  0.12549674  0.25734916  0.25924905  1
  O  O380  1  0.11691870  0.25682860  0.74202626  1
  O  O381  1  0.13612292  0.75823545  0.25590318  1
  O  O382  1  0.12053072  0.75204910  0.76297573  1
  O  O383  1  0.61917555  0.25746283  0.25716711  1
  O  O384  1  0.61350138  0.25668695  0.75828698  1
  O  O385  1  0.62294338  0.75041225  0.26298033  1
  O  O386  1  0.61796544  0.75957478  0.75778077  1
  O  O387  1  0.38257172  0.24334253  0.24913476  1
  O  O388  1  0.38771727  0.25307523  0.74397376  1
  O  O389  1  0.34335344  0.71928192  0.24375989  1
  O  O390  1  0.39035558  0.75369968  0.75238805  1
  O  O391  1  0.87299496  0.25128365  0.23316279  1
  O  O392  1  0.88012566  0.24248489  0.74293293  1
  O  O393  1  0.87326852  0.74352773  0.23561041  1
  O  O394  1  0.88757663  0.74769265  0.74846506  1
  O  O395  1  0.38617274  0.49401751  0.51123477  1
  O  O396  1  0.37970988  0.49729783  0.99327239  1
  O  O397  1  0.37964325  1.00479411  0.48571342  1
  O  O398  1  0.38043819  0.99599225  0.99546742  1
  O  O399  1  0.87918600  0.49301829  0.48423508  1
  O  O400  1  0.86745804  0.48441009  1.00145375  1
  O  O401  1  0.88120157  0.99001925  0.48943707  1
  O  O402  1  0.87649327  0.99703330  0.99674950  1
  O  O403  1  0.11909847  0.00781488  0.00698905  1
  O  O404  1  0.12133787  0.00249885  0.50578820  1
  O  O405  1  0.13423915  0.49877842  0.00114829  1
  O  O406  1  0.12858541  0.50548058  0.50525391  1
  O  O407  1  0.61354934  -0.00230735  0.01175528  1
  O  O408  1  0.62090291  0.01388640  0.50271978  1
  O  O409  1  0.61921577  0.50821069  0.00760823  1
  O  O410  1  0.61932824  0.51014966  0.51024780  1
  O  O411  1  0.38348348  0.37909642  0.11163878  1
  O  O412  1  0.37435077  0.36158006  0.62158136  1
  O  O413  1  0.36058658  0.88139820  0.10950924  1
  O  O414  1  0.35630811  0.87977935  0.62610880  1
  O  O415  1  0.87183244  0.36637990  0.11547975  1
  O  O416  1  0.85828360  0.37747046  0.62364862  1
  O  O417  1  0.86902897  0.86650156  0.12204072  1
  O  O418  1  0.85954839  0.87227153  0.62866140  1
  O  O419  1  0.13220225  0.12809918  0.38056721  1
  O  O420  1  0.13561094  0.11916774  0.88769799  1
  O  O421  1  0.11978542  0.63328026  0.37954618  1
  O  O422  1  0.13780327  0.63268335  0.87739290  1
  O  O423  1  0.63204353  0.13286486  0.37961474  1
  O  O424  1  0.63621407  0.13275501  0.87213035  1
  O  O425  1  0.62394829  0.61957715  0.39092651  1
  O  O426  1  0.63609654  0.62077003  0.89075979  1
