# generated using pymatgen
data_V85Zn86O256
_symmetry_space_group_name_H-M   'P 1'
_cell_length_a   16.97359343
_cell_length_b   16.98673575
_cell_length_c   16.98661942
_cell_angle_alpha   90.07374338
_cell_angle_beta   89.97286287
_cell_angle_gamma   89.87721799
_symmetry_Int_Tables_number   1
_chemical_formula_structural   V85Zn86O256
_chemical_formula_sum   'V85 Zn86 O256'
_cell_volume   4897.66726164
_cell_formula_units_Z   1
loop_
 _symmetry_equiv_pos_site_id
 _symmetry_equiv_pos_as_xyz
  1  'x, y, z'
loop_
 _atom_site_type_symbol
 _atom_site_label
 _atom_site_symmetry_multiplicity
 _atom_site_fract_x
 _atom_site_fract_y
 _atom_site_fract_z
 _atom_site_occupancy
  V  V0  1  0.24929434  0.50479280  0.25198940  1
  V  V1  1  0.62823244  0.37632308  0.74816801  1
  V  V2  1  0.75118051  0.87753218  0.12187196  1
  V  V3  1  0.62024244  0.86896100  0.24841979  1
  V  V4  1  0.13202211  0.62572640  0.00020849  1
  V  V5  1  0.24850587  0.37412645  0.62995613  1
  V  V6  1  0.12367048  0.00575855  0.63199743  1
  V  V7  1  0.24737252  0.50117427  0.75135372  1
  V  V8  1  0.49713667  0.25217767  0.74366317  1
  V  V9  1  0.37230358  0.12997689  0.75016419  1
  V  V10  1  0.87706716  0.74308207  0.62271356  1
  V  V11  1  0.24652390  0.00917553  0.75432308  1
  V  V12  1  0.37782927  0.49828660  0.37568055  1
  V  V13  1  0.25365518  0.24955456  0.50388349  1
  V  V14  1  0.48922364  0.75225940  0.74402539  1
  V  V15  1  -0.00259701  0.87859809  0.37666825  1
  V  V16  1  0.37027733  0.00278884  0.87990880  1
  V  V17  1  0.25453131  0.11698606  0.38050627  1
  V  V18  1  0.87849139  0.37391055  0.00262345  1
  V  V19  1  0.87992056  -0.00187900  0.87292491  1
  V  V20  1  0.37696554  0.25058724  0.12622797  1
  V  V21  1  0.75157828  0.24996305  0.00102670  1
  V  V22  1  0.37833400  0.37158716  0.50702063  1
  V  V23  1  0.75450403  0.74819334  -0.00253135  1
  V  V24  1  0.13004945  0.74694514  0.87955915  1
  V  V25  1  0.00257472  0.50078624  0.00047449  1
  V  V26  1  0.87752729  0.49920077  0.87466820  1
  V  V27  1  0.12521153  0.50178026  0.12667253  1
  V  V28  1  0.37553153  0.37661843  0.00169747  1
  V  V29  1  0.62329846  0.12448643  -0.00242990  1
  V  V30  1  0.25323176  0.62537764  0.39030041  1
  V  V31  1  -0.00168005  0.74339953  0.74795175  1
  V  V32  1  0.75460862  0.37366046  0.13064112  1
  V  V33  1  0.50027232  0.12645755  0.62077060  1
  V  V34  1  0.24877747  0.24267935  -0.00395595  1
  V  V35  1  0.75091317  0.49559558  0.74524041  1
  V  V36  1  0.13125784  0.75251225  0.38176621  1
  V  V37  1  0.62450523  0.74965773  0.87253653  1
  V  V38  1  0.50131316  0.37813347  0.87544509  1
  V  V39  1  0.50488299  0.37236180  0.37744851  1
  V  V40  1  0.24606170  -0.00181361  0.24729502  1
  V  V41  1  0.10482964  0.62078773  0.50203642  1
  V  V42  1  0.86881210  0.88050208  0.49556084  1
  V  V43  1  0.25457497  0.87269374  0.12536702  1
  V  V44  1  0.12447602  0.37464335  0.25131803  1
  V  V45  1  0.75549325  0.51296072  0.25500435  1
  V  V46  1  0.38845322  0.62841390  0.24848171  1
  V  V47  1  0.37458701  0.11899295  0.25365262  1
  V  V48  1  0.16390745  0.83744884  0.70544329  1
  V  V49  1  0.50171589  0.24963371  0.25262124  1
  V  V50  1  0.88552152  0.12919666  0.74337124  1
  V  V51  1  0.87463125  0.74313498  0.13624598  1
  V  V52  1  0.11806194  0.11281854  0.00395970  1
  V  V53  1  0.37211845  0.50770343  0.87462390  1
  V  V54  1  0.75194732  0.12358798  0.87167862  1
  V  V55  1  0.75150164  0.62338086  0.87237687  1
  V  V56  1  0.88012475  0.12059738  0.26683846  1
  V  V57  1  0.38457307  0.74753822  0.12761422  1
  V  V58  1  0.12419162  0.87581026  0.24925182  1
  V  V59  1  0.50055704  0.12452681  0.12271234  1
  V  V60  1  0.88313537  0.23505581  0.12447741  1
  V  V61  1  0.62303530  0.87472310  0.74866039  1
  V  V62  1  0.11860263  0.12598869  0.50357645  1
  V  V63  1  0.74789368  0.87185535  0.62327505  1
  V  V64  1  0.62553047  0.25068204  0.87373830  1
  V  V65  1  0.49499755  0.62582291  0.62223056  1
  V  V66  1  0.75018128  0.23995747  0.50712053  1
  V  V67  1  0.62850537  0.49809872  0.62149455  1
  V  V68  1  0.00564732  0.87359487  0.87181880  1
  V  V69  1  0.25472858  0.75038355  0.00112983  1
  V  V70  1  0.62650257  -0.00008572  0.12068290  1
  V  V71  1  0.62158222  0.50028009  0.12625023  1
  V  V72  1  0.49489464  0.87789002  0.87901135  1
  V  V73  1  0.61943527  0.62435560  0.00335030  1
  V  V74  1  0.75091209  0.00435314  0.26447635  1
  V  V75  1  0.01125638  0.36815877  0.86841479  1
  V  V76  1  0.11239898  0.49540591  0.62316924  1
  V  V77  1  0.87146231  0.38014025  0.50150874  1
  V  V78  1  0.88111075  0.51040814  0.37315900  1
  V  V79  1  0.74751808  0.74599674  0.48803034  1
  V  V80  1  0.62204854  0.00382479  0.62149310  1
  V  V81  1  0.61462723  0.74162093  0.36840586  1
  V  V82  1  0.63586259  0.23732670  0.37680004  1
  V  V83  1  0.12351389  0.25014115  0.37563170  1
  V  V84  1  -0.00484551  0.00257562  0.50644766  1
  Zn  Zn85  1  0.25213879  0.37535698  0.12774825  1
  Zn  Zn86  1  0.62754172  0.62147252  0.49523723  1
  Zn  Zn87  1  0.29759739  0.79697853  0.57658709  1
  Zn  Zn88  1  0.50410529  0.50059951  0.49918874  1
  Zn  Zn89  1  0.49016801  0.00476355  0.48899894  1
  Zn  Zn90  1  -0.00450011  0.00460586  0.01290862  1
  Zn  Zn91  1  0.37199582  0.62772934  0.75004337  1
  Zn  Zn92  1  -0.00259414  0.62359673  0.13054750  1
  Zn  Zn93  1  0.75276521  -0.00183705  0.74931959  1
  Zn  Zn94  1  0.49704916  0.50486131  0.00465630  1
  Zn  Zn95  1  0.49294915  -0.00265532  0.00114457  1
  Zn  Zn96  1  0.37301125  0.88366997  0.48875815  1
  Zn  Zn97  1  0.87565809  0.25648093  0.62576906  1
  Zn  Zn98  1  0.00734193  0.23946895  0.24399549  1
  Zn  Zn99  1  -0.00309905  0.74429934  0.25798214  1
  Zn  Zn100  1  0.49429875  0.87985640  0.37171324  1
  Zn  Zn101  1  0.14030591  0.24498813  0.86455829  1
  Zn  Zn102  1  0.88008787  0.61911557  0.74164195  1
  Zn  Zn103  1  0.01660309  0.25055537  0.73507162  1
  Zn  Zn104  1  0.62963323  0.37398070  0.25267500  1
  Zn  Zn105  1  -0.00125759  0.37795757  0.37681649  1
  Zn  Zn106  1  0.87598964  0.87473637  -0.00303756  1
  Zn  Zn107  1  0.19096944  0.18750135  0.18332890  1
  Zn  Zn108  1  0.18791195  0.18781278  0.68485066  1
  Zn  Zn109  1  0.18588113  0.68949983  0.19065730  1
  Zn  Zn110  1  0.17973703  0.66563682  0.69035560  1
  Zn  Zn111  1  0.69123267  0.18609747  0.19004570  1
  Zn  Zn112  1  0.68939464  0.18756952  0.68737097  1
  Zn  Zn113  1  0.68757619  0.68617242  0.18513145  1
  Zn  Zn114  1  0.68560296  0.68476373  0.68491792  1
  Zn  Zn115  1  0.31222808  0.31048146  0.31625865  1
  Zn  Zn116  1  0.31584713  0.31696429  0.81312909  1
  Zn  Zn117  1  0.31603589  0.80874302  0.32461060  1
  Zn  Zn118  1  0.31294832  0.81527088  0.81762370  1
  Zn  Zn119  1  0.81726284  0.31186336  0.31437884  1
  Zn  Zn120  1  0.81551197  0.31348726  0.81332602  1
  Zn  Zn121  1  0.80821510  0.81912519  0.31349297  1
  Zn  Zn122  1  0.81382440  0.81192462  0.80917756  1
  Zn  Zn123  1  0.18707508  0.43833852  0.44077051  1
  Zn  Zn124  1  0.19122045  0.43552550  0.93906825  1
  Zn  Zn125  1  0.19101434  0.93915224  0.44324359  1
  Zn  Zn126  1  0.18943950  0.93289638  0.93682388  1
  Zn  Zn127  1  0.69301795  0.43320176  0.43727641  1
  Zn  Zn128  1  0.69005215  0.43767563  0.93889482  1
  Zn  Zn129  1  0.64899784  0.95145887  0.42289265  1
  Zn  Zn130  1  0.68754979  0.93815097  0.93502442  1
  Zn  Zn131  1  0.30949486  0.06255851  0.06589697  1
  Zn  Zn132  1  0.31344510  0.05453285  0.57003604  1
  Zn  Zn133  1  0.31219988  0.56431544  0.06632005  1
  Zn  Zn134  1  0.31572373  0.55680874  0.56516228  1
  Zn  Zn135  1  0.81287680  0.06059082  0.05803056  1
  Zn  Zn136  1  0.80789321  0.05997781  0.56298937  1
  Zn  Zn137  1  0.80970179  0.56181647  0.06259792  1
  Zn  Zn138  1  0.81247862  0.56190901  0.55885025  1
  Zn  Zn139  1  0.43969452  0.43770299  0.19075778  1
  Zn  Zn140  1  0.43855504  0.44032255  0.68676681  1
  Zn  Zn141  1  0.43509716  0.93739295  0.18916920  1
  Zn  Zn142  1  0.42824344  0.93939313  0.67949882  1
  Zn  Zn143  1  0.93963739  0.43620211  0.19063222  1
  Zn  Zn144  1  0.93392186  0.43108388  0.68673234  1
  Zn  Zn145  1  0.93283833  0.93860631  0.19215555  1
  Zn  Zn146  1  0.94090895  0.93255743  0.68827332  1
  Zn  Zn147  1  0.06253936  0.05859940  0.31664172  1
  Zn  Zn148  1  0.06606563  0.06863460  0.82275749  1
  Zn  Zn149  1  0.06037661  0.56751943  0.31190394  1
  Zn  Zn150  1  0.06453160  0.56215685  0.81151010  1
  Zn  Zn151  1  0.56486077  0.06333631  0.30531800  1
  Zn  Zn152  1  0.56002176  0.06159573  0.80830777  1
  Zn  Zn153  1  0.56712809  0.55919266  0.31334931  1
  Zn  Zn154  1  0.56059185  0.56451805  0.81177707  1
  Zn  Zn155  1  0.43785246  0.18757009  0.43844276  1
  Zn  Zn156  1  0.43663678  0.18799944  0.93363473  1
  Zn  Zn157  1  0.43564772  0.69211215  0.44561485  1
  Zn  Zn158  1  0.43781270  0.69060628  0.93760604  1
  Zn  Zn159  1  0.93879549  0.19271580  0.44106505  1
  Zn  Zn160  1  0.94188817  0.18566997  0.93706322  1
  Zn  Zn161  1  0.93392834  0.69157136  0.43416254  1
  Zn  Zn162  1  0.94230282  0.68544016  0.93909947  1
  Zn  Zn163  1  0.06447508  0.31336438  0.06324264  1
  Zn  Zn164  1  0.05538455  0.31515572  0.56217464  1
  Zn  Zn165  1  0.04278163  0.84748149  0.08138261  1
  Zn  Zn166  1  0.05884316  0.80853746  0.55691991  1
  Zn  Zn167  1  0.56395000  0.31410077  0.06363826  1
  Zn  Zn168  1  0.56968163  0.31193283  0.56234418  1
  Zn  Zn169  1  0.56457408  0.81214175  0.05901071  1
  Zn  Zn170  1  0.55270896  0.81494583  0.56028789  1
  O  O171  1  0.13173327  0.13345569  0.10313039  1
  O  O172  1  0.12753293  0.11773944  0.61132071  1
  O  O173  1  0.12587350  0.61812270  0.11810085  1
  O  O174  1  0.12322957  0.61070263  0.60955455  1
  O  O175  1  0.62105560  0.12127474  0.11930616  1
  O  O176  1  0.61501872  0.11462531  0.64017443  1
  O  O177  1  0.63297397  0.61413899  0.11495582  1
  O  O178  1  0.61651350  0.61256257  0.62510865  1
  O  O179  1  0.38670631  0.37630811  0.38164279  1
  O  O180  1  0.38257666  0.38447863  0.88400368  1
  O  O181  1  0.38190303  0.88233008  0.36770544  1
  O  O182  1  0.38454952  0.88793650  0.86988271  1
  O  O183  1  0.87718152  0.38366363  0.37940610  1
  O  O184  1  0.88027980  0.38481132  0.88267374  1
  O  O185  1  0.88224811  0.87075467  0.38587280  1
  O  O186  1  0.88064911  0.88401496  0.87017609  1
  O  O187  1  0.24189308  0.01412239  0.36585909  1
  O  O188  1  0.25581544  -0.00352391  0.86466148  1
  O  O189  1  0.25740578  0.50509682  0.37071648  1
  O  O190  1  0.25884431  0.48839091  0.86316938  1
  O  O191  1  0.74162929  -0.00481225  0.36190891  1
  O  O192  1  0.75862859  0.00693654  0.87169873  1
  O  O193  1  0.75532797  0.49598936  0.35919092  1
  O  O194  1  0.75900105  0.50363320  0.86966903  1
  O  O195  1  0.24465156  0.49790913  0.13636459  1
  O  O196  1  0.24399093  0.49191036  0.63121622  1
  O  O197  1  0.25496134  0.99074820  0.13850638  1
  O  O198  1  0.23702775  1.00290381  0.64158063  1
  O  O199  1  0.74760309  0.49164807  0.13389278  1
  O  O200  1  0.74311856  0.50671248  0.63556495  1
  O  O201  1  0.74595524  0.99068623  0.12286817  1
  O  O202  1  0.74495577  0.98692935  0.62986943  1
  O  O203  1  0.01553605  0.37217105  0.25350695  1
  O  O204  1  -0.00700167  0.37270639  0.76684234  1
  O  O205  1  0.00626985  0.87091573  0.26181143  1
  O  O206  1  0.00267190  0.86181370  0.75943451  1
  O  O207  1  0.50268926  0.36684177  0.25965063  1
  O  O208  1  0.50486604  0.36917182  0.75456533  1
  O  O209  1  0.51832390  0.88168984  0.24681192  1
  O  O210  1  0.50642801  0.86898353  0.75699937  1
  O  O211  1  0.49292604  0.12948636  0.24458301  1
  O  O212  1  0.49481643  0.13558471  0.74542769  1
  O  O213  1  0.48639404  0.61832923  0.25333831  1
  O  O214  1  0.49886348  0.63554085  0.74371887  1
  O  O215  1  0.98560072  0.11879530  0.25276338  1
  O  O216  1  0.98699398  0.12905183  0.75922265  1
  O  O217  1  1.00439525  0.63292316  0.24308851  1
  O  O218  1  0.99802791  0.63763722  0.75315635  1
  O  O219  1  0.37076471  0.25640914  0.00486684  1
  O  O220  1  0.36504737  0.25954317  0.49391271  1
  O  O221  1  0.36175382  0.73956636  0.00867885  1
  O  O222  1  0.36367709  0.75816384  0.49211681  1
  O  O223  1  0.87086371  0.25212873  0.00695560  1
  O  O224  1  0.86325634  0.25761899  0.49770993  1
  O  O225  1  0.86275384  0.74852013  0.00132962  1
  O  O226  1  0.86472927  0.75718491  0.50418546  1
  O  O227  1  0.12963216  0.24414208  0.49299837  1
  O  O228  1  0.14319077  0.25602580  0.99934844  1
  O  O229  1  0.12108043  0.73317070  0.49486352  1
  O  O230  1  0.13513450  0.74080903  0.99545989  1
  O  O231  1  0.63984559  0.25424397  0.48951193  1
  O  O232  1  0.63167514  0.24516871  0.99394779  1
  O  O233  1  0.63488812  0.75110933  0.48620342  1
  O  O234  1  0.63637544  0.74305382  0.99550214  1
  O  O235  1  0.49690580  0.24519150  0.13253461  1
  O  O236  1  0.50956109  0.24529919  0.63747330  1
  O  O237  1  0.48359002  0.75702242  0.11603090  1
  O  O238  1  0.51141277  0.73895371  0.63521216  1
  O  O239  1  0.98837454  0.25569213  0.12775732  1
  O  O240  1  0.98955052  0.25399967  0.62600809  1
  O  O241  1  0.97981395  0.75563369  0.12365206  1
  O  O242  1  0.98875393  0.75662064  0.63314160  1
  O  O243  1  0.01493353  0.24833323  0.36934080  1
  O  O244  1  0.00020756  0.26461220  0.87692699  1
  O  O245  1  0.00832173  0.76161061  0.37948372  1
  O  O246  1  0.00566737  0.75293334  0.86696830  1
  O  O247  1  0.51064885  0.25429220  0.37248336  1
  O  O248  1  0.50716491  0.25749629  0.86637902  1
  O  O249  1  0.51421272  0.74857176  0.37443110  1
  O  O250  1  0.50505868  0.75760952  0.86791270  1
  O  O251  1  0.24441271  0.13167988  0.49542899  1
  O  O252  1  0.24982649  0.14018572  1.00248288  1
  O  O253  1  0.24944377  0.61796119  0.49150647  1
  O  O254  1  0.23910546  0.63034030  1.00465996  1
  O  O255  1  0.75719808  0.14044460  0.49925761  1
  O  O256  1  0.74537529  0.12904456  0.98801216  1
  O  O257  1  0.74624613  0.64355958  0.50694076  1
  O  O258  1  0.74225420  0.63011993  0.99247571  1
  O  O259  1  0.26422613  0.37009655  0.00447973  1
  O  O260  1  0.25838913  0.36864868  0.50540200  1
  O  O261  1  0.24484752  0.86452544  0.01432616  1
  O  O262  1  0.25256843  0.87082994  0.49899604  1
  O  O263  1  0.75809553  0.37070455  0.00967410  1
  O  O264  1  0.76333517  0.36161204  0.49155271  1
  O  O265  1  0.75003604  0.86556173  0.00421467  1
  O  O266  1  0.75491927  0.86492534  0.50675753  1
  O  O267  1  0.13254724  0.49360900  0.24970618  1
  O  O268  1  0.13251039  0.50540573  0.73468096  1
  O  O269  1  0.13366596  0.98961024  0.25522109  1
  O  O270  1  0.12825778  1.01147286  0.74196537  1
  O  O271  1  0.63848011  0.49686572  0.24390009  1
  O  O272  1  0.63271973  0.49588585  0.74581296  1
  O  O273  1  0.63878966  0.99532800  0.23851972  1
  O  O274  1  0.62702487  0.98598104  0.74712929  1
  O  O275  1  0.36841828  0.01406976  0.24747818  1
  O  O276  1  0.36496970  0.00790292  0.75617866  1
  O  O277  1  0.36858173  0.50773240  0.25433329  1
  O  O278  1  0.36828243  0.49872470  0.75892599  1
  O  O279  1  0.86277492  0.00873578  0.24908604  1
  O  O280  1  0.87672448  0.00844136  0.75826722  1
  O  O281  1  0.86487633  0.49539603  0.25940037  1
  O  O282  1  0.86862090  0.50001177  0.75621112  1
  O  O283  1  0.12546651  0.36720885  0.37069672  1
  O  O284  1  0.11297754  0.37409064  0.87883254  1
  O  O285  1  0.11980894  0.86691999  0.37246289  1
  O  O286  1  0.11878072  0.85950262  0.87812277  1
  O  O287  1  0.61481982  0.36875752  0.37484818  1
  O  O288  1  0.62052374  0.37151728  0.87077649  1
  O  O289  1  0.63209851  0.85572840  0.36123295  1
  O  O290  1  0.62063904  0.86948235  0.86645895  1
  O  O291  1  0.38054568  0.13125352  0.13246129  1
  O  O292  1  0.38505046  0.12237551  0.64165104  1
  O  O293  1  0.37261589  0.62963265  0.14051768  1
  O  O294  1  0.39024319  0.61798646  0.62834687  1
  O  O295  1  0.87072689  0.13270705  0.12650959  1
  O  O296  1  0.86865391  0.12105214  0.64350665  1
  O  O297  1  0.87341489  0.64061322  0.11818592  1
  O  O298  1  0.87038692  0.63896003  0.62280352  1
  O  O299  1  0.26138216  0.25458018  0.11533036  1
  O  O300  1  0.24568530  0.25845164  0.61031682  1
  O  O301  1  0.25814916  0.75377041  0.12068743  1
  O  O302  1  0.21972722  0.76358912  0.64934064  1
  O  O303  1  0.75732605  0.25600281  0.11991492  1
  O  O304  1  0.75218334  0.24859811  0.61198693  1
  O  O305  1  0.75659560  0.75453252  0.11677732  1
  O  O306  1  0.75182130  0.75857480  0.61833355  1
  O  O307  1  0.24100865  0.24222710  0.38358124  1
  O  O308  1  0.25676958  0.25844410  0.89262903  1
  O  O309  1  0.23735980  0.73734080  0.36946537  1
  O  O310  1  0.24263471  0.75460312  0.88624768  1
  O  O311  1  0.73922782  0.25166984  0.37808465  1
  O  O312  1  0.74652241  0.24354583  0.88135051  1
  O  O313  1  0.74967564  0.75043117  0.38592576  1
  O  O314  1  0.74625913  0.74497730  0.88008883  1
  O  O315  1  0.01133134  0.12032481  0.00173583  1
  O  O316  1  0.00762175  0.11553582  0.49264875  1
  O  O317  1  0.01166957  0.61781146  0.00528473  1
  O  O318  1  0.00717978  0.62346587  0.49669377  1
  O  O319  1  0.50659551  0.12580237  0.00512871  1
  O  O320  1  0.49688938  0.12901558  0.51733228  1
  O  O321  1  0.51574791  0.62503925  -0.00506434  1
  O  O322  1  0.50555278  0.62282211  0.50786155  1
  O  O323  1  0.49426080  0.37258492  0.49472601  1
  O  O324  1  0.49009758  0.37559397  0.99571638  1
  O  O325  1  0.50444035  0.88419055  0.49071507  1
  O  O326  1  0.50764993  0.87755065  0.98294136  1
  O  O327  1  0.97844463  0.36906619  0.49188017  1
  O  O328  1  0.99618340  0.38128636  0.99150330  1
  O  O329  1  0.98869779  0.88071816  0.49647081  1
  O  O330  1  0.99278380  0.86376573  0.97829924  1
  O  O331  1  0.49719952  0.48924237  0.37598304  1
  O  O332  1  0.49436283  0.49293471  0.87756416  1
  O  O333  1  0.54145932  0.99086693  0.38427855  1
  O  O334  1  0.49127952  0.99326532  0.87373523  1
  O  O335  1  0.98464196  0.49873081  0.36895179  1
  O  O336  1  0.99558094  0.49213324  0.87910218  1
  O  O337  1  1.00664534  0.98567904  0.38962390  1
  O  O338  1  0.99536000  0.99025544  0.87589917  1
  O  O339  1  0.00445095  -0.04661535  0.11119647  1
  O  O340  1  0.00518993  -0.00215555  0.61446087  1
  O  O341  1  0.00695422  0.49818107  0.11786320  1
  O  O342  1  0.01396459  0.49193085  0.63019388  1
  O  O343  1  0.50586429  0.00562531  0.12177516  1
  O  O344  1  0.50835120  0.01187676  0.63334293  1
  O  O345  1  0.51761732  0.49289758  0.12513230  1
  O  O346  1  0.50921440  0.50755213  0.62357645  1
  O  O347  1  0.24270020  0.38538016  0.25405100  1
  O  O348  1  0.25775681  0.37980294  0.73434543  1
  O  O349  1  0.24339393  0.88274298  0.25005049  1
  O  O350  1  0.23961949  0.88501173  0.75789795  1
  O  O351  1  0.75188861  0.37641873  0.23873374  1
  O  O352  1  0.74577359  0.38788009  0.75680431  1
  O  O353  1  0.74517017  0.88657784  0.24083592  1
  O  O354  1  0.74123399  0.87263323  0.74123309  1
  O  O355  1  0.25556101  0.11930247  0.25576503  1
  O  O356  1  0.25992363  0.12061713  0.74866869  1
  O  O357  1  0.25021048  0.61313886  0.26025305  1
  O  O358  1  0.25587051  0.60731368  0.74903687  1
  O  O359  1  0.75929835  0.11019834  0.24659210  1
  O  O360  1  0.75678642  0.12382781  0.76203672  1
  O  O361  1  0.75287376  0.61053446  0.24452287  1
  O  O362  1  0.75233584  0.61531550  0.75663740  1
  O  O363  1  0.36540923  0.13336751  0.36581275  1
  O  O364  1  0.38253541  0.11651772  0.86080418  1
  O  O365  1  0.36928895  0.62021615  0.36611422  1
  O  O366  1  0.38121426  0.61038045  0.87539689  1
  O  O367  1  0.87567214  0.12758371  0.36441891  1
  O  O368  1  0.86956952  0.11865660  0.86941919  1
  O  O369  1  0.87397463  0.60943289  0.38122668  1
  O  O370  1  0.87298460  0.61097178  0.87601971  1
  O  O371  1  0.12946261  0.38199683  0.13469191  1
  O  O372  1  0.13497836  0.38878354  0.61072642  1
  O  O373  1  0.14017118  0.86008123  0.14427673  1
  O  O374  1  0.11354649  0.88787097  0.62761634  1
  O  O375  1  0.63735714  0.38101427  0.12533371  1
  O  O376  1  0.62086283  0.38933399  0.63271574  1
  O  O377  1  0.63569095  0.87544033  0.12768547  1
  O  O378  1  0.62982399  0.87867463  0.63219276  1
  O  O379  1  0.12977079  0.25661036  0.25620138  1
  O  O380  1  0.12789415  0.24954764  0.75346917  1
  O  O381  1  0.12401922  0.75752688  0.26416126  1
  O  O382  1  0.11895519  0.74751664  0.75845323  1
  O  O383  1  0.62321384  0.25146886  0.26072798  1
  O  O384  1  0.62179943  0.25783043  0.75603812  1
  O  O385  1  0.63295289  0.75446107  0.25833914  1
  O  O386  1  0.61967909  0.75884222  0.75418010  1
  O  O387  1  0.37928087  0.24199924  0.24578080  1
  O  O388  1  0.38670577  0.24474486  0.75630408  1
  O  O389  1  0.36913114  0.73333617  0.24452643  1
  O  O390  1  0.38596712  0.74858856  0.75665672  1
  O  O391  1  0.87458100  0.23309747  0.24372692  1
  O  O392  1  0.87215214  0.23678735  0.74986052  1
  O  O393  1  0.86995662  0.75374238  0.23806310  1
  O  O394  1  0.88104821  0.74677504  0.74059225  1
  O  O395  1  0.37867401  0.48924516  0.49161454  1
  O  O396  1  0.37593024  0.49403451  0.99646151  1
  O  O397  1  0.37744177  1.00362995  0.49811137  1
  O  O398  1  0.37278304  1.00949967  0.98458817  1
  O  O399  1  0.86281906  0.49011461  0.48461156  1
  O  O400  1  0.88067189  0.49541876  0.99409175  1
  O  O401  1  0.87994029  0.98928090  0.50660997  1
  O  O402  1  0.87675077  0.99750125  0.98528486  1
  O  O403  1  0.12715997  0.01038130  -0.00208879  1
  O  O404  1  0.11768712  0.00861427  0.50806724  1
  O  O405  1  0.12413495  0.50584876  0.00491583  1
  O  O406  1  0.12539597  0.51027398  0.50812822  1
  O  O407  1  0.62350529  0.00777545  0.00350840  1
  O  O408  1  0.62897928  0.00364907  0.52126638  1
  O  O409  1  0.62698895  0.50744267  0.00805232  1
  O  O410  1  0.62836147  0.50040580  0.50729293  1
  O  O411  1  0.37764374  0.36984917  0.11883622  1
  O  O412  1  0.36850945  0.38087201  0.61257992  1
  O  O413  1  0.36247399  0.86407154  0.13655915  1
  O  O414  1  0.38181450  0.86543653  0.61579890  1
  O  O415  1  0.86998121  0.36761727  0.12145823  1
  O  O416  1  0.87094394  0.38028224  0.60701717  1
  O  O417  1  0.86017344  0.86370424  0.12174806  1
  O  O418  1  0.86572775  0.86627995  0.61900802  1
  O  O419  1  0.13242265  0.13073874  0.38416710  1
  O  O420  1  0.12600855  0.13308254  0.89624013  1
  O  O421  1  0.13121211  0.62730681  0.38831629  1
  O  O422  1  0.11995350  0.63658855  0.88449707  1
  O  O423  1  0.62501665  0.13994618  0.37199359  1
  O  O424  1  0.63270673  0.12920967  0.87611525  1
  O  O425  1  0.62667115  0.63680000  0.37387724  1
  O  O426  1  0.63145600  0.63114313  0.87977376  1
