# generated using pymatgen
data_V85Zn86O256
_symmetry_space_group_name_H-M   'P 1'
_cell_length_a   16.92988745
_cell_length_b   16.93159077
_cell_length_c   16.93089234
_cell_angle_alpha   89.93095235
_cell_angle_beta   89.92414102
_cell_angle_gamma   90.02540443
_symmetry_Int_Tables_number   1
_chemical_formula_structural   V85Zn86O256
_chemical_formula_sum   'V85 Zn86 O256'
_cell_volume   4853.23078103
_cell_formula_units_Z   1
loop_
 _symmetry_equiv_pos_site_id
 _symmetry_equiv_pos_as_xyz
  1  'x, y, z'
loop_
 _atom_site_type_symbol
 _atom_site_label
 _atom_site_symmetry_multiplicity
 _atom_site_fract_x
 _atom_site_fract_y
 _atom_site_fract_z
 _atom_site_occupancy
  V  V0  1  0.87435852  0.50193113  0.37663079  1
  V  V1  1  0.25191989  0.50365171  0.25128611  1
  V  V2  1  0.75794242  0.50318034  0.74979487  1
  V  V3  1  0.23130979  0.50652289  0.73871102  1
  V  V4  1  0.87315396  0.73828576  0.63225345  1
  V  V5  1  0.00773019  0.74919774  0.75595753  1
  V  V6  1  0.36260878  0.50674611  0.85515565  1
  V  V7  1  0.12619592  0.50451753  0.12492063  1
  V  V8  1  0.26500289  0.75245516  -0.00323124  1
  V  V9  1  0.12497718  -0.00385456  0.63844597  1
  V  V10  1  0.01317211  0.87605070  0.87235199  1
  V  V11  1  0.49889424  0.63832116  0.12820478  1
  V  V12  1  0.62444663  0.12191390  0.49993035  1
  V  V13  1  0.87089039  0.75393625  0.12563188  1
  V  V14  1  0.01990964  0.37216982  0.87308873  1
  V  V15  1  0.74913717  0.24784563  0.50002368  1
  V  V16  1  0.37376888  0.12308139  0.24711415  1
  V  V17  1  0.62469689  0.50235347  0.12441691  1
  V  V18  1  0.37036778  0.11416035  0.75096560  1
  V  V19  1  -0.00090746  0.24133155  0.24597946  1
  V  V20  1  0.49595370  0.62425905  0.63313022  1
  V  V21  1  0.73752021  0.24792278  -0.00538679  1
  V  V22  1  0.62212684  -0.01157295  0.62791436  1
  V  V23  1  0.87542576  0.37463710  -0.00668542  1
  V  V24  1  0.49852931  -0.00296859  0.49967688  1
  V  V25  1  0.01419485  0.25409932  0.75198149  1
  V  V26  1  0.62348072  0.24688937  0.37406437  1
  V  V27  1  0.49915858  0.12338286  0.62649055  1
  V  V28  1  0.75468494  0.75365016  0.49810104  1
  V  V29  1  0.36491344  -0.00427821  0.88575816  1
  V  V30  1  0.49935434  0.86648469  0.37162455  1
  V  V31  1  0.87504090  0.87579917  0.00144290  1
  V  V32  1  0.87273250  0.12780731  0.75218356  1
  V  V33  1  0.24484193  0.62504626  0.38150120  1
  V  V34  1  0.62343468  -0.00129581  0.11247654  1
  V  V35  1  0.62552149  0.62560955  0.49848297  1
  V  V36  1  0.13162289  0.88231010  0.24893627  1
  V  V37  1  0.49962107  0.25140727  0.76669806  1
  V  V38  1  0.01304249  0.62364729  0.62441694  1
  V  V39  1  0.62315550  0.87112416  0.24593486  1
  V  V40  1  0.01248304  0.50348084  0.50338949  1
  V  V41  1  0.87689060  0.24098354  0.12142002  1
  V  V42  1  0.62065415  0.37089730  0.76413409  1
  V  V43  1  -0.00049531  0.75097782  0.25224824  1
  V  V44  1  0.36673637  -0.00054098  0.37186470  1
  V  V45  1  0.12545733  0.37508823  0.24970624  1
  V  V46  1  0.00061789  0.50136575  -0.00104604  1
  V  V47  1  0.75964434  0.87544676  0.62293644  1
  V  V48  1  0.00226723  0.62778368  0.12489850  1
  V  V49  1  0.37439266  0.50123207  0.37483629  1
  V  V50  1  0.75130554  0.37402675  0.12249468  1
  V  V51  1  0.37166792  0.74703608  0.63800186  1
  V  V52  1  0.74532903  0.37252455  0.62569418  1
  V  V53  1  0.62723477  0.62663704  -0.00289304  1
  V  V54  1  0.87219509  -0.00306274  0.37646042  1
  V  V55  1  0.49826831  0.50100272  0.50052800  1
  V  V56  1  0.87381404  0.25016495  0.62630093  1
  V  V57  1  -0.00132142  0.37448272  0.37347048  1
  V  V58  1  0.73481761  0.12912744  0.87573178  1
  V  V59  1  0.75117747  0.50180756  0.24945072  1
  V  V60  1  0.12990293  0.63819340  -0.01447937  1
  V  V61  1  0.37541822  0.25141603  0.62885654  1
  V  V62  1  0.74757534  -0.00362409  0.24499593  1
  V  V63  1  0.24380230  0.74810556  0.50603084  1
  V  V64  1  0.62315938  0.37473288  0.25027795  1
  V  V65  1  0.87403510  0.37543173  0.50100890  1
  V  V66  1  0.37334814  0.37453707  0.50123581  1
  V  V67  1  -0.00351503  0.87323876  0.38161099  1
  V  V68  1  0.00072767  0.12345534  0.62624180  1
  V  V69  1  0.74938451  0.75534015  -0.00122209  1
  V  V70  1  0.50653979  0.88562914  0.87278171  1
  V  V71  1  -0.00394320  -0.00336645  0.50324120  1
  V  V72  1  0.49620591  0.49644804  -0.00788778  1
  V  V73  1  0.50304973  0.12248636  0.11072800  1
  V  V74  1  0.87366113  -0.00019948  0.87623985  1
  V  V75  1  0.37856409  0.64004585  0.24849926  1
  V  V76  1  0.24467165  0.87739556  0.64242950  1
  V  V77  1  0.37221094  0.87419380  0.50395208  1
  V  V78  1  0.62550458  0.75335467  0.86302510  1
  V  V79  1  0.24424146  0.13463617  0.87664182  1
  V  V80  1  0.12742412  0.01106743  0.12099445  1
  V  V81  1  0.12382387  0.74873810  0.37836984  1
  V  V82  1  0.74527533  -0.00555918  0.75098263  1
  V  V83  1  0.24981290  0.24398610  0.49646910  1
  V  V84  1  0.25824416  0.37736236  0.12236281  1
  Zn  Zn85  1  0.23306474  0.37292992  0.63223503  1
  Zn  Zn86  1  0.11229197  0.13776134  -0.00394276  1
  Zn  Zn87  1  -0.00438468  0.00598090  0.00983114  1
  Zn  Zn88  1  0.49909410  0.75084827  0.75142876  1
  Zn  Zn89  1  0.75021725  0.12249763  0.37217463  1
  Zn  Zn90  1  0.75936828  0.63023847  0.86582697  1
  Zn  Zn91  1  0.24767835  0.25798032  -0.00495734  1
  Zn  Zn92  1  0.37804938  0.25186627  0.12388083  1
  Zn  Zn93  1  0.49797538  0.37421443  0.37317237  1
  Zn  Zn94  1  0.74954894  0.62760573  0.37403444  1
  Zn  Zn95  1  0.12525708  0.24413226  0.37248858  1
  Zn  Zn96  1  0.87996592  0.50393724  0.86677669  1
  Zn  Zn97  1  0.24590284  0.12047348  0.36589035  1
  Zn  Zn98  1  0.62400146  0.74912956  0.37091400  1
  Zn  Zn99  1  0.87405949  0.62594100  0.24986668  1
  Zn  Zn100  1  0.25996859  0.87164871  0.12871438  1
  Zn  Zn101  1  0.12538144  0.12077714  0.49657122  1
  Zn  Zn102  1  0.62249465  0.49758707  0.62584478  1
  Zn  Zn103  1  0.50126418  0.24624096  0.24718671  1
  Zn  Zn104  1  0.38674594  0.87341527  0.01317839  1
  Zn  Zn105  1  0.37976309  0.37377563  -0.01015805  1
  Zn  Zn106  1  0.87569867  0.11975958  0.24556875  1
  Zn  Zn107  1  0.19077966  0.19045209  0.18614545  1
  Zn  Zn108  1  0.19115824  0.18144189  0.68499501  1
  Zn  Zn109  1  0.19051910  0.69348611  0.18639464  1
  Zn  Zn110  1  0.18750010  0.68683461  0.69574753  1
  Zn  Zn111  1  0.68791485  0.18306094  0.18478813  1
  Zn  Zn112  1  0.68254498  0.18515853  0.68974368  1
  Zn  Zn113  1  0.68851203  0.68859562  0.18590395  1
  Zn  Zn114  1  0.68538474  0.68491307  0.68239898  1
  Zn  Zn115  1  0.31439820  0.30970782  0.30993123  1
  Zn  Zn116  1  0.31291906  0.32325577  0.81155744  1
  Zn  Zn117  1  0.31159895  0.81367618  0.31683501  1
  Zn  Zn118  1  0.30841851  0.80867715  0.82260968  1
  Zn  Zn119  1  0.81117846  0.31170008  0.31082475  1
  Zn  Zn120  1  0.81285098  0.31395985  0.81257629  1
  Zn  Zn121  1  0.81030801  0.81633971  0.31183339  1
  Zn  Zn122  1  0.81610217  0.81283198  0.81161597  1
  Zn  Zn123  1  0.18978216  0.43125536  0.43896845  1
  Zn  Zn124  1  0.19301972  0.44874281  0.93770452  1
  Zn  Zn125  1  0.18382228  0.93482655  0.44524730  1
  Zn  Zn126  1  0.19160348  0.93787583  0.94392618  1
  Zn  Zn127  1  0.68599679  0.43778008  0.43685730  1
  Zn  Zn128  1  0.68785876  0.43856318  0.93603021  1
  Zn  Zn129  1  0.68671592  0.93423250  0.43665661  1
  Zn  Zn130  1  0.68870509  0.93465920  0.93561725  1
  Zn  Zn131  1  0.30715688  0.05973885  0.06553083  1
  Zn  Zn132  1  0.31020557  0.05935161  0.56517685  1
  Zn  Zn133  1  0.31439838  0.56921759  0.06267622  1
  Zn  Zn134  1  0.30880807  0.56353199  0.56818425  1
  Zn  Zn135  1  0.80564123  0.06303006  0.06018497  1
  Zn  Zn136  1  0.81310929  0.06123326  0.56136319  1
  Zn  Zn137  1  0.81452978  0.56511661  0.05828801  1
  Zn  Zn138  1  0.81305588  0.56051054  0.56474523  1
  Zn  Zn139  1  0.44060564  0.44675288  0.18600063  1
  Zn  Zn140  1  0.43699474  0.43488062  0.68851757  1
  Zn  Zn141  1  0.43939901  0.93906048  0.18830724  1
  Zn  Zn142  1  0.43600498  0.93219838  0.69243659  1
  Zn  Zn143  1  0.93690300  0.43460389  0.18470844  1
  Zn  Zn144  1  1.05848069  0.43705982  0.68557494  1
  Zn  Zn145  1  0.94188555  0.93727048  0.18905259  1
  Zn  Zn146  1  0.93610397  0.93417775  0.69146554  1
  Zn  Zn147  1  0.06266012  0.06035077  0.31290459  1
  Zn  Zn148  1  0.05824942  0.06405571  0.81875447  1
  Zn  Zn149  1  0.06191068  0.56332609  0.31329881  1
  Zn  Zn150  1  0.05356391  0.56879555  0.81382885  1
  Zn  Zn151  1  0.55735820  0.05858550  0.30920807  1
  Zn  Zn152  1  0.55817050  0.06120249  0.81096910  1
  Zn  Zn153  1  0.56049699  0.56435557  0.31292264  1
  Zn  Zn154  1  0.56964377  0.56082213  0.81260336  1
  Zn  Zn155  1  0.43705411  0.18564590  0.43557716  1
  Zn  Zn156  1  0.42731450  0.18689408  0.94161189  1
  Zn  Zn157  1  0.43200090  0.68747026  0.44347437  1
  Zn  Zn158  1  0.44218384  0.68430954  0.93364292  1
  Zn  Zn159  1  0.93753846  0.18356045  0.43495518  1
  Zn  Zn160  1  0.93513977  0.19025340  0.93501098  1
  Zn  Zn161  1  0.93421430  0.68592620  0.44350573  1
  Zn  Zn162  1  0.93753192  0.68679441  0.93488649  1
  Zn  Zn163  1  0.06546354  0.31117659  0.06264257  1
  Zn  Zn164  1  0.06048629  0.30579861  0.55666304  1
  Zn  Zn165  1  0.06219028  0.81636962  0.06310716  1
  Zn  Zn166  1  0.06236865  0.81231458  0.56650840  1
  Zn  Zn167  1  0.56004712  0.31259047  0.06369934  1
  Zn  Zn168  1  0.55932851  0.31105139  0.56357633  1
  Zn  Zn169  1  0.56295978  0.81753662  0.05735780  1
  Zn  Zn170  1  0.56269553  0.80982706  0.56257855  1
  O  O171  1  0.12847378  0.11337092  0.12735296  1
  O  O172  1  0.11804359  0.11566208  0.62094324  1
  O  O173  1  0.11350057  0.62311046  0.12641839  1
  O  O174  1  0.11113006  0.63338703  0.62217620  1
  O  O175  1  0.61304097  0.11412607  0.12815099  1
  O  O176  1  0.61887347  0.11420065  0.61908815  1
  O  O177  1  0.62194770  0.62068545  0.11831145  1
  O  O178  1  0.61630813  0.62288362  0.61223753  1
  O  O179  1  0.37603851  0.38143820  0.38232870  1
  O  O180  1  0.37553036  0.39936494  0.87565121  1
  O  O181  1  0.38046776  0.88098153  0.38149169  1
  O  O182  1  0.38073743  0.88760460  0.87497526  1
  O  O183  1  0.87678462  0.38429604  0.37890489  1
  O  O184  1  0.87696857  0.37892401  0.88593901  1
  O  O185  1  0.88347654  0.88613925  0.37131171  1
  O  O186  1  0.87826715  0.87976977  0.88577713  1
  O  O187  1  0.26326923  -0.00141326  0.38603475  1
  O  O188  1  0.26168238  0.00486841  0.87486375  1
  O  O189  1  0.25382954  0.50776500  0.37341684  1
  O  O190  1  0.25604696  0.50562186  0.85959954  1
  O  O191  1  0.75739042  -0.00150309  0.36986044  1
  O  O192  1  0.75356101  0.00513745  0.86715762  1
  O  O193  1  0.75764453  0.50057410  0.36874017  1
  O  O194  1  0.74868508  0.49915659  0.85922585  1
  O  O195  1  0.24614993  0.49649052  0.13184233  1
  O  O196  1  0.24697966  0.49566117  0.63378284  1
  O  O197  1  0.23308651  0.99147851  0.12360807  1
  O  O198  1  0.23795563  0.98988531  0.62180165  1
  O  O199  1  0.74566986  0.49541537  0.12954132  1
  O  O200  1  0.74644829  0.48968699  0.63219785  1
  O  O201  1  0.73502931  1.00553021  0.13213013  1
  O  O202  1  0.74439945  0.99276340  0.62927156  1
  O  O203  1  0.00723263  0.37088171  0.25462204  1
  O  O204  1  0.00234331  0.36983697  0.76453900  1
  O  O205  1  0.00775629  0.86936301  0.26298536  1
  O  O206  1  -0.00527512  0.86417366  0.76257842  1
  O  O207  1  0.51349671  0.37592404  0.24947378  1
  O  O208  1  0.51290403  0.36639916  0.74437058  1
  O  O209  1  0.50983380  0.88080396  0.26168325  1
  O  O210  1  0.49712696  0.86975355  0.76637608  1
  O  O211  1  0.49017419  0.12497516  0.24272908  1
  O  O212  1  0.49251268  0.13310763  0.74416884  1
  O  O213  1  0.49174054  0.62268888  0.24195922  1
  O  O214  1  0.51024749  0.62581255  0.73583023  1
  O  O215  1  0.99778909  0.13819735  0.25258814  1
  O  O216  1  0.99008578  0.13244763  0.74811935  1
  O  O217  1  0.99713424  0.63232469  0.24310890  1
  O  O218  1  0.99840496  0.63716324  0.73866573  1
  O  O219  1  0.36744284  0.25818783  0.00588109  1
  O  O220  1  0.37177419  0.25571953  0.50551607  1
  O  O221  1  0.36817249  0.74671542  -0.00253947  1
  O  O222  1  0.36262422  0.75627854  0.50911927  1
  O  O223  1  0.86918189  0.25853038  0.00529370  1
  O  O224  1  0.86846073  0.25310076  0.50346528  1
  O  O225  1  0.86944898  0.75603908  0.00517895  1
  O  O226  1  0.86115400  0.74668357  0.51031480  1
  O  O227  1  0.13577967  0.24471728  0.49467812  1
  O  O228  1  0.13546080  0.24763849  1.00776081  1
  O  O229  1  0.13628991  0.75574583  0.49473807  1
  O  O230  1  0.12086149  0.73893808  1.00110802  1
  O  O231  1  0.62837337  0.24399067  0.49320758  1
  O  O232  1  0.63879975  0.25700347  1.00277502  1
  O  O233  1  0.63577947  0.74231387  0.50032355  1
  O  O234  1  0.63397112  0.74611668  0.99273188  1
  O  O235  1  0.50205437  0.23558820  0.12646339  1
  O  O236  1  0.48824719  0.24262814  0.62706423  1
  O  O237  1  0.50939198  0.73700946  0.11955909  1
  O  O238  1  0.49048135  0.74406320  0.62720616  1
  O  O239  1  0.98809137  0.26084674  0.13469859  1
  O  O240  1  0.99080806  0.24354874  0.63119191  1
  O  O241  1  0.99164483  0.74495340  0.12939863  1
  O  O242  1  0.99208753  0.74394133  0.63044864  1
  O  O243  1  -0.00192875  0.25786546  0.36578868  1
  O  O244  1  -0.00449308  0.26568510  0.86621905  1
  O  O245  1  0.00166977  0.75479820  0.37496594  1
  O  O246  1  -0.00415524  0.75949338  0.86345993  1
  O  O247  1  0.51280874  0.25212903  0.37427227  1
  O  O248  1  0.49288892  0.24567616  0.86554337  1
  O  O249  1  0.49955075  0.76299819  0.38471505  1
  O  O250  1  0.50973690  0.75559517  0.87147712  1
  O  O251  1  0.25333947  0.13607171  0.49998192  1
  O  O252  1  0.25175465  0.12618726  0.98342578  1
  O  O253  1  0.25374673  0.63356883  0.49208856  1
  O  O254  1  0.23639889  0.63332872  1.00587541  1
  O  O255  1  0.74297400  0.12987543  0.49795846  1
  O  O256  1  0.75321719  0.13528941  0.98741466  1
  O  O257  1  0.74117697  0.62990164  0.50037307  1
  O  O258  1  0.73968744  0.63480481  1.00131004  1
  O  O259  1  0.25494407  0.38419879  0.01037631  1
  O  O260  1  0.26075288  0.36425160  0.50208113  1
  O  O261  1  0.25617014  0.86273730  0.00135627  1
  O  O262  1  0.25527441  0.86607724  0.50820435  1
  O  O263  1  0.75756848  0.37096924  0.00240546  1
  O  O264  1  0.75225035  0.36858861  0.50575143  1
  O  O265  1  0.75734445  0.86293240  -0.00214274  1
  O  O266  1  0.74535776  0.86602549  0.51001256  1
  O  O267  1  0.13031361  0.49496751  0.24590925  1
  O  O268  1  0.12695814  0.50557443  0.75055569  1
  O  O269  1  0.12109851  0.98749855  0.24395814  1
  O  O270  1  0.11341482  1.00278236  0.73697000  1
  O  O271  1  0.63128674  0.49384765  0.24713023  1
  O  O272  1  0.62881173  0.48384094  0.74601678  1
  O  O273  1  0.63100190  0.99185732  0.24545449  1
  O  O274  1  0.63311390  1.00524318  0.73913600  1
  O  O275  1  0.37981568  0.00773128  0.26296595  1
  O  O276  1  0.37960429  0.01062452  0.75698786  1
  O  O277  1  0.36991147  0.50720984  0.25963994  1
  O  O278  1  0.37613387  0.50574750  0.75349212  1
  O  O279  1  0.86743532  -0.00155211  0.25456728  1
  O  O280  1  0.86625679  0.00804153  0.75357238  1
  O  O281  1  0.86896506  0.49846884  0.25737616  1
  O  O282  1  0.85565694  0.49097268  0.74712912  1
  O  O283  1  0.12076219  0.37320893  0.36247419  1
  O  O284  1  0.11762269  0.37730569  0.88174674  1
  O  O285  1  0.11804457  0.87133609  0.36775617  1
  O  O286  1  0.11131473  0.88296578  0.87845034  1
  O  O287  1  0.62417123  0.36689765  0.36707559  1
  O  O288  1  0.62660852  0.37227831  0.86251214  1
  O  O289  1  0.61566597  0.87348874  0.36786199  1
  O  O290  1  0.61506997  0.87070072  0.87448310  1
  O  O291  1  0.38571564  0.12046741  0.12954885  1
  O  O292  1  0.37836909  0.12863459  0.63341393  1
  O  O293  1  0.38551554  0.62216445  0.13687913  1
  O  O294  1  0.38449945  0.63593695  0.61686070  1
  O  O295  1  0.87140590  0.13731390  0.12371083  1
  O  O296  1  0.87771090  0.12780315  0.63561434  1
  O  O297  1  0.88696821  0.63285515  0.12381506  1
  O  O298  1  0.87981439  0.63525303  0.62287774  1
  O  O299  1  0.25275867  0.27002619  0.13054946  1
  O  O300  1  0.26204681  0.24993555  0.61929393  1
  O  O301  1  0.24179523  0.75331494  0.10600954  1
  O  O302  1  0.25299327  0.75411106  0.62234407  1
  O  O303  1  0.75656252  0.25492936  0.11824479  1
  O  O304  1  0.75231586  0.25276600  0.62069615  1
  O  O305  1  0.76426115  0.74622278  0.11725470  1
  O  O306  1  0.75572167  0.75624706  0.62269292  1
  O  O307  1  0.25022542  0.24696886  0.38351175  1
  O  O308  1  0.25829806  0.23792783  0.87188903  1
  O  O309  1  0.24563126  0.74373323  0.38583012  1
  O  O310  1  0.24651176  0.74803921  0.89546200  1
  O  O311  1  0.73926859  0.24785318  0.37943527  1
  O  O312  1  0.75417242  0.24133673  0.88179536  1
  O  O313  1  0.74970093  0.74879893  0.38405568  1
  O  O314  1  0.74421509  0.75102267  0.88083216  1
  O  O315  1  0.00190151  0.11501610  -0.02134737  1
  O  O316  1  -0.00171539  0.11613539  0.50910262  1
  O  O317  1  0.00955293  0.62293350  0.00762678  1
  O  O318  1  -0.00378398  0.61750497  0.51346773  1
  O  O319  1  0.49718561  0.12501243  0.01214776  1
  O  O320  1  0.50338758  0.11717564  0.50698283  1
  O  O321  1  0.51278454  0.61944351  0.00580432  1
  O  O322  1  0.50545878  0.62021575  0.50640218  1
  O  O323  1  0.48866377  0.38044158  0.49938196  1
  O  O324  1  0.50106713  0.39299837  1.00711434  1
  O  O325  1  0.49314172  0.87907397  0.49697982  1
  O  O326  1  0.49843424  0.86979529  0.97911274  1
  O  O327  1  0.99124509  0.38054567  0.49255846  1
  O  O328  1  0.99507712  0.37859706  0.99038739  1
  O  O329  1  1.00226145  0.87890281  0.48926217  1
  O  O330  1  0.99299536  0.87555524  0.98731352  1
  O  O331  1  0.49239138  0.49912233  0.38363862  1
  O  O332  1  0.50538297  0.50362347  0.89067640  1
  O  O333  1  0.49180038  0.99034476  0.38377213  1
  O  O334  1  0.49103628  0.99082843  0.87176115  1
  O  O335  1  0.99192718  0.49602177  0.38038016  1
  O  O336  1  0.99946736  0.48780277  0.87974649  1
  O  O337  1  0.99377078  0.99223726  0.38195123  1
  O  O338  1  0.98954515  0.98617465  0.87012762  1
  O  O339  1  0.01858852  -0.00739661  0.12534719  1
  O  O340  1  0.00034971  0.00109826  0.61941484  1
  O  O341  1  0.00426240  0.50836519  0.12024079  1
  O  O342  1  -0.00100488  0.51524195  0.61969396  1
  O  O343  1  0.51320043  0.01107222  0.12744990  1
  O  O344  1  0.50617986  0.00029749  0.62213623  1
  O  O345  1  0.50994890  0.51094025  0.11647171  1
  O  O346  1  0.49886055  0.50663107  0.61688582  1
  O  O347  1  0.24301241  0.38361576  0.24763569  1
  O  O348  1  0.25372618  0.39602233  0.74657583  1
  O  O349  1  0.23386622  0.86970509  0.25394856  1
  O  O350  1  0.25282407  0.86997710  0.74127823  1
  O  O351  1  0.74090471  0.38148631  0.24505197  1
  O  O352  1  0.73883729  0.37691505  0.74333333  1
  O  O353  1  0.74122861  0.88801043  0.25212026  1
  O  O354  1  0.75390317  0.88815948  0.74331781  1
  O  O355  1  0.26717738  0.12919542  0.24787676  1
  O  O356  1  0.26132407  0.12805166  0.76033804  1
  O  O357  1  0.25650018  0.62204068  0.25693015  1
  O  O358  1  0.25086598  0.60726023  0.74266946  1
  O  O359  1  0.75129904  0.11182877  0.25237746  1
  O  O360  1  0.75500350  0.11699039  0.75265220  1
  O  O361  1  0.75227543  0.61544262  0.25160357  1
  O  O362  1  0.74266456  0.60731291  0.74570964  1
  O  O363  1  0.37545398  0.11533267  0.36795822  1
  O  O364  1  0.36967445  0.11247725  0.86962407  1
  O  O365  1  0.36556674  0.62082213  0.37116586  1
  O  O366  1  0.38366480  0.60294167  0.87963270  1
  O  O367  1  0.87387766  0.11002696  0.37118345  1
  O  O368  1  0.86608474  0.12028251  0.86257450  1
  O  O369  1  0.87401828  0.61248836  0.37408703  1
  O  O370  1  0.87064853  0.61572484  0.88339956  1
  O  O371  1  0.12998722  0.38527015  0.13610862  1
  O  O372  1  0.12056328  0.37325788  0.62004897  1
  O  O373  1  0.12416137  0.87596515  0.14098867  1
  O  O374  1  0.13290763  0.88276886  0.62330516  1
  O  O375  1  0.63138477  0.38072584  0.13249451  1
  O  O376  1  0.63535330  0.37302502  0.62520256  1
  O  O377  1  0.61648674  0.88905267  0.13153599  1
  O  O378  1  0.63294973  0.88423908  0.62240917  1
  O  O379  1  0.11665173  0.25866596  0.24812091  1
  O  O380  1  0.11249250  0.24271623  0.74400988  1
  O  O381  1  0.11800613  0.75834000  0.25819612  1
  O  O382  1  0.10689143  0.75232684  0.74606933  1
  O  O383  1  0.62674589  0.25687723  0.25672039  1
  O  O384  1  0.61511713  0.26128255  0.74469508  1
  O  O385  1  0.63359825  0.76609718  0.25001761  1
  O  O386  1  0.62832966  0.74776031  0.76031613  1
  O  O387  1  0.38199782  0.24137528  0.24659284  1
  O  O388  1  0.38174963  0.24678964  0.74344204  1
  O  O389  1  0.37302542  0.73902293  0.25711684  1
  O  O390  1  0.37284687  0.75036266  0.74096329  1
  O  O391  1  0.88032735  0.24987732  0.24054917  1
  O  O392  1  0.87865193  0.24364947  0.74487560  1
  O  O393  1  0.87957202  0.75143060  0.24183594  1
  O  O394  1  0.88382724  0.75352730  0.73986613  1
  O  O395  1  0.37661518  0.49236258  0.49583533  1
  O  O396  1  0.39057211  0.50307369  1.00185591  1
  O  O397  1  0.38118243  0.99319618  0.49775617  1
  O  O398  1  0.37293714  0.99895022  0.98730665  1
  O  O399  1  0.87988687  0.49447598  0.49315301  1
  O  O400  1  0.88409058  0.48988929  1.00375358  1
  O  O401  1  0.88595576  1.00077071  0.49325390  1
  O  O402  1  0.87251004  0.99126632  0.99652589  1
  O  O403  1  0.12284980  0.00260692  0.01283805  1
  O  O404  1  0.10943603  -0.00040383  0.50701935  1
  O  O405  1  0.12081314  0.51322880  0.00696635  1
  O  O406  1  0.11109498  0.49657772  0.49101324  1
  O  O407  1  0.63090999  -0.00377223  0.01369092  1
  O  O408  1  0.61869977  0.00267867  0.50654988  1
  O  O409  1  0.62217996  0.50854628  0.00350231  1
  O  O410  1  0.61707887  0.50667236  0.50060662  1
  O  O411  1  0.36806476  0.37932598  0.12797509  1
  O  O412  1  0.37501748  0.36541474  0.61708138  1
  O  O413  1  0.37402968  0.87908458  0.12506584  1
  O  O414  1  0.36757597  0.86765549  0.62208938  1
  O  O415  1  0.86879804  0.36816514  0.11452174  1
  O  O416  1  0.85837943  0.36497792  0.61717945  1
  O  O417  1  0.88387237  0.86746450  0.11187527  1
  O  O418  1  0.86375581  0.86790260  0.62630443  1
  O  O419  1  0.12909515  0.12480813  0.37711546  1
  O  O420  1  0.14268086  0.11939473  0.87172827  1
  O  O421  1  0.13723398  0.63174541  0.36980891  1
  O  O422  1  0.11987130  0.62614596  0.88792280  1
  O  O423  1  0.62378628  0.13034956  0.38033401  1
  O  O424  1  0.63571321  0.12267634  0.86740544  1
  O  O425  1  0.62469407  0.62845959  0.38571822  1
  O  O426  1  0.63032204  0.63429390  0.88213622  1
