# generated using pymatgen
data_V85Zn86O256
_symmetry_space_group_name_H-M   'P 1'
_cell_length_a   16.93211972
_cell_length_b   16.93507966
_cell_length_c   16.92938172
_cell_angle_alpha   89.96416811
_cell_angle_beta   90.03940184
_cell_angle_gamma   89.95533529
_symmetry_Int_Tables_number   1
_chemical_formula_structural   V85Zn86O256
_chemical_formula_sum   'V85 Zn86 O256'
_cell_volume   4854.44239739
_cell_formula_units_Z   1
loop_
 _symmetry_equiv_pos_site_id
 _symmetry_equiv_pos_as_xyz
  1  'x, y, z'
loop_
 _atom_site_type_symbol
 _atom_site_label
 _atom_site_symmetry_multiplicity
 _atom_site_fract_x
 _atom_site_fract_y
 _atom_site_fract_z
 _atom_site_occupancy
  V  V0  1  0.62871796  0.62216086  0.49015439  1
  V  V1  1  0.62374496  0.37487891  0.25119918  1
  V  V2  1  0.74926858  0.50148869  0.25283301  1
  V  V3  1  0.49840530  0.49949953  -0.00131986  1
  V  V4  1  0.24641418  0.24580766  0.00514089  1
  V  V5  1  0.37298719  0.62696518  0.26502973  1
  V  V6  1  0.87110099  0.87568916  0.49653549  1
  V  V7  1  0.37325387  0.12535172  0.25195352  1
  V  V8  1  0.89302836  0.37908024  0.49983453  1
  V  V9  1  0.49565521  0.13851669  0.63024170  1
  V  V10  1  0.87596169  0.13486357  0.23828122  1
  V  V11  1  0.62216218  0.12582040  0.50467624  1
  V  V12  1  0.87395029  0.87621769  0.00195349  1
  V  V13  1  0.25015279  0.75464155  0.00382244  1
  V  V14  1  0.74038283  -0.00236078  0.75114201  1
  V  V15  1  0.37474742  0.62525019  0.75006483  1
  V  V16  1  0.12128259  0.37561078  0.74945389  1
  V  V17  1  0.37327056  0.75505657  0.12671739  1
  V  V18  1  0.25334413  0.50623946  0.25124977  1
  V  V19  1  0.37949381  0.87466621  0.49996146  1
  V  V20  1  0.75096548  0.12757567  0.37522944  1
  V  V21  1  0.87480855  0.37230692  0.00207025  1
  V  V22  1  -0.00063488  0.74807612  0.74893923  1
  V  V23  1  0.50381258  -0.00223398  0.00322750  1
  V  V24  1  0.36699535  0.38023357  0.50114637  1
  V  V25  1  0.74369557  0.38143970  0.62236655  1
  V  V26  1  0.24969687  0.62465626  0.87517742  1
  V  V27  1  0.25329438  0.35753092  0.62770201  1
  V  V28  1  0.75218482  0.25023795  0.00193945  1
  V  V29  1  0.01213499  0.00221430  0.00840843  1
  V  V30  1  0.19216080  0.56451653  0.43295603  1
  V  V31  1  0.01526755  0.13151017  0.12467632  1
  V  V32  1  0.49795267  0.37209513  0.86745406  1
  V  V33  1  0.50983707  0.74929989  0.25406032  1
  V  V34  1  0.24786284  0.74495816  0.49130349  1
  V  V35  1  0.04720365  0.93298861  0.43313893  1
  V  V36  1  0.12394130  0.87907069  0.74827991  1
  V  V37  1  0.62224973  0.25271571  0.37591361  1
  V  V38  1  0.74228443  0.50175488  0.74865776  1
  V  V39  1  0.75281984  0.25527159  0.50115670  1
  V  V40  1  0.37327730  0.88258012  -0.00250801  1
  V  V41  1  0.37672307  0.14162033  0.75137680  1
  V  V42  1  0.87182034  0.62420950  0.75117743  1
  V  V43  1  0.24744217  0.49999824  0.74788603  1
  V  V44  1  0.75008725  0.12641300  0.87384213  1
  V  V45  1  0.87522583  0.62856667  0.25086960  1
  V  V46  1  0.00051014  0.75855168  0.25715321  1
  V  V47  1  0.00249040  0.61663434  0.61259287  1
  V  V48  1  0.74243327  0.00191470  0.24456023  1
  V  V49  1  0.86748216  0.50306312  0.87648078  1
  V  V50  1  -0.00023993  0.49992026  -0.00019065  1
  V  V51  1  0.62792428  0.62521921  -0.00531852  1
  V  V52  1  0.75171454  0.74642450  -0.00460143  1
  V  V53  1  0.50824215  0.87317539  0.37697835  1
  V  V54  1  -0.00011947  0.87635655  0.87431874  1
  V  V55  1  0.12673908  0.87857220  0.23149963  1
  V  V56  1  0.12393424  0.24399045  0.87992067  1
  V  V57  1  0.12769623  0.49665617  0.12644845  1
  V  V58  1  0.37401508  0.00537021  0.37433444  1
  V  V59  1  0.05456838  0.31382771  0.30011762  1
  V  V60  1  -0.00043590  0.37303506  0.87767603  1
  V  V61  1  0.49865647  0.62547288  0.12447183  1
  V  V62  1  0.49325327  0.38106603  0.37653213  1
  V  V63  1  0.24978074  0.87313906  0.62569118  1
  V  V64  1  0.62673732  0.75370226  0.86851499  1
  V  V65  1  0.25139167  0.11891058  0.88011404  1
  V  V66  1  0.73970297  0.87899519  0.12202080  1
  V  V67  1  0.87650508  0.00230950  0.87319087  1
  V  V68  1  0.00085804  0.62823911  0.12490269  1
  V  V69  1  0.25871136  -0.00057108  0.75166350  1
  V  V70  1  0.88622289  0.49832905  0.37762985  1
  V  V71  1  0.49955772  0.87933756  0.86673299  1
  V  V72  1  0.62158992  0.24993783  0.86614523  1
  V  V73  1  0.62439960  0.12231666  0.00681515  1
  V  V74  1  0.25147758  0.37248982  0.12896663  1
  V  V75  1  0.74187125  0.87479393  0.62641364  1
  V  V76  1  0.87328270  0.00191321  0.37770320  1
  V  V77  1  0.12609445  0.62622248  -0.00090160  1
  V  V78  1  0.75259317  0.37135701  0.12751324  1
  V  V79  1  0.37742571  0.74729653  0.62629548  1
  V  V80  1  0.24044156  0.21554434  0.45988023  1
  V  V81  1  0.51164682  0.61538355  0.62930021  1
  V  V82  1  0.24645811  -0.00376679  0.23647007  1
  V  V83  1  0.00249845  0.12001199  0.61153435  1
  V  V84  1  0.38100623  0.24846230  0.12244262  1
  Zn  Zn85  1  0.74561417  0.63554103  0.36869023  1
  Zn  Zn86  1  0.50162636  0.49626225  0.50336325  1
  Zn  Zn87  1  0.12457658  0.74658989  0.37780113  1
  Zn  Zn88  1  0.74278844  0.75401057  0.49217100  1
  Zn  Zn89  1  0.49787949  0.00587502  0.50339303  1
  Zn  Zn90  1  0.61860872  -0.00054410  0.63201960  1
  Zn  Zn91  1  0.50697066  0.75464242  0.74731551  1
  Zn  Zn92  1  0.62651104  0.87596297  0.25229864  1
  Zn  Zn93  1  0.87325096  0.74979962  0.62123884  1
  Zn  Zn94  1  0.87811909  0.12779959  0.74764406  1
  Zn  Zn95  1  0.50380588  0.11597805  0.12887355  1
  Zn  Zn96  1  0.37617757  0.37472937  -0.00086519  1
  Zn  Zn97  1  0.87870701  0.24996249  0.62737136  1
  Zn  Zn98  1  0.87513178  0.75380571  0.12612223  1
  Zn  Zn99  1  0.37436104  0.49899635  0.87512395  1
  Zn  Zn100  1  0.61962778  0.37531966  0.74306265  1
  Zn  Zn101  1  0.12265918  0.00294567  0.61345583  1
  Zn  Zn102  1  -0.00288959  0.24511747  0.75045020  1
  Zn  Zn103  1  0.50039369  0.24836590  0.24964256  1
  Zn  Zn104  1  0.12663130  0.75019536  0.87358628  1
  Zn  Zn105  1  0.12203147  0.49788828  0.60991598  1
  Zn  Zn106  1  0.62451687  0.49996653  0.12443555  1
  Zn  Zn107  1  0.18175983  0.18554853  0.27988506  1
  Zn  Zn108  1  0.17902715  0.18167303  0.69179844  1
  Zn  Zn109  1  0.18710117  0.69008641  0.18943842  1
  Zn  Zn110  1  0.18454257  0.68674192  0.68259452  1
  Zn  Zn111  1  0.68913873  0.18967831  0.18755122  1
  Zn  Zn112  1  0.69157084  0.18673608  0.68590998  1
  Zn  Zn113  1  0.68818519  0.68832820  0.18064947  1
  Zn  Zn114  1  0.69195002  0.68916805  0.68509535  1
  Zn  Zn115  1  0.31804436  0.31924218  0.30725213  1
  Zn  Zn116  1  0.30901724  0.31376286  0.81773378  1
  Zn  Zn117  1  0.31514087  0.81607286  0.31193909  1
  Zn  Zn118  1  0.31367394  0.81234409  0.81556608  1
  Zn  Zn119  1  0.81957642  0.31499960  0.31579710  1
  Zn  Zn120  1  0.81169394  0.31383489  0.81111920  1
  Zn  Zn121  1  0.81001858  0.81468574  0.31435492  1
  Zn  Zn122  1  0.81195919  0.81380212  0.81120765  1
  Zn  Zn123  1  0.16428832  0.38386222  0.44867160  1
  Zn  Zn124  1  0.18864998  0.43481829  0.93922147  1
  Zn  Zn125  1  0.20757393  0.93942308  0.43357052  1
  Zn  Zn126  1  0.18761061  0.93586406  0.93671844  1
  Zn  Zn127  1  0.68635934  0.44389386  0.43824490  1
  Zn  Zn128  1  0.68460660  0.43611034  0.93510091  1
  Zn  Zn129  1  0.68849200  0.94205107  0.43855784  1
  Zn  Zn130  1  0.68501105  0.93740773  0.93584291  1
  Zn  Zn131  1  0.31333657  0.06425814  0.06435487  1
  Zn  Zn132  1  0.31382542  0.06283850  0.56815965  1
  Zn  Zn133  1  0.31542159  0.56661234  0.06514978  1
  Zn  Zn134  1  0.31808346  0.55561815  0.56847189  1
  Zn  Zn135  1  0.81223303  0.06013410  0.06036699  1
  Zn  Zn136  1  0.81432393  0.06319772  0.56426984  1
  Zn  Zn137  1  0.81070149  0.56235435  0.06575652  1
  Zn  Zn138  1  0.81416680  0.56153578  0.56322821  1
  Zn  Zn139  1  0.43594649  0.43869125  0.18820106  1
  Zn  Zn140  1  0.43148267  0.43394259  0.68710493  1
  Zn  Zn141  1  0.43883342  0.93544259  0.18657827  1
  Zn  Zn142  1  0.43915443  0.94269439  0.68536197  1
  Zn  Zn143  1  0.93444036  0.44159059  0.18468401  1
  Zn  Zn144  1  0.93504074  0.43671514  0.68600671  1
  Zn  Zn145  1  0.93364092  0.94093300  0.18919942  1
  Zn  Zn146  1  0.93500815  0.94189213  0.68300670  1
  Zn  Zn147  1  0.06203815  0.07824056  0.31398545  1
  Zn  Zn148  1  0.06218968  0.06305090  0.80890748  1
  Zn  Zn149  1  0.06105772  0.55703420  0.30589503  1
  Zn  Zn150  1  0.05975399  0.56181070  0.81250383  1
  Zn  Zn151  1  0.55948065  0.06361753  0.31573001  1
  Zn  Zn152  1  0.55740817  0.06401531  0.81849866  1
  Zn  Zn153  1  0.55938484  0.56046545  0.31225938  1
  Zn  Zn154  1  0.56143811  0.56472392  0.81553967  1
  Zn  Zn155  1  0.43106424  0.19552841  0.44098828  1
  Zn  Zn156  1  0.43612021  0.18545115  0.93591238  1
  Zn  Zn157  1  0.44436171  0.68781370  0.44204912  1
  Zn  Zn158  1  0.43826576  0.69086849  0.93580602  1
  Zn  Zn159  1  0.94057771  0.19173389  0.43301853  1
  Zn  Zn160  1  0.93859480  0.18510903  0.94405529  1
  Zn  Zn161  1  0.93188052  0.69148356  0.43463954  1
  Zn  Zn162  1  0.93639226  0.68745685  0.93447045  1
  Zn  Zn163  1  0.06586143  0.30854118  0.07372624  1
  Zn  Zn164  1  0.07104296  0.29819864  0.56654676  1
  Zn  Zn165  1  0.06081667  0.81199083  0.06262811  1
  Zn  Zn166  1  0.06558263  0.80321650  0.56747644  1
  Zn  Zn167  1  0.56580433  0.31317551  0.05862034  1
  Zn  Zn168  1  0.56109703  0.31266669  0.56251864  1
  Zn  Zn169  1  0.56072883  0.81152096  0.06023714  1
  Zn  Zn170  1  0.56403282  0.80775698  0.56322530  1
  O  O171  1  0.11105272  0.12597037  0.13297974  1
  O  O172  1  0.11180426  0.12043373  0.62452962  1
  O  O173  1  0.12114498  0.61906608  0.11784130  1
  O  O174  1  0.10815039  0.62015829  0.62853362  1
  O  O175  1  0.62242679  0.13333128  0.11103717  1
  O  O176  1  0.61788478  0.12534515  0.61990280  1
  O  O177  1  0.61728169  0.62475522  0.11229955  1
  O  O178  1  0.61339221  0.62510366  0.62691053  1
  O  O179  1  0.38228003  0.37136793  0.38523364  1
  O  O180  1  0.38265604  0.37703327  0.87899049  1
  O  O181  1  0.38481144  0.88062299  0.38339499  1
  O  O182  1  0.38637875  0.86680227  0.88630396  1
  O  O183  1  0.87242252  0.38336067  0.39045284  1
  O  O184  1  0.88007459  0.38229911  0.88274926  1
  O  O185  1  0.87261601  0.88559997  0.38610573  1
  O  O186  1  0.88082499  0.88126139  0.88189107  1
  O  O187  1  0.26929180  -0.00342291  0.36103173  1
  O  O188  1  0.24319700  0.01197001  0.86918852  1
  O  O189  1  0.24469462  0.50677862  0.36713487  1
  O  O190  1  0.25029714  0.50524941  0.86618768  1
  O  O191  1  0.75561432  0.00919890  0.36835367  1
  O  O192  1  0.75697627  0.00368053  0.87046108  1
  O  O193  1  0.75615106  0.50324160  0.36220560  1
  O  O194  1  0.76173860  0.49419331  0.86929522  1
  O  O195  1  0.24566673  0.49604986  0.12805957  1
  O  O196  1  0.24354796  0.49806620  0.63945745  1
  O  O197  1  0.25832204  0.99460639  0.13765429  1
  O  O198  1  0.24487600  0.99138037  0.63239643  1
  O  O199  1  0.74706939  0.49351895  0.13629200  1
  O  O200  1  0.75535016  0.49209283  0.63527420  1
  O  O201  1  0.75252733  0.99170499  0.13187525  1
  O  O202  1  0.74698643  0.99586523  0.63511985  1
  O  O203  1  -0.01449310  0.36519956  0.24571831  1
  O  O204  1  0.00648759  0.37356321  0.75696614  1
  O  O205  1  0.00919897  0.86926810  0.24201664  1
  O  O206  1  0.00509142  0.86942844  0.75095980  1
  O  O207  1  0.50460324  0.37371740  0.25733180  1
  O  O208  1  0.50162639  0.38171507  0.76240914  1
  O  O209  1  0.50268804  0.86750715  0.25824250  1
  O  O210  1  0.49454073  0.87543080  0.76207903  1
  O  O211  1  0.49069222  0.12592201  0.24640574  1
  O  O212  1  0.48363275  0.12130259  0.74892621  1
  O  O213  1  0.49438671  0.63089381  0.24496081  1
  O  O214  1  0.49552209  0.62785373  0.74223254  1
  O  O215  1  0.98479595  0.11451908  0.23456535  1
  O  O216  1  0.99713609  0.12623105  0.74258827  1
  O  O217  1  0.99307654  0.63188294  0.24354383  1
  O  O218  1  0.99181895  0.63176558  0.74690857  1
  O  O219  1  0.36547763  0.24938999  0.00560297  1
  O  O220  1  0.33843525  0.25332530  0.48763874  1
  O  O221  1  0.36930199  0.75622580  0.00706665  1
  O  O222  1  0.37209946  0.75343211  0.51001821  1
  O  O223  1  0.85995471  0.25614947  -0.00715707  1
  O  O224  1  0.86830252  0.26332381  0.49784381  1
  O  O225  1  0.86862770  0.75640849  -0.00076528  1
  O  O226  1  0.87117308  0.76190014  0.50136081  1
  O  O227  1  0.15465142  0.26844543  0.49162642  1
  O  O228  1  0.13895093  0.25479786  0.99537863  1
  O  O229  1  0.13863424  0.75231183  0.49666575  1
  O  O230  1  0.13277185  0.74523474  0.99881926  1
  O  O231  1  0.63212384  0.24295419  0.49581272  1
  O  O232  1  0.63536174  0.24526249  0.99114998  1
  O  O233  1  0.62450341  0.72822668  0.50786058  1
  O  O234  1  0.63188887  0.74377138  0.99315922  1
  O  O235  1  0.48946846  0.25208560  0.12187897  1
  O  O236  1  0.50264301  0.23866338  0.62831201  1
  O  O237  1  0.49351486  0.74551191  0.13194088  1
  O  O238  1  0.49311552  0.74098978  0.62900595  1
  O  O239  1  0.99410520  0.23017788  0.10950129  1
  O  O240  1  1.00012183  0.23695693  0.62809890  1
  O  O241  1  0.99834224  0.74325082  0.13347457  1
  O  O242  1  0.99663531  0.74130497  0.63667516  1
  O  O243  1  0.00623217  0.24965940  0.36371078  1
  O  O244  1  0.00859675  0.25431247  0.88021937  1
  O  O245  1  0.00313832  0.74533535  0.36070114  1
  O  O246  1  0.00069469  0.75633464  0.86328244  1
  O  O247  1  0.50638663  0.26053284  0.37591808  1
  O  O248  1  0.50927835  0.25957031  0.88296283  1
  O  O249  1  0.49482307  0.75982055  0.36622795  1
  O  O250  1  0.50877729  0.75833598  0.87206888  1
  O  O251  1  0.24829877  0.12185823  0.49439366  1
  O  O252  1  0.25492897  0.13168294  0.99176622  1
  O  O253  1  0.25195828  0.62432152  0.49692409  1
  O  O254  1  0.24619983  0.63098125  0.99453573  1
  O  O255  1  0.74394694  0.13470658  0.49686925  1
  O  O256  1  0.74398486  0.13105796  0.99509482  1
  O  O257  1  0.73763190  0.62226519  0.50042288  1
  O  O258  1  0.74204534  0.63382646  1.00458994  1
  O  O259  1  0.25384662  0.36890758  0.01014766  1
  O  O260  1  0.25639094  0.38692018  0.51678960  1
  O  O261  1  0.25902033  0.86562356  -0.00744259  1
  O  O262  1  0.26340218  0.86556851  0.50425162  1
  O  O263  1  0.75178836  0.36915104  0.00668344  1
  O  O264  1  0.75099307  0.37045142  0.50508076  1
  O  O265  1  0.75469674  0.87085969  0.00472031  1
  O  O266  1  0.75548627  0.87792973  0.50729980  1
  O  O267  1  0.13967307  0.51142920  0.23598087  1
  O  O268  1  0.12924848  0.48721718  0.75503848  1
  O  O269  1  0.14062457  0.99385607  0.25153093  1
  O  O270  1  0.13328631  0.98782902  0.75143007  1
  O  O271  1  0.63258018  0.49438929  0.24875022  1
  O  O272  1  0.63962617  0.50088331  0.75942885  1
  O  O273  1  0.63833599  1.00144762  0.25548986  1
  O  O274  1  0.63686050  1.00438997  0.75515652  1
  O  O275  1  0.37269123  0.00377878  0.25448979  1
  O  O276  1  0.36070661  0.00009370  0.74987745  1
  O  O277  1  0.36342912  0.51253195  0.24334076  1
  O  O278  1  0.36402252  0.50700613  0.75150436  1
  O  O279  1  0.86368178  0.00558882  0.25975511  1
  O  O280  1  0.86902411  -0.00153326  0.76380311  1
  O  O281  1  0.86780735  0.50888877  0.25459326  1
  O  O282  1  0.86923117  0.50539412  0.75812809  1
  O  O283  1  0.11305557  0.38117172  0.35132274  1
  O  O284  1  0.12029497  0.36619186  0.87158283  1
  O  O285  1  0.11473345  0.87983294  0.37505322  1
  O  O286  1  0.11742732  0.87183112  0.86665878  1
  O  O287  1  0.62036158  0.36948990  0.37157361  1
  O  O288  1  0.61728373  0.36640541  0.87222277  1
  O  O289  1  0.61201232  0.88110508  0.37679528  1
  O  O290  1  0.61347463  0.86506903  0.88179578  1
  O  O291  1  0.38073355  0.13299885  0.13046009  1
  O  O292  1  0.37953198  0.12297200  0.64154370  1
  O  O293  1  0.38275547  0.63751933  0.12929714  1
  O  O294  1  0.38428064  0.63109626  0.62957270  1
  O  O295  1  0.87201363  0.12130393  0.13648304  1
  O  O296  1  0.88545692  0.12662109  0.62641983  1
  O  O297  1  0.88059881  0.62603026  0.13608944  1
  O  O298  1  0.88576640  0.62501423  0.63309915  1
  O  O299  1  0.26237129  0.25911019  0.11859143  1
  O  O300  1  0.24427150  0.25851311  0.63474764  1
  O  O301  1  0.25779061  0.74487088  0.11233147  1
  O  O302  1  0.25727892  0.75230453  0.61596582  1
  O  O303  1  0.74664967  0.25971403  0.11556620  1
  O  O304  1  0.75319316  0.25606462  0.61302719  1
  O  O305  1  0.75280787  0.75792705  0.11195743  1
  O  O306  1  0.75393049  0.76118920  0.62145051  1
  O  O307  1  0.25156210  0.24187192  0.35917192  1
  O  O308  1  0.24356359  0.24286549  0.88445018  1
  O  O309  1  0.25224133  0.75297924  0.38734875  1
  O  O310  1  0.24929114  0.74236374  0.88544633  1
  O  O311  1  0.74470047  0.24802638  0.38482712  1
  O  O312  1  0.74231083  0.24674411  0.88176720  1
  O  O313  1  0.74867575  0.74831901  0.37767345  1
  O  O314  1  0.74385118  0.75771770  0.88753657  1
  O  O315  1  -0.00292943  0.10983088  0.00933114  1
  O  O316  1  -0.00528394  0.12776778  0.51185279  1
  O  O317  1  0.00466395  0.62096303  0.00477280  1
  O  O318  1  -0.00655904  0.63119205  0.51460598  1
  O  O319  1  0.50695878  0.11561490  -0.00139595  1
  O  O320  1  0.50463134  0.13078134  0.50891807  1
  O  O321  1  0.50553095  0.61986435  0.00355158  1
  O  O322  1  0.50830593  0.62169042  0.51292986  1
  O  O323  1  0.48902218  0.37206419  0.49537236  1
  O  O324  1  0.50135227  0.38487402  0.99142713  1
  O  O325  1  0.49182995  0.87367278  0.49676436  1
  O  O326  1  0.49345583  0.87915767  0.99341775  1
  O  O327  1  0.99104995  0.36995313  0.50882735  1
  O  O328  1  0.99444443  0.38064362  0.99950589  1
  O  O329  1  0.99441317  0.87141295  0.49812129  1
  O  O330  1  0.99358481  0.88313501  0.99695239  1
  O  O331  1  0.50398216  0.48471114  0.37800163  1
  O  O332  1  0.49814735  0.49362576  0.88245790  1
  O  O333  1  0.49095179  0.99211433  0.37933991  1
  O  O334  1  0.50230712  0.98946635  0.88742435  1
  O  O335  1  0.98545457  0.50365313  0.37028545  1
  O  O336  1  0.99106582  0.49329804  0.88138575  1
  O  O337  1  0.99313409  0.99843944  0.37225267  1
  O  O338  1  0.99424283  0.99649224  0.88353461  1
  O  O339  1  -0.00621140  0.00584107  0.11211399  1
  O  O340  1  0.00326348  0.01243241  0.62563253  1
  O  O341  1  0.00850915  0.50710867  0.12016778  1
  O  O342  1  0.00201834  0.51180733  0.62692197  1
  O  O343  1  0.49905104  -0.00286814  0.10988353  1
  O  O344  1  0.50219323  0.01280425  0.62224888  1
  O  O345  1  0.50239587  0.50595514  0.11740384  1
  O  O346  1  0.49635242  0.51300478  0.62865602  1
  O  O347  1  0.25881640  0.38818218  0.23553976  1
  O  O348  1  0.24382070  0.38210743  0.74719535  1
  O  O349  1  0.24275639  0.88551941  0.25363202  1
  O  O350  1  0.24340830  0.87894251  0.74816117  1
  O  O351  1  0.74815722  0.38079437  0.24473661  1
  O  O352  1  0.74923492  0.38452855  0.74055596  1
  O  O353  1  0.74881164  0.88337181  0.24010113  1
  O  O354  1  0.75609888  0.88465523  0.73945002  1
  O  O355  1  0.26597588  0.11011926  0.24334898  1
  O  O356  1  0.25751477  0.11870559  0.75610879  1
  O  O357  1  0.26115903  0.62078461  0.24505782  1
  O  O358  1  0.25137746  0.61936024  0.75433695  1
  O  O359  1  0.75670062  0.11979987  0.25298694  1
  O  O360  1  0.75439570  0.11640368  0.75668015  1
  O  O361  1  0.75660608  0.61896718  0.24585523  1
  O  O362  1  0.76374194  0.61812191  0.74366119  1
  O  O363  1  0.38437665  0.11677934  0.36660982  1
  O  O364  1  0.36525524  0.12711363  0.86291489  1
  O  O365  1  0.38212841  0.62896546  0.36418911  1
  O  O366  1  0.36865506  0.62524525  0.86744710  1
  O  O367  1  0.87017876  0.12000192  0.36663210  1
  O  O368  1  0.86816732  0.11679586  0.87730083  1
  O  O369  1  0.87200313  0.61927374  0.36365887  1
  O  O370  1  0.88011100  0.61410120  0.86577130  1
  O  O371  1  0.13486616  0.38929717  0.11797897  1
  O  O372  1  0.13050219  0.37773125  0.63426283  1
  O  O373  1  0.12823876  0.87279818  0.13216873  1
  O  O374  1  0.13130982  0.87672832  0.63199313  1
  O  O375  1  0.63516219  0.37663843  0.13097324  1
  O  O376  1  0.63777616  0.37108660  0.62586076  1
  O  O377  1  0.63629196  0.87101466  0.12512875  1
  O  O378  1  0.63661073  0.87986635  0.61884622  1
  O  O379  1  0.11580669  0.26431080  0.23278855  1
  O  O380  1  0.12468382  0.26159700  0.76187855  1
  O  O381  1  0.12115846  0.76136756  0.25471446  1
  O  O382  1  0.11811903  0.76032724  0.74917668  1
  O  O383  1  0.62351855  0.25620901  0.25768117  1
  O  O384  1  0.63140430  0.25063277  0.76282011  1
  O  O385  1  0.61276358  0.74981894  0.24473999  1
  O  O386  1  0.62888592  0.74480741  0.76478659  1
  O  O387  1  0.37754065  0.24193279  0.24011697  1
  O  O388  1  0.37091733  0.23982914  0.75287126  1
  O  O389  1  0.38098558  0.74636078  0.24309937  1
  O  O390  1  0.37254912  0.74536210  0.73785138  1
  O  O391  1  0.86673936  0.23304586  0.25178696  1
  O  O392  1  0.87724926  0.24891472  0.74723505  1
  O  O393  1  0.88219445  0.74544756  0.24806035  1
  O  O394  1  0.88139145  0.74173430  0.74941804  1
  O  O395  1  0.38086357  0.48590744  0.50310320  1
  O  O396  1  0.38786941  0.50203780  0.99913596  1
  O  O397  1  0.37439865  0.99105041  0.49394283  1
  O  O398  1  0.37913941  0.98693097  1.00350068  1
  O  O399  1  0.87283831  0.48796287  0.49269663  1
  O  O400  1  0.87786087  0.49649630  0.99390551  1
  O  O401  1  0.86945132  0.99660769  0.48543358  1
  O  O402  1  0.87910332  0.99384839  0.98918099  1
  O  O403  1  0.11036882  -0.00545511  -0.00118151  1
  O  O404  1  0.11482238  -0.01634689  0.49105064  1
  O  O405  1  0.12113234  0.50686027  0.00537766  1
  O  O406  1  0.13765334  0.49867805  0.48998867  1
  O  O407  1  0.61848567  0.01077403  -0.00415868  1
  O  O408  1  0.62354235  0.01789132  0.49919320  1
  O  O409  1  0.61634529  0.50778427  -0.00124721  1
  O  O410  1  0.62072270  0.51447282  0.50266200  1
  O  O411  1  0.37025001  0.36818430  0.12149282  1
  O  O412  1  0.36576382  0.37190726  0.61744601  1
  O  O413  1  0.38062399  0.86127293  0.11655483  1
  O  O414  1  0.37245365  0.86771308  0.61865936  1
  O  O415  1  0.86037365  0.38267627  0.11580763  1
  O  O416  1  0.86634110  0.37490262  0.61228255  1
  O  O417  1  0.86536705  0.87533997  0.11606259  1
  O  O418  1  0.86677966  0.87942566  0.61138398  1
  O  O419  1  0.13790856  0.13264546  0.36822127  1
  O  O420  1  0.13357772  0.13737509  0.86941149  1
  O  O421  1  0.12792960  0.62252825  0.37749352  1
  O  O422  1  0.13014837  0.62690556  0.88100220  1
  O  O423  1  0.62941664  0.13440235  0.38189280  1
  O  O424  1  0.62954222  0.13262535  0.88356573  1
  O  O425  1  0.62328020  0.62231102  0.38643844  1
  O  O426  1  0.61977659  0.63493264  0.88809474  1
