# generated using pymatgen
data_V85Zn86O256
_symmetry_space_group_name_H-M   'P 1'
_cell_length_a   16.93645305
_cell_length_b   16.94240361
_cell_length_c   16.92871634
_cell_angle_alpha   90.00272800
_cell_angle_beta   90.06790435
_cell_angle_gamma   89.96458847
_symmetry_Int_Tables_number   1
_chemical_formula_structural   V85Zn86O256
_chemical_formula_sum   'V85 Zn86 O256'
_cell_volume   4857.59301671
_cell_formula_units_Z   1
loop_
 _symmetry_equiv_pos_site_id
 _symmetry_equiv_pos_as_xyz
  1  'x, y, z'
loop_
 _atom_site_type_symbol
 _atom_site_label
 _atom_site_symmetry_multiplicity
 _atom_site_fract_x
 _atom_site_fract_y
 _atom_site_fract_z
 _atom_site_occupancy
  V  V0  1  0.37430693  0.12142413  0.73990482  1
  V  V1  1  0.25257558  0.13769328  0.38496776  1
  V  V2  1  0.44374791  0.54014418  0.44222708  1
  V  V3  1  0.37535099  0.49747460  0.87393074  1
  V  V4  1  0.61926292  0.00979913  0.62795447  1
  V  V5  1  0.12376784  0.25399189  0.87523924  1
  V  V6  1  0.49882438  0.87316237  0.87681168  1
  V  V7  1  0.75232061  0.87530223  0.12671052  1
  V  V8  1  -0.01372531  0.50378985  -0.00242599  1
  V  V9  1  0.50127026  0.24492390  0.73747369  1
  V  V10  1  0.37247422  0.00289187  0.38236832  1
  V  V11  1  0.01152727  0.62840782  0.12073290  1
  V  V12  1  0.25720698  0.24737485  0.00513763  1
  V  V13  1  0.87601470  0.00655538  0.38004188  1
  V  V14  1  0.35935136  0.25963694  0.62335336  1
  V  V15  1  0.87318225  0.00392942  0.87630712  1
  V  V16  1  0.31572691  0.82739088  0.45623194  1
  V  V17  1  0.38197455  0.74581459  0.12954884  1
  V  V18  1  0.49740337  0.24988320  0.25103989  1
  V  V19  1  0.62538657  0.87397067  0.74985611  1
  V  V20  1  0.62376739  0.86506214  0.25116178  1
  V  V21  1  0.87660665  0.61577023  0.75293953  1
  V  V22  1  0.37453985  0.87406890  0.00100137  1
  V  V23  1  0.88023219  0.87969273  0.50213112  1
  V  V24  1  0.75616959  0.74665981  -0.00032060  1
  V  V25  1  0.49760747  0.00218781  0.50422162  1
  V  V26  1  0.36960006  -0.00179736  0.87070346  1
  V  V27  1  0.75981568  0.36809036  0.12022508  1
  V  V28  1  0.12400704  0.74352141  0.87794961  1
  V  V29  1  0.25828309  0.37360106  0.12671032  1
  V  V30  1  0.36731300  0.37063202  0.49257689  1
  V  V31  1  0.36795796  0.75243308  0.62892453  1
  V  V32  1  -0.00284404  0.25161762  0.74746853  1
  V  V33  1  0.74841588  0.00233592  0.75642950  1
  V  V34  1  0.62564987  0.50099146  0.61758896  1
  V  V35  1  0.62624571  0.37102113  0.25184876  1
  V  V36  1  0.62435321  0.00016158  0.12702312  1
  V  V37  1  0.74970721  0.61960837  0.36845334  1
  V  V38  1  0.62901873  0.12094557  -0.00374074  1
  V  V39  1  0.49451102  0.12843172  0.12278861  1
  V  V40  1  0.24756334  0.73856815  0.00245944  1
  V  V41  1  0.88017560  0.74742971  0.13399394  1
  V  V42  1  0.62685897  0.37525318  0.74715653  1
  V  V43  1  0.50314932  0.37164432  0.87354293  1
  V  V44  1  0.50345808  0.62539690  0.13380407  1
  V  V45  1  0.12528276  0.88318336  0.75275083  1
  V  V46  1  0.75390249  0.24726522  -0.00324354  1
  V  V47  1  0.86830196  0.12972301  0.75138276  1
  V  V48  1  0.75451380  0.61694089  0.87676740  1
  V  V49  1  0.10681018  0.25722511  0.37371139  1
  V  V50  1  0.00082823  0.75018457  0.75095708  1
  V  V51  1  0.12235148  0.12759085  0.00603172  1
  V  V52  1  0.25220995  0.88145268  0.63353076  1
  V  V53  1  0.24855382  0.00466873  0.25009079  1
  V  V54  1  0.13734761  0.63299314  0.49443034  1
  V  V55  1  -0.00006809  0.62125858  0.61823109  1
  V  V56  1  0.11868488  0.37360776  0.24841688  1
  V  V57  1  0.37127737  0.13068237  0.24695598  1
  V  V58  1  0.24839256  0.12141738  0.86985421  1
  V  V59  1  0.49861491  0.61998080  0.62612857  1
  V  V60  1  0.87797985  0.38579746  0.47898799  1
  V  V61  1  0.62958481  0.24282936  0.87090400  1
  V  V62  1  0.87271741  0.25065404  0.60888025  1
  V  V63  1  0.74229199  0.75293824  0.49002052  1
  V  V64  1  0.00093330  0.87397545  0.37582632  1
  V  V65  1  0.11884129  0.00271297  0.12854116  1
  V  V66  1  0.37168363  0.62372099  0.75289188  1
  V  V67  1  -0.01404140  0.37901809  0.87955828  1
  V  V68  1  0.75507117  0.37509151  0.61824905  1
  V  V69  1  0.63339660  0.49632606  0.12399526  1
  V  V70  1  0.12597899  0.49233744  0.62099330  1
  V  V71  1  0.89053106  0.24447688  0.12167523  1
  V  V72  1  -0.00084977  0.00359347  0.00148074  1
  V  V73  1  0.89175565  0.12907851  0.24978839  1
  V  V74  1  0.62695426  0.74851866  0.87603533  1
  V  V75  1  0.50396714  0.49926469  0.00061517  1
  V  V76  1  0.51084427  0.86932440  0.37700556  1
  V  V77  1  0.87155195  0.74985409  0.62645361  1
  V  V78  1  0.13280226  0.50402233  0.11026871  1
  V  V79  1  0.24996776  0.87630034  0.12300786  1
  V  V80  1  0.12101182  0.00295555  0.62238409  1
  V  V81  1  0.74825417  0.01203664  0.25503961  1
  V  V82  1  0.37959516  0.36749126  0.00185474  1
  V  V83  1  0.11257737  0.13005152  0.49932772  1
  V  V84  1  0.25730470  0.50487978  0.26123770  1
  Zn  Zn85  1  0.25101092  0.48983527  0.74460601  1
  Zn  Zn86  1  0.75799982  0.49171663  0.25982578  1
  Zn  Zn87  1  0.63557533  0.12988106  0.49851333  1
  Zn  Zn88  1  0.49883392  -0.00023407  0.00065196  1
  Zn  Zn89  1  0.50098706  0.37760982  0.37959183  1
  Zn  Zn90  1  0.50039560  0.74825953  0.75096417  1
  Zn  Zn91  1  -0.00095683  0.87496441  0.87621324  1
  Zn  Zn92  1  -0.00065025  0.50481724  0.47098677  1
  Zn  Zn93  1  0.37987614  0.62129379  0.26909269  1
  Zn  Zn94  1  -0.00383887  0.12128867  0.62146144  1
  Zn  Zn95  1  0.01008621  0.74914518  0.25219841  1
  Zn  Zn96  1  0.12764606  0.37163788  0.74222134  1
  Zn  Zn97  1  0.12527857  0.87443017  0.25259733  1
  Zn  Zn98  1  0.13943155  0.75339481  0.37841674  1
  Zn  Zn99  1  0.74802740  0.87454759  0.62494670  1
  Zn  Zn100  1  0.91541431  0.58848791  0.29236675  1
  Zn  Zn101  1  0.87748585  0.87590499  0.00090817  1
  Zn  Zn102  1  0.63465488  0.23894038  0.37890076  1
  Zn  Zn103  1  0.62623686  0.62561152  -0.00028603  1
  Zn  Zn104  1  0.62280601  0.62623635  0.49526328  1
  Zn  Zn105  1  0.24494068  0.61953837  0.87694834  1
  Zn  Zn106  1  0.75327005  0.49776701  0.75235737  1
  Zn  Zn107  1  0.18462883  0.19059753  0.18894523  1
  Zn  Zn108  1  0.18637953  0.18698702  0.68842907  1
  Zn  Zn109  1  0.19065882  0.68686114  0.19245595  1
  Zn  Zn110  1  0.18680965  0.68636656  0.68700883  1
  Zn  Zn111  1  0.68528378  0.18758227  0.18620042  1
  Zn  Zn112  1  0.69181163  0.18801425  0.67899898  1
  Zn  Zn113  1  0.69138506  0.68525462  0.18543350  1
  Zn  Zn114  1  0.68890517  0.68635428  0.68767757  1
  Zn  Zn115  1  0.31242812  0.31315440  0.31089682  1
  Zn  Zn116  1  0.31109859  0.31088458  0.81077525  1
  Zn  Zn117  1  0.31764081  0.81513740  0.29409866  1
  Zn  Zn118  1  0.30824471  0.81003079  0.81320429  1
  Zn  Zn119  1  0.81081727  0.30454328  0.30385405  1
  Zn  Zn120  1  0.80962574  0.31266933  0.81039730  1
  Zn  Zn121  1  0.81287457  0.81696861  0.31297185  1
  Zn  Zn122  1  0.81415636  0.81340000  0.81396627  1
  Zn  Zn123  1  0.18466439  0.43464572  0.44023667  1
  Zn  Zn124  1  0.19113429  0.43086057  0.93199064  1
  Zn  Zn125  1  0.17911491  0.94874433  0.43791947  1
  Zn  Zn126  1  0.18670587  0.93521009  0.93819531  1
  Zn  Zn127  1  0.68928104  0.43253733  0.43672080  1
  Zn  Zn128  1  0.69094782  0.43324535  0.93745046  1
  Zn  Zn129  1  0.68917669  0.94412118  0.43965070  1
  Zn  Zn130  1  0.68960798  0.93564268  0.93848172  1
  Zn  Zn131  1  0.31101960  0.06141558  0.06020620  1
  Zn  Zn132  1  0.30795942  0.06029852  0.56222889  1
  Zn  Zn133  1  0.31830168  0.55943280  0.06462685  1
  Zn  Zn134  1  0.30651211  0.56240178  0.56649084  1
  Zn  Zn135  1  0.81199218  0.06558541  0.06688112  1
  Zn  Zn136  1  0.81095944  0.05734493  0.57058871  1
  Zn  Zn137  1  0.85382570  0.52847243  0.11942120  1
  Zn  Zn138  1  0.81091273  0.56258080  0.55806831  1
  Zn  Zn139  1  0.43865091  0.43873946  0.18828552  1
  Zn  Zn140  1  0.43826624  0.43522269  0.68448889  1
  Zn  Zn141  1  0.43877187  0.94083585  0.19158187  1
  Zn  Zn142  1  0.43743807  0.93612315  0.69084097  1
  Zn  Zn143  1  0.94211792  0.42983883  0.29475627  1
  Zn  Zn144  1  0.94192844  0.43562267  0.68429934  1
  Zn  Zn145  1  0.93724636  0.93787166  0.19091518  1
  Zn  Zn146  1  0.93876390  0.93772235  0.68863942  1
  Zn  Zn147  1  0.06125415  0.06235148  0.32049353  1
  Zn  Zn148  1  0.05894533  0.06519966  0.81292170  1
  Zn  Zn149  1  0.08308520  0.56542407  0.30577558  1
  Zn  Zn150  1  0.06070668  0.56010666  0.81041379  1
  Zn  Zn151  1  0.56030734  0.06133382  0.31534352  1
  Zn  Zn152  1  0.55669773  0.06175645  0.81333820  1
  Zn  Zn153  1  0.57812386  0.56732364  0.30822171  1
  Zn  Zn154  1  0.56449293  0.56174443  0.80914162  1
  Zn  Zn155  1  0.47559213  0.20724543  0.46180427  1
  Zn  Zn156  1  0.44046321  0.18450501  0.93209376  1
  Zn  Zn157  1  0.44660112  0.70168779  0.44157444  1
  Zn  Zn158  1  0.43853793  0.68552010  0.94185378  1
  Zn  Zn159  1  0.80623582  0.18314843  0.43589989  1
  Zn  Zn160  1  0.93780195  0.18571827  0.93595877  1
  Zn  Zn161  1  0.93641928  0.69355628  0.44135139  1
  Zn  Zn162  1  0.93816461  0.68476958  0.94022700  1
  Zn  Zn163  1  0.06542960  0.32193489  0.06112664  1
  Zn  Zn164  1  0.05396825  0.31115522  0.55174505  1
  Zn  Zn165  1  0.06452392  0.81699401  0.06062279  1
  Zn  Zn166  1  0.06246992  0.81202583  0.56334572  1
  Zn  Zn167  1  0.56587088  0.30818318  0.06404307  1
  Zn  Zn168  1  0.55690558  0.32436291  0.55906149  1
  Zn  Zn169  1  0.56477131  0.81186852  0.06281709  1
  Zn  Zn170  1  0.55759588  0.81546455  0.56521507  1
  O  O171  1  0.13072082  0.11965957  0.11330756  1
  O  O172  1  0.12501080  0.12068213  0.61834265  1
  O  O173  1  0.12194519  0.61873042  0.12425302  1
  O  O174  1  0.11683608  0.62063250  0.61663643  1
  O  O175  1  0.61663388  0.11857153  0.11750911  1
  O  O176  1  0.62094088  0.11228719  0.62984473  1
  O  O177  1  0.62300541  0.61414938  0.12193850  1
  O  O178  1  0.61633772  0.61987661  0.62393256  1
  O  O179  1  0.37728576  0.36887827  0.38759479  1
  O  O180  1  0.38387575  0.37980223  0.87997583  1
  O  O181  1  0.37771277  0.87944845  0.37972601  1
  O  O182  1  0.37692578  0.88040284  0.87775215  1
  O  O183  1  0.87392960  0.37693081  0.37542653  1
  O  O184  1  0.88654695  0.36995469  0.87360225  1
  O  O185  1  0.88022598  0.88231601  0.38355156  1
  O  O186  1  0.87586262  0.88974431  0.87712543  1
  O  O187  1  0.25465054  0.00813163  0.36956781  1
  O  O188  1  0.25663894  0.00896486  0.88031814  1
  O  O189  1  0.24453630  0.49517969  0.35897750  1
  O  O190  1  0.26570980  0.50145045  0.87905336  1
  O  O191  1  0.76381894  -0.00603363  0.36626964  1
  O  O192  1  0.75470227  -0.00123365  0.86468582  1
  O  O193  1  0.74927588  0.51463461  0.37663294  1
  O  O194  1  0.74637503  0.51320990  0.87552073  1
  O  O195  1  0.24928480  0.49153869  0.12664184  1
  O  O196  1  0.23035832  0.50170507  0.62584147  1
  O  O197  1  0.23971099  0.99811828  0.12831122  1
  O  O198  1  0.23854713  0.99203975  0.62755825  1
  O  O199  1  0.74150009  0.48769503  0.11545290  1
  O  O200  1  0.74536060  0.49210363  0.62765538  1
  O  O201  1  0.74414384  0.99453937  0.13188021  1
  O  O202  1  0.73970206  0.99437466  0.64081851  1
  O  O203  1  0.01991366  0.37536170  0.23352009  1
  O  O204  1  0.00259109  0.36514500  0.75758194  1
  O  O205  1  0.00297238  0.87362098  0.26055896  1
  O  O206  1  0.00712259  0.86772163  0.75246610  1
  O  O207  1  0.50732013  0.36595255  0.24522408  1
  O  O208  1  0.50691764  0.36630162  0.75370216  1
  O  O209  1  0.50982022  0.88505290  0.26453286  1
  O  O210  1  0.50767759  0.87073506  0.75909396  1
  O  O211  1  0.49063416  0.12864573  0.24254635  1
  O  O212  1  0.48637394  0.13336218  0.75553696  1
  O  O213  1  0.50032768  0.61728726  0.23717394  1
  O  O214  1  0.48929536  0.62659421  0.74374557  1
  O  O215  1  0.98990026  0.12050665  0.24967097  1
  O  O216  1  0.98944868  0.13683946  0.75039607  1
  O  O217  1  1.00882146  0.63087581  0.23661870  1
  O  O218  1  0.99335527  0.63164796  0.74273049  1
  O  O219  1  0.36736323  0.25216988  -0.00737069  1
  O  O220  1  0.38057882  0.25833844  0.51439243  1
  O  O221  1  0.36867713  0.75502472  0.00856440  1
  O  O222  1  0.37551766  0.75893571  0.51100534  1
  O  O223  1  0.86086865  0.23447855  0.00543415  1
  O  O224  1  0.87691068  0.26232587  0.50728787  1
  O  O225  1  0.87038233  0.75391304  0.00732815  1
  O  O226  1  0.86431677  0.75878244  0.50916001  1
  O  O227  1  0.12233587  0.24775907  0.48467019  1
  O  O228  1  0.13113195  0.24347186  0.99454254  1
  O  O229  1  0.12301012  0.73775948  0.49999263  1
  O  O230  1  0.13557607  0.75649656  0.99068764  1
  O  O231  1  0.58725296  0.24035551  0.49093111  1
  O  O232  1  0.63046086  0.24068256  0.99058065  1
  O  O233  1  0.64052206  0.75151033  0.51097289  1
  O  O234  1  0.63484312  0.74989005  0.99221753  1
  O  O235  1  0.50342133  0.23590907  0.13261958  1
  O  O236  1  0.49068312  0.25383432  0.63624438  1
  O  O237  1  0.49431830  0.73808355  0.11681902  1
  O  O238  1  0.48918233  0.73913209  0.62555245  1
  O  O239  1  0.98894148  0.25097669  0.10779611  1
  O  O240  1  0.99017981  0.25038910  0.63211918  1
  O  O241  1  0.99799690  0.74631600  0.12296046  1
  O  O242  1  0.98960843  0.74108616  0.62805032  1
  O  O243  1  0.01218640  0.25001008  0.36857581  1
  O  O244  1  0.00528544  0.25543210  0.87055447  1
  O  O245  1  -0.00233469  0.76453041  0.37362461  1
  O  O246  1  0.00707559  0.75277629  0.87167110  1
  O  O247  1  0.49488027  0.25348675  0.35617376  1
  O  O248  1  0.51053594  0.25341748  0.86608088  1
  O  O249  1  0.50174258  0.76969204  0.37244829  1
  O  O250  1  0.50740584  0.75533971  0.87664431  1
  O  O251  1  0.24277016  0.12255005  0.48722038  1
  O  O252  1  0.24410685  0.13041790  0.99152284  1
  O  O253  1  0.23597376  0.62780981  0.50519095  1
  O  O254  1  0.25713637  0.63577302  0.99956531  1
  O  O255  1  0.74893769  0.13182636  0.51698875  1
  O  O256  1  0.73553480  0.12946830  1.00396271  1
  O  O257  1  0.74944494  0.63871110  0.49343898  1
  O  O258  1  0.74865584  0.63885305  0.99111959  1
  O  O259  1  0.25833182  0.36494380  0.00448349  1
  O  O260  1  0.26670689  0.37960747  0.49851231  1
  O  O261  1  0.25716671  0.86752941  0.00513179  1
  O  O262  1  0.24630097  0.88133572  0.51187907  1
  O  O263  1  0.74311321  0.35813819  0.00592896  1
  O  O264  1  0.76557584  0.37982819  0.50620518  1
  O  O265  1  0.75123999  0.86444341  0.00722398  1
  O  O266  1  0.75694092  0.86670628  0.50233225  1
  O  O267  1  0.14129138  0.49260303  0.23588398  1
  O  O268  1  0.12237763  0.49987242  0.73346011  1
  O  O269  1  0.12936044  1.00319957  0.24312115  1
  O  O270  1  0.12124801  0.98859732  0.74951213  1
  O  O271  1  0.63317243  0.49062169  0.23875489  1
  O  O272  1  0.62721654  0.49345599  0.73876864  1
  O  O273  1  0.63195724  0.99566376  0.24440753  1
  O  O274  1  0.62877183  0.99439579  0.74930332  1
  O  O275  1  0.37004269  0.00970642  0.26077709  1
  O  O276  1  0.37754499  0.00732737  0.76131658  1
  O  O277  1  0.36321928  0.50048144  0.24792272  1
  O  O278  1  0.37577999  0.50448201  0.75754879  1
  O  O279  1  0.86895737  0.01090157  0.25447958  1
  O  O280  1  0.86747505  0.00669664  0.75469820  1
  O  O281  1  0.86984646  0.50042139  0.23157786  1
  O  O282  1  0.87681199  0.51281890  0.74560796  1
  O  O283  1  0.12635113  0.36568050  0.36642749  1
  O  O284  1  0.11617569  0.36112956  0.87765265  1
  O  O285  1  0.11486752  0.87665659  0.37811215  1
  O  O286  1  0.12566772  0.86589434  0.86727105  1
  O  O287  1  0.62334830  0.37515529  0.36066315  1
  O  O288  1  0.62149346  0.36645612  0.86735301  1
  O  O289  1  0.61704016  0.88252768  0.36833150  1
  O  O290  1  0.62055673  0.87038516  0.86747570  1
  O  O291  1  0.38206650  0.11671981  0.13351261  1
  O  O292  1  0.36558080  0.13226898  0.63597599  1
  O  O293  1  0.38837583  0.63092687  0.12111650  1
  O  O294  1  0.37883127  0.62993408  0.63184071  1
  O  O295  1  0.87437164  0.13092724  0.13840991  1
  O  O296  1  0.87767172  0.13376770  0.63351446  1
  O  O297  1  0.89692132  0.63580471  0.12122882  1
  O  O298  1  0.87970993  0.63132418  0.62926289  1
  O  O299  1  0.24661378  0.25586245  0.11259663  1
  O  O300  1  0.26102402  0.25140751  0.62785523  1
  O  O301  1  0.25753286  0.75454891  0.11881497  1
  O  O302  1  0.26097656  0.75719688  0.62940870  1
  O  O303  1  0.75083041  0.25177622  0.11417020  1
  O  O304  1  0.75883731  0.26612447  0.62951355  1
  O  O305  1  0.76044302  0.75111786  0.11749395  1
  O  O306  1  0.76079689  0.75070274  0.62039792  1
  O  O307  1  0.24905146  0.23791782  0.37314107  1
  O  O308  1  0.24227213  0.24254733  0.88473546  1
  O  O309  1  0.26217255  0.77061575  0.38810543  1
  O  O310  1  0.24369420  0.74629686  0.88482245  1
  O  O311  1  0.74623106  0.25631347  0.37750706  1
  O  O312  1  0.73752668  0.25127413  0.87904970  1
  O  O313  1  0.75041935  0.75059826  0.38711224  1
  O  O314  1  0.74640146  0.74522438  0.88114207  1
  O  O315  1  0.01028009  0.11429544  -0.00550992  1
  O  O316  1  0.01334555  0.12916299  0.50191067  1
  O  O317  1  0.00457147  0.61266459  0.00100702  1
  O  O318  1  0.00332143  0.62348118  0.50584304  1
  O  O319  1  0.50812606  0.12424371  0.00625441  1
  O  O320  1  0.49089662  0.10300796  0.50402397  1
  O  O321  1  0.50463796  0.61311933  0.00678501  1
  O  O322  1  0.49969971  0.61655556  0.50492382  1
  O  O323  1  0.48131074  0.38552406  0.49771547  1
  O  O324  1  0.49935430  0.37815129  0.99579639  1
  O  O325  1  0.50547770  0.88282493  0.48614643  1
  O  O326  1  0.49250137  0.87560456  0.99441026  1
  O  O327  1  0.98164357  0.38279619  0.49627650  1
  O  O328  1  1.00500240  0.39247952  0.99249693  1
  O  O329  1  0.98712683  0.87096901  0.49618173  1
  O  O330  1  0.99973724  0.89098118  0.99735705  1
  O  O331  1  0.50787490  0.49817772  0.37244987  1
  O  O332  1  0.49445963  0.49487091  0.88074520  1
  O  O333  1  0.48796532  0.99125571  0.38110685  1
  O  O334  1  0.48984322  0.99094158  0.87808614  1
  O  O335  1  0.99269651  0.51412945  0.35563128  1
  O  O336  1  1.00434144  0.49427398  0.88724320  1
  O  O337  1  0.98545354  0.99077372  0.37260461  1
  O  O338  1  0.99177014  0.99956268  0.88220520  1
  O  O339  1  0.01171125  -0.00237588  0.11925040  1
  O  O340  1  0.01476689  0.00328500  0.63323879  1
  O  O341  1  0.01459839  0.51056217  0.10870242  1
  O  O342  1  0.00601052  0.51295591  0.62442645  1
  O  O343  1  0.50525265  0.01046821  0.12369834  1
  O  O344  1  0.50796258  -0.01189979  0.61808452  1
  O  O345  1  0.51244298  0.50242389  0.11796012  1
  O  O346  1  0.50704851  0.51241307  0.63083414  1
  O  O347  1  0.24881855  0.38082897  0.24081414  1
  O  O348  1  0.23955469  0.37783470  0.76063195  1
  O  O349  1  0.24936896  0.88788074  0.24031028  1
  O  O350  1  0.24041892  0.87185600  0.74159775  1
  O  O351  1  0.74195626  0.37323089  0.23773010  1
  O  O352  1  0.74340460  0.37851183  0.74245794  1
  O  O353  1  0.74365263  0.88426109  0.24477103  1
  O  O354  1  0.74156047  0.88229069  0.75143436  1
  O  O355  1  0.25470763  0.12243605  0.25657449  1
  O  O356  1  0.25663772  0.13098956  0.76367999  1
  O  O357  1  0.25739467  0.60981243  0.24847891  1
  O  O358  1  0.26211533  0.61960068  0.75156820  1
  O  O359  1  0.75295212  0.11395148  0.24463247  1
  O  O360  1  0.76026456  0.11901521  0.74640705  1
  O  O361  1  0.74756479  0.62316928  0.26356279  1
  O  O362  1  0.75910227  0.62413497  0.75795469  1
  O  O363  1  0.36314421  0.11877423  0.36913525  1
  O  O364  1  0.36723218  0.11739867  0.86810432  1
  O  O365  1  0.39149633  0.61553079  0.38701158  1
  O  O366  1  0.37726800  0.61580730  0.86863477  1
  O  O367  1  0.87383367  0.11881841  0.36184933  1
  O  O368  1  0.87672224  0.11331855  0.86602179  1
  O  O369  1  0.85735753  0.63813004  0.37660204  1
  O  O370  1  0.86646994  0.63257137  0.86477745  1
  O  O371  1  0.14068020  0.38124663  0.12725737  1
  O  O372  1  0.11170548  0.38999146  0.61916920  1
  O  O373  1  0.13272023  0.88642449  0.12561223  1
  O  O374  1  0.13007711  0.88139496  0.63137147  1
  O  O375  1  0.63095182  0.37853674  0.13186663  1
  O  O376  1  0.63243885  0.38118741  0.62687353  1
  O  O377  1  0.62907039  0.88256769  0.13075986  1
  O  O378  1  0.62418883  0.87849691  0.63974932  1
  O  O379  1  0.13337859  0.25984716  0.26237484  1
  O  O380  1  0.11432539  0.24747356  0.75775764  1
  O  O381  1  0.13110696  0.75594482  0.26001089  1
  O  O382  1  0.11984121  0.75883732  0.75397970  1
  O  O383  1  0.61556816  0.25581057  0.24846174  1
  O  O384  1  0.61957391  0.25087610  0.75278028  1
  O  O385  1  0.63005487  0.76596962  0.24089156  1
  O  O386  1  0.62537522  0.75728745  0.75726697  1
  O  O387  1  0.37792977  0.23746511  0.24770364  1
  O  O388  1  0.38014491  0.24427909  0.74096854  1
  O  O389  1  0.37500963  0.73917221  0.23506616  1
  O  O390  1  0.37647222  0.74095401  0.74642699  1
  O  O391  1  0.87675177  0.23630817  0.23865883  1
  O  O392  1  0.87858488  0.24424748  0.74438346  1
  O  O393  1  0.87662347  0.75467834  0.23695434  1
  O  O394  1  0.87972674  0.74530593  0.74236089  1
  O  O395  1  0.37323511  0.49197728  0.50425280  1
  O  O396  1  0.38820982  0.49207819  0.99450245  1
  O  O397  1  0.37537182  0.99750904  0.48980244  1
  O  O398  1  0.37508757  0.99345052  0.98897910  1
  O  O399  1  0.87757992  0.48874223  0.49771664  1
  O  O400  1  0.88820323  0.50229363  1.00880182  1
  O  O401  1  0.86898361  0.99122587  0.49424695  1
  O  O402  1  0.88117597  1.00433064  0.99421778  1
  O  O403  1  0.11954219  0.00778620  0.00557747  1
  O  O404  1  0.12499224  0.01453560  0.51110318  1
  O  O405  1  0.13317122  0.49663774  0.00839414  1
  O  O406  1  0.11882595  0.50978437  0.50579867  1
  O  O407  1  0.62367051  0.00541445  0.00535280  1
  O  O408  1  0.61778226  -0.00143724  0.51303649  1
  O  O409  1  0.61642477  0.49703871  0.00350226  1
  O  O410  1  0.63136185  0.50174989  0.51368452  1
  O  O411  1  0.36650961  0.37721047  0.11761534  1
  O  O412  1  0.37353099  0.36445544  0.62047550  1
  O  O413  1  0.37296392  0.86819234  0.12283911  1
  O  O414  1  0.36477111  0.86726323  0.63361620  1
  O  O415  1  0.86086234  0.35914376  0.12507924  1
  O  O416  1  0.86954261  0.36926575  0.62212115  1
  O  O417  1  0.86962976  0.86919302  0.12285578  1
  O  O418  1  0.87372898  0.86850761  0.62039608  1
  O  O419  1  0.13270163  0.13453386  0.37974966  1
  O  O420  1  0.13021259  0.13312703  0.88184688  1
  O  O421  1  0.12777910  0.63080840  0.38982972  1
  O  O422  1  0.12722766  0.63908636  0.86535416  1
  O  O423  1  0.61888294  0.12371953  0.38359502  1
  O  O424  1  0.61876279  0.13113116  0.88301611  1
  O  O425  1  0.64107463  0.63118336  0.37929069  1
  O  O426  1  0.63300019  0.63212107  0.87412876  1
