# generated using pymatgen
data_V85Zn86O256
_symmetry_space_group_name_H-M   'P 1'
_cell_length_a   16.94693662
_cell_length_b   16.94953449
_cell_length_c   16.95457208
_cell_angle_alpha   89.90151765
_cell_angle_beta   89.96980543
_cell_angle_gamma   89.99564668
_symmetry_Int_Tables_number   1
_chemical_formula_structural   V85Zn86O256
_chemical_formula_sum   'V85 Zn86 O256'
_cell_volume   4870.06895294
_cell_formula_units_Z   1
loop_
 _symmetry_equiv_pos_site_id
 _symmetry_equiv_pos_as_xyz
  1  'x, y, z'
loop_
 _atom_site_type_symbol
 _atom_site_label
 _atom_site_symmetry_multiplicity
 _atom_site_fract_x
 _atom_site_fract_y
 _atom_site_fract_z
 _atom_site_occupancy
  V  V0  1  0.25317678  0.24695580  0.50893577  1
  V  V1  1  0.62536482  0.00270336  0.62734097  1
  V  V2  1  0.62765655  0.88030473  0.75483051  1
  V  V3  1  0.49195880  0.00012092  -0.00098358  1
  V  V4  1  0.76192987  0.25389575  0.00564300  1
  V  V5  1  0.86966457  0.75922146  0.12675807  1
  V  V6  1  -0.00540632  0.24388462  0.74827326  1
  V  V7  1  0.37556293  0.13199264  0.74492367  1
  V  V8  1  0.11767387  0.12076721  0.49903758  1
  V  V9  1  0.62596990  0.50587538  0.63594033  1
  V  V10  1  -0.00528010  0.62935031  0.12535790  1
  V  V11  1  0.87328586  0.37533106  0.50342872  1
  V  V12  1  -0.00439401  0.11880232  0.12332380  1
  V  V13  1  0.37524447  0.37283068  -0.00030493  1
  V  V14  1  0.25891619  0.00398721  0.24773545  1
  V  V15  1  0.87189513  0.62961658  0.25308239  1
  V  V16  1  0.12334505  0.87945744  0.25010457  1
  V  V17  1  0.11994283  -0.00195293  0.62334581  1
  V  V18  1  0.76418073  0.37373552  0.12424164  1
  V  V19  1  0.74806198  0.76352245  0.00201725  1
  V  V20  1  0.12975064  0.86692896  0.75892812  1
  V  V21  1  0.87417907  0.50247443  0.37815072  1
  V  V22  1  0.62466717  0.25170696  0.86943160  1
  V  V23  1  0.86784266  0.12763250  0.25030255  1
  V  V24  1  -0.01331597  0.49745287  -0.00037845  1
  V  V25  1  0.50931875  0.50719210  0.49571101  1
  V  V26  1  0.25160549  0.87376310  0.62313368  1
  V  V27  1  0.62388819  0.12838989  0.00073656  1
  V  V28  1  0.62603251  0.37182526  0.24927287  1
  V  V29  1  0.62851422  0.86136599  0.24548971  1
  V  V30  1  0.49613709  0.13167482  0.62180060  1
  V  V31  1  0.31116281  0.55953376  0.20901679  1
  V  V32  1  0.88392804  0.88495235  -0.00128539  1
  V  V33  1  0.76133777  0.01006294  0.75653154  1
  V  V34  1  0.74631942  -0.00172653  0.25965718  1
  V  V35  1  -0.00028905  0.37381460  0.37601054  1
  V  V36  1  0.50067266  0.37372744  0.37388690  1
  V  V37  1  0.24562242  0.74349497  0.50140459  1
  V  V38  1  0.12557926  0.24833422  0.37422237  1
  V  V39  1  0.75899022  0.87367377  0.62542629  1
  V  V40  1  0.25074621  0.37724694  0.12957423  1
  V  V41  1  0.12777496  0.50036091  0.62108319  1
  V  V42  1  0.63677692  0.62369438  -0.00193173  1
  V  V43  1  0.49155409  0.87908631  0.87344370  1
  V  V44  1  0.24646072  0.63328930  0.87129194  1
  V  V45  1  0.62814433  0.74832574  0.87508006  1
  V  V46  1  0.12133743  0.74546904  0.37755720  1
  V  V47  1  0.37409721  0.24149993  0.13014466  1
  V  V48  1  0.25845978  0.87162181  0.12678727  1
  V  V49  1  0.37173631  0.49934144  0.37578713  1
  V  V50  1  0.12686458  0.25290760  0.87632254  1
  V  V51  1  0.37736454  0.37014025  0.50838480  1
  V  V52  1  0.74918107  0.50206710  0.25207811  1
  V  V53  1  0.63294729  -0.00311115  0.12296527  1
  V  V54  1  0.37393951  0.87442582  0.49015080  1
  V  V55  1  -0.00442694  0.25078867  0.24198494  1
  V  V56  1  0.74209076  0.63711371  0.39693750  1
  V  V57  1  0.87518532  0.00315955  0.38254682  1
  V  V58  1  0.75069147  0.24668089  0.49067705  1
  V  V59  1  0.12093757  0.11834675  0.00014490  1
  V  V60  1  0.24845672  0.49923013  0.75026261  1
  V  V61  1  0.50371806  0.50160333  -0.00143784  1
  V  V62  1  0.25799417  0.12219841  0.87676041  1
  V  V63  1  0.37410658  0.50215588  0.87105299  1
  V  V64  1  0.62688855  0.50049369  0.12759326  1
  V  V65  1  0.49852033  -0.00389573  0.49532801  1
  V  V66  1  -0.01267254  0.37981685  0.87877459  1
  V  V67  1  0.62996681  0.12131926  0.49105184  1
  V  V68  1  -0.00172277  0.74655337  0.76036366  1
  V  V69  1  0.12784887  0.37728586  0.25024955  1
  V  V70  1  0.12428131  0.50451156  0.12962481  1
  V  V71  1  0.25761545  -0.00082702  0.75171434  1
  V  V72  1  0.73819089  0.37150870  0.63459008  1
  V  V73  1  0.47646383  0.74662463  0.24349645  1
  V  V74  1  0.00322992  0.50734439  0.50079890  1
  V  V75  1  0.50269892  0.37484170  0.86536959  1
  V  V76  1  0.24973138  0.25096436  0.00147599  1
  V  V77  1  0.00069609  0.62766976  0.62800581  1
  V  V78  1  0.00087693  0.88168386  0.38446479  1
  V  V79  1  0.12474973  0.37821891  0.75234508  1
  V  V80  1  0.12106568  0.62912244  -0.01032858  1
  V  V81  1  0.49757885  0.24031142  0.25080345  1
  V  V82  1  0.24378312  0.61684587  0.37826016  1
  V  V83  1  0.25784789  0.12529593  0.37192425  1
  V  V84  1  0.25331990  0.75034272  0.00349720  1
  Zn  Zn85  1  0.25449332  0.37002347  0.62901380  1
  Zn  Zn86  1  0.50071355  0.63005853  0.62255182  1
  Zn  Zn87  1  0.01181492  0.87805177  0.88230026  1
  Zn  Zn88  1  0.49078155  0.62664954  0.12614872  1
  Zn  Zn89  1  0.62909244  0.24320711  0.36943854  1
  Zn  Zn90  1  0.37936022  0.00021719  0.36814962  1
  Zn  Zn91  1  0.86862671  0.24278271  0.62922308  1
  Zn  Zn92  1  0.49904022  0.74824915  0.74753401  1
  Zn  Zn93  1  0.49633028  0.11931294  0.12907696  1
  Zn  Zn94  1  0.87890301  0.87243571  0.50171371  1
  Zn  Zn95  1  0.87285281  0.74472794  0.62765822  1
  Zn  Zn96  1  -0.00385995  0.75540992  0.25299236  1
  Zn  Zn97  1  0.77656429  0.53021656  0.77683274  1
  Zn  Zn98  1  0.37657947  0.87026295  0.00037526  1
  Zn  Zn99  1  0.55663315  0.80969037  0.40442816  1
  Zn  Zn100  1  0.89565128  0.01553233  0.87775810  1
  Zn  Zn101  1  -0.00723833  0.11702130  0.62579234  1
  Zn  Zn102  1  0.37871946  0.74682548  0.62421078  1
  Zn  Zn103  1  0.37828634  0.62861707  0.74472858  1
  Zn  Zn104  1  0.50130723  0.25431665  0.74284384  1
  Zn  Zn105  1  0.75642439  0.13072926  0.87411349  1
  Zn  Zn106  1  0.12230015  -0.00334733  0.12115387  1
  Zn  Zn107  1  0.18475223  0.18667630  0.18734328  1
  Zn  Zn108  1  0.18219243  0.18533144  0.68836721  1
  Zn  Zn109  1  0.18100537  0.69504753  0.18650177  1
  Zn  Zn110  1  0.18356252  0.68459863  0.68690765  1
  Zn  Zn111  1  0.68816534  0.18432926  0.18444562  1
  Zn  Zn112  1  0.68545200  0.18652401  0.68344925  1
  Zn  Zn113  1  0.68989617  0.68458834  0.18314326  1
  Zn  Zn114  1  0.68107050  0.68946899  0.68853466  1
  Zn  Zn115  1  0.31261532  0.31305766  0.31464531  1
  Zn  Zn116  1  0.31448772  0.31109905  0.81222999  1
  Zn  Zn117  1  0.30787871  0.80995230  0.31310271  1
  Zn  Zn118  1  0.31440356  0.80959738  0.81164723  1
  Zn  Zn119  1  0.81421748  0.31284997  0.31205590  1
  Zn  Zn120  1  0.81254268  0.31382813  0.81469531  1
  Zn  Zn121  1  0.80815710  0.81607065  0.31556069  1
  Zn  Zn122  1  0.81491918  0.81315305  0.81538118  1
  Zn  Zn123  1  0.18865880  0.43322188  0.43948362  1
  Zn  Zn124  1  0.18268720  0.44192285  0.93957407  1
  Zn  Zn125  1  0.18811532  0.93882402  0.43641690  1
  Zn  Zn126  1  0.19251851  0.93990890  0.93760886  1
  Zn  Zn127  1  0.69074285  0.43804872  0.43619314  1
  Zn  Zn128  1  0.68802369  0.43104938  0.93511187  1
  Zn  Zn129  1  0.68087198  0.91646772  0.44355645  1
  Zn  Zn130  1  0.68695306  0.93957322  0.93711078  1
  Zn  Zn131  1  0.31055256  0.06072557  0.06396582  1
  Zn  Zn132  1  0.31139602  0.06125440  0.56197203  1
  Zn  Zn133  1  0.31051916  0.56086940  0.04536359  1
  Zn  Zn134  1  0.31478809  0.56087320  0.56152029  1
  Zn  Zn135  1  0.81067140  0.06661832  0.06559612  1
  Zn  Zn136  1  0.81313160  0.06275687  0.56637235  1
  Zn  Zn137  1  0.81313649  0.56584414  -0.05493608  1
  Zn  Zn138  1  0.79304272  0.58125959  0.59813769  1
  Zn  Zn139  1  0.44420266  0.42872277  0.18368240  1
  Zn  Zn140  1  0.44003990  0.44248130  0.68492225  1
  Zn  Zn141  1  0.44362775  0.93190584  0.18651196  1
  Zn  Zn142  1  0.43725578  0.93812241  0.68397593  1
  Zn  Zn143  1  0.93906768  0.44265348  0.18930938  1
  Zn  Zn144  1  0.93649698  0.42994646  0.68247574  1
  Zn  Zn145  1  0.93537065  0.93989075  0.19153198  1
  Zn  Zn146  1  0.94212728  0.93641543  0.69895107  1
  Zn  Zn147  1  0.06258789  0.06290576  0.31094567  1
  Zn  Zn148  1  0.07072264  0.05985108  0.81333092  1
  Zn  Zn149  1  0.05988590  0.56395702  0.31217407  1
  Zn  Zn150  1  -0.05206644  0.56323699  0.81068487  1
  Zn  Zn151  1  0.56379482  0.05664976  0.31292998  1
  Zn  Zn152  1  0.56282843  0.06443831  0.81512946  1
  Zn  Zn153  1  0.56255457  0.57377593  0.31388853  1
  Zn  Zn154  1  0.56494716  0.56566094  0.81176410  1
  Zn  Zn155  1  0.43864648  0.18702313  0.43748404  1
  Zn  Zn156  1  0.43821307  0.18698902  0.93711397  1
  Zn  Zn157  1  0.42741577  0.68219040  0.43352374  1
  Zn  Zn158  1  0.43952668  0.68817509  0.93526220  1
  Zn  Zn159  1  0.93499441  0.18717099  0.43464463  1
  Zn  Zn160  1  0.93810065  0.19040592  0.93712849  1
  Zn  Zn161  1  0.93145059  0.69091522  0.44356772  1
  Zn  Zn162  1  0.93947887  0.69766530  0.94099483  1
  Zn  Zn163  1  0.06166001  0.31214168  0.06169850  1
  Zn  Zn164  1  0.06506486  0.31296187  0.56338536  1
  Zn  Zn165  1  0.06560201  0.81048489  0.06481065  1
  Zn  Zn166  1  0.06301838  0.81144523  0.56345673  1
  Zn  Zn167  1  0.56300373  0.31213788  0.06191718  1
  Zn  Zn168  1  0.56580103  0.31121940  0.55786875  1
  Zn  Zn169  1  0.55828307  0.81217590  0.06688377  1
  Zn  Zn170  1  0.56938334  0.81277092  0.57005397  1
  O  O171  1  0.11772724  0.12439560  0.11632483  1
  O  O172  1  0.12337248  0.11569617  0.61661123  1
  O  O173  1  0.11338311  0.62149638  0.12394505  1
  O  O174  1  0.11829675  0.60779470  0.62707609  1
  O  O175  1  0.62040263  0.11916872  0.11386482  1
  O  O176  1  0.61730272  0.11840904  0.61582302  1
  O  O177  1  0.62345577  0.61484951  0.11620706  1
  O  O178  1  0.62071211  0.60868039  0.61863147  1
  O  O179  1  0.37834100  0.38332503  0.38266637  1
  O  O180  1  0.38058215  0.38118167  0.88135169  1
  O  O181  1  0.36400502  0.87875823  0.38658293  1
  O  O182  1  0.38816817  0.87314147  0.87657972  1
  O  O183  1  0.88062614  0.38235392  0.37996563  1
  O  O184  1  0.88884067  0.37174249  0.87934950  1
  O  O185  1  0.88440295  0.88357361  0.37488802  1
  O  O186  1  0.87727381  0.87710736  0.89281356  1
  O  O187  1  0.25111611  0.00872268  0.36618725  1
  O  O188  1  0.24900819  0.01034480  0.86510188  1
  O  O189  1  0.25434665  0.50564397  0.37762226  1
  O  O190  1  0.25712051  0.50796389  0.87349947  1
  O  O191  1  0.75599922  -0.00938943  0.36443721  1
  O  O192  1  0.74683971  0.00315119  0.86185382  1
  O  O193  1  0.75813895  0.50641800  0.36985301  1
  O  O194  1  0.74045879  0.50933500  0.87990916  1
  O  O195  1  0.24679824  0.50211617  0.13371086  1
  O  O196  1  0.24371972  0.49591613  0.62954142  1
  O  O197  1  0.24488321  0.99426621  0.13210828  1
  O  O198  1  0.24360937  0.99209883  0.63016704  1
  O  O199  1  0.73528471  0.48910304  0.13357061  1
  O  O200  1  0.73141485  0.48186496  0.61001650  1
  O  O201  1  0.73767247  1.00435891  0.13321791  1
  O  O202  1  0.74500735  0.99674756  0.64046210  1
  O  O203  1  0.00600685  0.36908500  0.25369147  1
  O  O204  1  0.00826698  0.36824327  0.76171837  1
  O  O205  1  0.00870557  0.87574526  0.25832867  1
  O  O206  1  0.01477211  0.86247302  0.74927773  1
  O  O207  1  0.50840254  0.36447486  0.25482656  1
  O  O208  1  0.49250497  0.37313840  0.76135193  1
  O  O209  1  0.50836065  0.85600104  0.24345125  1
  O  O210  1  0.50914051  0.87979399  0.75716920  1
  O  O211  1  0.50430719  0.13653596  0.24992607  1
  O  O212  1  0.49148596  0.12281058  0.74166045  1
  O  O213  1  0.50130471  0.64011967  0.24424124  1
  O  O214  1  0.49784626  0.62720489  0.74583109  1
  O  O215  1  0.99534205  0.13331953  0.24267509  1
  O  O216  1  1.01404613  0.14268592  0.75055891  1
  O  O217  1  0.98768253  0.62793088  0.24549177  1
  O  O218  1  1.00885870  0.63965174  0.74472250  1
  O  O219  1  0.36990146  0.25474075  0.00721564  1
  O  O220  1  0.36627959  0.25797391  0.49371783  1
  O  O221  1  0.35946037  0.74776887  -0.00409495  1
  O  O222  1  0.36109061  0.75599778  0.49840400  1
  O  O223  1  0.85995021  0.25214293  0.00288383  1
  O  O224  1  0.86870688  0.26009473  0.49645601  1
  O  O225  1  0.86734019  0.76139949  0.00822476  1
  O  O226  1  0.88483222  0.75999100  0.51473206  1
  O  O227  1  0.13335836  0.24511563  0.49339770  1
  O  O228  1  0.13274880  0.24288703  0.99643120  1
  O  O229  1  0.13657995  0.75451349  0.49022511  1
  O  O230  1  0.13553906  0.73938200  1.00439392  1
  O  O231  1  0.63241785  0.24002803  0.49482447  1
  O  O232  1  0.62572781  0.24291194  0.99297671  1
  O  O233  1  0.63430710  0.81310809  0.48152315  1
  O  O234  1  0.63086908  0.74638195  0.99768320  1
  O  O235  1  0.49102572  0.25000690  0.13242059  1
  O  O236  1  0.50635146  0.23628824  0.62457507  1
  O  O237  1  0.49785494  0.74397438  0.13603406  1
  O  O238  1  0.49974295  0.74964076  0.62622351  1
  O  O239  1  1.00536221  0.24477952  0.13740122  1
  O  O240  1  1.00296850  0.25451442  0.64231410  1
  O  O241  1  0.99473299  0.74370943  0.12988778  1
  O  O242  1  1.00863813  0.74067075  0.63481716  1
  O  O243  1  0.00586990  0.25518266  0.36521039  1
  O  O244  1  0.00741653  0.26047575  0.86899716  1
  O  O245  1  0.00831106  0.75665497  0.37458913  1
  O  O246  1  0.00490619  0.75662501  0.86348900  1
  O  O247  1  0.50221067  0.25560504  0.36721632  1
  O  O248  1  0.50546091  0.25877541  0.87464604  1
  O  O249  1  0.48637131  0.74281608  0.35649358  1
  O  O250  1  0.51196166  0.76126744  0.87740152  1
  O  O251  1  0.24326282  0.13089677  0.49284656  1
  O  O252  1  0.24596899  0.12970371  0.99339471  1
  O  O253  1  0.25118685  0.63032195  0.48845398  1
  O  O254  1  0.24118880  0.63159508  0.99329821  1
  O  O255  1  0.74041351  0.13331489  0.50585963  1
  O  O256  1  0.74150960  0.13960573  1.00434243  1
  O  O257  1  0.75744562  0.62225660  0.49502910  1
  O  O258  1  0.73898117  0.63849223  1.00241273  1
  O  O259  1  0.25407518  0.37255203  0.00796988  1
  O  O260  1  0.25918055  0.36395238  0.50095445  1
  O  O261  1  0.25035775  0.86796330  0.00731603  1
  O  O262  1  0.25296969  0.86820872  0.50643564  1
  O  O263  1  0.74294552  0.36251156  0.01125867  1
  O  O264  1  0.75643080  0.36689412  0.50383546  1
  O  O265  1  0.75664882  0.86797767  0.00022273  1
  O  O266  1  0.76097527  0.89399421  0.52410892  1
  O  O267  1  0.11667730  0.49465779  0.23751520  1
  O  O268  1  0.13157152  0.48596109  0.74244179  1
  O  O269  1  0.13471993  0.98980218  0.25141438  1
  O  O270  1  0.14060536  0.99351514  0.74100167  1
  O  O271  1  0.62570671  0.49469373  0.24429560  1
  O  O272  1  0.62567739  0.50001008  0.73584341  1
  O  O273  1  0.63112056  1.00097543  0.23951495  1
  O  O274  1  0.63071416  0.99606145  0.74718662  1
  O  O275  1  0.36367022  -0.00621341  0.24887068  1
  O  O276  1  0.36330410  0.00899001  0.74325981  1
  O  O277  1  0.37434577  0.48863898  0.25750544  1
  O  O278  1  0.36912735  0.49819982  0.76020468  1
  O  O279  1  0.86402012  0.00611060  0.25557764  1
  O  O280  1  0.86356106  -0.00153154  0.75683499  1
  O  O281  1  0.87110755  0.51002444  0.25660997  1
  O  O282  1  0.88149497  0.49299216  0.75342877  1
  O  O283  1  0.11973615  0.36959044  0.36881812  1
  O  O284  1  0.12255128  0.37086109  0.86933399  1
  O  O285  1  0.12072024  0.86967189  0.36944305  1
  O  O286  1  0.13443067  0.87598161  0.86184288  1
  O  O287  1  0.62189764  0.37465174  0.36135007  1
  O  O288  1  0.61241712  0.36521061  0.88030409  1
  O  O289  1  0.61722294  0.89185264  0.34554294  1
  O  O290  1  0.61941626  0.87159861  0.86764848  1
  O  O291  1  0.37528464  0.13777624  0.12256769  1
  O  O292  1  0.38359560  0.12096881  0.63131705  1
  O  O293  1  0.36978654  0.60438953  0.13437756  1
  O  O294  1  0.37961281  0.62591243  0.62517823  1
  O  O295  1  0.88291433  0.12316690  0.13710507  1
  O  O296  1  0.88212825  0.13151303  0.61937973  1
  O  O297  1  0.88682453  0.63821737  0.13392179  1
  O  O298  1  0.89826908  0.62383461  0.61980825  1
  O  O299  1  0.25618830  0.25487990  0.12154207  1
  O  O300  1  0.24508202  0.24861739  0.61237611  1
  O  O301  1  0.24604009  0.75909953  0.11723342  1
  O  O302  1  0.24745139  0.75561062  0.61590886  1
  O  O303  1  0.74389053  0.25905750  0.11408821  1
  O  O304  1  0.74554112  0.25983071  0.61475170  1
  O  O305  1  0.76017660  0.74785039  0.11611614  1
  O  O306  1  0.75014604  0.77151184  0.63409103  1
  O  O307  1  0.24404567  0.24277288  0.38075399  1
  O  O308  1  0.24648815  0.24453159  0.88184650  1
  O  O309  1  0.24206714  0.73963003  0.38050570  1
  O  O310  1  0.25018637  0.73774793  0.87953470  1
  O  O311  1  0.74799377  0.25356021  0.38617512  1
  O  O312  1  0.74196352  0.25498619  0.88756577  1
  O  O313  1  0.75705014  0.73506507  0.37697628  1
  O  O314  1  0.73684212  0.75713594  0.88339228  1
  O  O315  1  0.00989965  0.13668674  0.01146067  1
  O  O316  1  0.01539357  0.13297652  0.49895715  1
  O  O317  1  0.00600993  0.62172220  0.00880746  1
  O  O318  1  0.00286438  0.61079769  0.50235153  1
  O  O319  1  0.50670011  0.11782328  0.00075396  1
  O  O320  1  0.50508706  0.11905677  0.50597050  1
  O  O321  1  0.50334733  0.61303564  0.00254298  1
  O  O322  1  0.49424406  0.60924828  0.49651352  1
  O  O323  1  0.49410128  0.37841515  0.49178094  1
  O  O324  1  0.49578997  0.38594977  0.99434107  1
  O  O325  1  0.48644276  0.88210693  0.50105107  1
  O  O326  1  0.49924447  0.88227700  0.99364511  1
  O  O327  1  0.99279755  0.37675273  0.49511101  1
  O  O328  1  1.00742968  0.38272054  0.98859781  1
  O  O329  1  1.00592112  0.87932031  0.48777469  1
  O  O330  1  0.98833779  0.87037047  1.00155705  1
  O  O331  1  0.49335545  0.49619945  0.38035262  1
  O  O332  1  0.49493173  0.49438591  0.87994146  1
  O  O333  1  0.49523496  1.00627248  0.38966365  1
  O  O334  1  0.50818951  0.99099910  0.88660586  1
  O  O335  1  0.99595378  0.49450842  0.38208750  1
  O  O336  1  1.00501961  0.48676986  0.88498306  1
  O  O337  1  0.98978328  0.99264444  0.36692043  1
  O  O338  1  1.00491829  0.99027495  0.86714758  1
  O  O339  1  0.00387298  0.01457372  0.13229110  1
  O  O340  1  0.01597212  -0.00145768  0.63422483  1
  O  O341  1  0.00647771  0.50804775  0.11986958  1
  O  O342  1  0.00868423  0.50076146  0.61798525  1
  O  O343  1  0.51020629  0.00066190  0.11782379  1
  O  O344  1  0.50532334  0.00701768  0.61478916  1
  O  O345  1  0.51024405  0.49820156  0.11685239  1
  O  O346  1  0.51308965  0.49515715  0.61267703  1
  O  O347  1  0.23873344  0.36940239  0.24389590  1
  O  O348  1  0.24431955  0.37918040  0.75008751  1
  O  O349  1  0.24314200  0.88049300  0.24433695  1
  O  O350  1  0.24908423  0.88022752  0.74270421  1
  O  O351  1  0.74341561  0.37951625  0.24526654  1
  O  O352  1  0.75215964  0.37004963  0.73356632  1
  O  O353  1  0.73807657  0.88221515  0.24742417  1
  O  O354  1  0.74554673  0.88648766  0.74881200  1
  O  O355  1  0.24340311  0.11590015  0.25824831  1
  O  O356  1  0.25513021  0.11986533  0.75525153  1
  O  O357  1  0.24472186  0.62525797  0.25813970  1
  O  O358  1  0.24914013  0.61733376  0.75773197  1
  O  O359  1  0.75767670  0.11720245  0.24751038  1
  O  O360  1  0.74515324  0.11294228  0.75088083  1
  O  O361  1  0.76128874  0.61934776  0.24975248  1
  O  O362  1  0.75961361  0.61405372  0.70433102  1
  O  O363  1  0.36129432  0.12389179  0.37778611  1
  O  O364  1  0.36369972  0.12902768  0.86809067  1
  O  O365  1  0.36246254  0.60740461  0.37108475  1
  O  O366  1  0.36630309  0.61602262  0.87529382  1
  O  O367  1  0.88097001  0.11627138  0.36112014  1
  O  O368  1  0.86846796  0.12400308  0.88420089  1
  O  O369  1  0.87103838  0.62043029  0.36937565  1
  O  O370  1  0.88295414  0.62530491  0.87972554  1
  O  O371  1  0.13101683  0.38524822  0.12819531  1
  O  O372  1  0.12795855  0.38185437  0.63409063  1
  O  O373  1  0.13209236  0.87691831  0.13404671  1
  O  O374  1  0.13674883  0.88005396  0.62948355  1
  O  O375  1  0.62603821  0.38001988  0.13611671  1
  O  O376  1  0.63235041  0.37845231  0.62402031  1
  O  O377  1  0.62195009  0.88409318  0.13531938  1
  O  O378  1  0.63522896  0.88476789  0.64137506  1
  O  O379  1  0.11717019  0.25580419  0.25540192  1
  O  O380  1  0.12149762  0.26111596  0.75556209  1
  O  O381  1  0.12384022  0.76303789  0.26086046  1
  O  O382  1  0.11947016  0.75866618  0.74682096  1
  O  O383  1  0.61904420  0.25571279  0.24910857  1
  O  O384  1  0.62263447  0.24121510  0.76549410  1
  O  O385  1  0.63039419  0.76012292  0.24702837  1
  O  O386  1  0.62441315  0.76022546  0.75946828  1
  O  O387  1  0.38440143  0.25746984  0.24145841  1
  O  O388  1  0.37722184  0.23638803  0.75061272  1
  O  O389  1  0.37726820  0.75225071  0.24291388  1
  O  O390  1  0.37898368  0.74836974  0.74447789  1
  O  O391  1  0.88375080  0.24148255  0.25543959  1
  O  O392  1  0.89129525  0.25474455  0.75142047  1
  O  O393  1  0.87348485  0.74672309  0.24436334  1
  O  O394  1  0.89405302  0.75842384  0.74703006  1
  O  O395  1  0.38339487  0.48994139  0.49207492  1
  O  O396  1  0.38285532  0.49386058  0.98780915  1
  O  O397  1  0.38061716  0.99223419  0.49885996  1
  O  O398  1  0.38882796  0.99981928  1.00446066  1
  O  O399  1  0.88515666  0.48612935  0.49670903  1
  O  O400  1  0.88831341  0.50305057  1.01026445  1
  O  O401  1  0.87220910  1.00183919  0.48474564  1
  O  O402  1  0.86913758  0.98614458  1.00545934  1
  O  O403  1  0.13024352  0.01474371  0.00041094  1
  O  O404  1  0.13296762  0.00935126  0.50950206  1
  O  O405  1  0.12097697  0.50966799  0.01430866  1
  O  O406  1  0.11552304  0.48794022  0.50950567  1
  O  O407  1  0.62137482  0.00768525  0.00607162  1
  O  O408  1  0.61826654  0.00361867  0.50632301  1
  O  O409  1  0.61960392  0.50608610  0.00660066  1
  O  O410  1  0.61062782  0.49126401  0.49975038  1
  O  O411  1  0.36909478  0.36743045  0.11847000  1
  O  O412  1  0.37551676  0.37832811  0.61220754  1
  O  O413  1  0.36153988  0.87960370  0.12194496  1
  O  O414  1  0.36226828  0.87563059  0.61528655  1
  O  O415  1  0.86310136  0.37820011  0.13345274  1
  O  O416  1  0.86342807  0.36683149  0.61564438  1
  O  O417  1  0.88173522  0.86590413  0.11822905  1
  O  O418  1  0.86516640  0.88084905  0.63259054  1
  O  O419  1  0.13280945  0.12854803  0.38094702  1
  O  O420  1  0.13649264  0.13328648  0.88128173  1
  O  O421  1  0.12967111  0.63509681  0.36994226  1
  O  O422  1  0.13346823  0.61738580  0.88901505  1
  O  O423  1  0.62304077  0.12286660  0.38749591  1
  O  O424  1  0.62877330  0.13188064  0.88718520  1
  O  O425  1  0.64333627  0.62043136  0.37834916  1
  O  O426  1  0.61754333  0.63666963  0.88669567  1
