# generated using pymatgen
data_V85Zn86O256
_symmetry_space_group_name_H-M   'P 1'
_cell_length_a   16.95543798
_cell_length_b   16.95590139
_cell_length_c   16.94139947
_cell_angle_alpha   90.04825665
_cell_angle_beta   89.96800414
_cell_angle_gamma   89.93735547
_symmetry_Int_Tables_number   1
_chemical_formula_structural   V85Zn86O256
_chemical_formula_sum   'V85 Zn86 O256'
_cell_volume   4870.55774284
_cell_formula_units_Z   1
loop_
 _symmetry_equiv_pos_site_id
 _symmetry_equiv_pos_as_xyz
  1  'x, y, z'
loop_
 _atom_site_type_symbol
 _atom_site_label
 _atom_site_symmetry_multiplicity
 _atom_site_fract_x
 _atom_site_fract_y
 _atom_site_fract_z
 _atom_site_occupancy
  V  V0  1  0.74730197  -0.00109808  0.74854043  1
  V  V1  1  0.49780135  0.25095215  0.23977749  1
  V  V2  1  0.24810333  0.74837675  0.00747828  1
  V  V3  1  -0.00163194  0.38496170  0.37924416  1
  V  V4  1  0.87833931  0.38746572  0.49833191  1
  V  V5  1  -0.00417132  0.24991741  0.25329577  1
  V  V6  1  0.49373153  0.74646772  0.74878892  1
  V  V7  1  0.87296121  0.12319439  0.74965794  1
  V  V8  1  0.74906114  0.00339717  0.25533979  1
  V  V9  1  0.75034300  0.62489507  0.87770588  1
  V  V10  1  0.37997049  0.62037697  0.24899216  1
  V  V11  1  0.74975726  0.37393070  0.12624719  1
  V  V12  1  0.75033405  0.49991211  0.74888638  1
  V  V13  1  0.25799345  0.13228203  0.37117010  1
  V  V14  1  0.88278516  0.62571753  0.74385540  1
  V  V15  1  0.24364840  0.50450744  0.25162270  1
  V  V16  1  0.24473152  0.49386101  0.73771697  1
  V  V17  1  0.12527777  0.12742642  0.00147933  1
  V  V18  1  0.87511878  0.37386484  0.00004832  1
  V  V19  1  0.37517734  -0.00017687  0.87593743  1
  V  V20  1  0.12463928  0.75870449  0.87488703  1
  V  V21  1  0.62531195  0.51372753  0.12065548  1
  V  V22  1  0.14654041  0.68685140  0.44345183  1
  V  V23  1  0.24906346  0.25664648  0.50282029  1
  V  V24  1  0.75779565  0.49896137  0.25628330  1
  V  V25  1  0.25019200  0.12563677  0.87606359  1
  V  V26  1  0.37521159  0.12500276  0.74970829  1
  V  V27  1  0.00265857  0.75673959  0.74817048  1
  V  V28  1  0.62079257  0.00356873  0.12708773  1
  V  V29  1  0.11366532  0.49620828  0.61126295  1
  V  V30  1  0.12278951  0.37554281  0.23803367  1
  V  V31  1  0.37156311  0.25682985  0.62366219  1
  V  V32  1  0.87758676  0.87178058  0.00212089  1
  V  V33  1  0.00470450  0.49970989  0.00752499  1
  V  V34  1  0.87245628  0.24890357  0.61840622  1
  V  V35  1  0.50150757  0.00118670  0.00366355  1
  V  V36  1  0.87550452  0.49918781  0.87541974  1
  V  V37  1  0.75222947  0.74758305  0.00778689  1
  V  V38  1  0.76334032  0.62190405  0.37911712  1
  V  V39  1  0.00469991  0.11367127  0.62400267  1
  V  V40  1  0.62529856  0.37506522  0.74950713  1
  V  V41  1  0.49896491  0.38384155  0.38119411  1
  V  V42  1  0.74983250  0.37063859  0.61786056  1
  V  V43  1  0.62294938  0.62027585  0.50110141  1
  V  V44  1  0.91643022  0.06865871  0.30974552  1
  V  V45  1  0.75335359  0.75107655  0.50322832  1
  V  V46  1  0.25686683  -0.00221870  0.25103316  1
  V  V47  1  0.62229631  0.74747223  0.37786515  1
  V  V48  1  0.00960693  0.63157471  0.12525146  1
  V  V49  1  0.62283641  0.12717769  0.00602852  1
  V  V50  1  0.87256808  0.63255926  0.23728019  1
  V  V51  1  0.62243488  0.11506566  0.49797924  1
  V  V52  1  0.50002957  0.87328243  0.87575721  1
  V  V53  1  0.26524913  0.25209398  0.00613665  1
  V  V54  1  0.38008229  0.13025716  0.23494114  1
  V  V55  1  0.49558372  0.61976425  0.62362360  1
  V  V56  1  0.12659119  -0.00399420  0.12368512  1
  V  V57  1  0.37397738  0.84376169  0.52520387  1
  V  V58  1  0.62694146  0.24966224  0.87647783  1
  V  V59  1  0.62104433  0.49890950  0.62414824  1
  V  V60  1  0.36837579  0.62592102  0.74604531  1
  V  V61  1  0.62389885  0.25266262  0.38523068  1
  V  V62  1  0.62613655  0.74676020  0.88118936  1
  V  V63  1  0.12570466  0.37375625  0.74840778  1
  V  V64  1  0.87824073  0.88473764  0.48978344  1
  V  V65  1  0.49830561  0.74502951  0.24385587  1
  V  V66  1  0.24640108  0.62079060  0.87732514  1
  V  V67  1  -0.00454191  0.76338101  0.25371560  1
  V  V68  1  0.12896134  0.11533087  0.50094242  1
  V  V69  1  0.62435604  0.87292885  0.74769553  1
  V  V70  1  0.26771832  0.37629219  0.12227500  1
  V  V71  1  0.38095806  -0.00382271  0.38288339  1
  V  V72  1  0.36999205  0.48758288  0.88224358  1
  V  V73  1  0.49867144  0.11948814  0.61847635  1
  V  V74  1  0.50061698  0.25092286  0.74959795  1
  V  V75  1  0.62703157  0.37504282  0.25342168  1
  V  V76  1  -0.00769113  0.12260302  0.12430039  1
  V  V77  1  0.37464002  0.87245310  0.00375802  1
  V  V78  1  0.37519194  0.38851182  0.50414053  1
  V  V79  1  0.87384613  0.24667083  0.12661944  1
  V  V80  1  0.23985222  -0.00325546  0.74069378  1
  V  V81  1  0.00021294  0.24967855  0.75022675  1
  V  V82  1  0.62284636  0.87520612  0.25266530  1
  V  V83  1  0.12322314  0.87750084  0.27020655  1
  V  V84  1  0.74961111  0.13035736  0.37732925  1
  Zn  Zn85  1  0.37072762  0.50569221  0.37995523  1
  Zn  Zn86  1  0.22649846  0.84777742  0.64526367  1
  Zn  Zn87  1  0.37926213  0.74228754  0.12529894  1
  Zn  Zn88  1  0.25027253  0.87006404  0.13083700  1
  Zn  Zn89  1  0.75114343  0.87235386  0.12808515  1
  Zn  Zn90  1  0.74905164  0.12279757  0.87626348  1
  Zn  Zn91  1  0.00100489  0.87888084  0.87052622  1
  Zn  Zn92  1  0.12485386  0.25068776  0.87625607  1
  Zn  Zn93  1  0.12731190  0.62038587  0.00435122  1
  Zn  Zn94  1  0.00855890  0.62704340  0.59217568  1
  Zn  Zn95  1  0.87581859  -0.00238223  0.87416275  1
  Zn  Zn96  1  0.87975168  0.75072446  0.62082581  1
  Zn  Zn97  1  0.49395672  0.50590284  0.01294059  1
  Zn  Zn98  1  0.75080374  0.24675413  0.00132236  1
  Zn  Zn99  1  0.12571115  0.25393550  0.37604894  1
  Zn  Zn100  1  0.74994440  0.87466849  0.62336861  1
  Zn  Zn101  1  -0.00186669  -0.00059780  -0.00409472  1
  Zn  Zn102  1  0.49906223  0.87815581  0.38491570  1
  Zn  Zn103  1  -0.00017087  0.37547262  0.87595103  1
  Zn  Zn104  1  -0.00170605  -0.00053697  0.48771575  1
  Zn  Zn105  1  0.49498049  0.37247182  0.88619965  1
  Zn  Zn106  1  0.61827420  -0.00517924  0.62066963  1
  Zn  Zn107  1  0.18700449  0.19095677  0.18521297  1
  Zn  Zn108  1  0.18708968  0.18510696  0.68535609  1
  Zn  Zn109  1  0.18494470  0.69014451  0.27479438  1
  Zn  Zn110  1  0.17668856  0.67710347  0.69090499  1
  Zn  Zn111  1  0.68474231  0.18758568  0.19229486  1
  Zn  Zn112  1  0.68694295  0.18602610  0.68410592  1
  Zn  Zn113  1  0.68791609  0.68819392  0.19190238  1
  Zn  Zn114  1  0.68661503  0.68530685  0.69069146  1
  Zn  Zn115  1  0.31623280  0.31766930  0.31170969  1
  Zn  Zn116  1  0.30700545  0.30979071  0.81074014  1
  Zn  Zn117  1  0.30494621  0.80708128  0.32765315  1
  Zn  Zn118  1  0.30960170  0.81133276  0.81426359  1
  Zn  Zn119  1  0.81464327  0.30952376  0.31651830  1
  Zn  Zn120  1  0.81173176  0.31170730  0.81029101  1
  Zn  Zn121  1  0.81139585  0.81042605  0.31352015  1
  Zn  Zn122  1  0.81463652  0.81186226  0.81388550  1
  Zn  Zn123  1  0.18722483  0.43457624  0.43252358  1
  Zn  Zn124  1  0.18555558  0.43322208  0.93788299  1
  Zn  Zn125  1  0.16940692  0.89522465  0.48016826  1
  Zn  Zn126  1  0.18955727  0.93876852  0.93721282  1
  Zn  Zn127  1  0.69004616  0.43834231  0.44071312  1
  Zn  Zn128  1  0.68551187  0.43499252  0.93945877  1
  Zn  Zn129  1  0.69061278  0.93698986  0.43562091  1
  Zn  Zn130  1  0.69083594  0.93580223  0.93626455  1
  Zn  Zn131  1  0.31261946  0.06156182  0.06302268  1
  Zn  Zn132  1  0.31345113  0.06694799  0.56036537  1
  Zn  Zn133  1  0.31018910  0.56257482  0.07029356  1
  Zn  Zn134  1  0.29981338  0.67258140  0.56451903  1
  Zn  Zn135  1  0.80807209  0.05740716  0.06274943  1
  Zn  Zn136  1  0.80779076  0.06176861  0.56266258  1
  Zn  Zn137  1  0.81074671  0.56034140  0.06156821  1
  Zn  Zn138  1  0.81393272  0.56340182  0.56606132  1
  Zn  Zn139  1  0.44147952  0.44013427  0.19086811  1
  Zn  Zn140  1  0.43542749  0.43910977  0.69335336  1
  Zn  Zn141  1  0.43962854  0.93486797  0.18961124  1
  Zn  Zn142  1  0.43331847  0.93767689  0.68887107  1
  Zn  Zn143  1  0.93599120  0.44033453  0.18876427  1
  Zn  Zn144  1  0.94001146  0.43754061  0.68565219  1
  Zn  Zn145  1  0.93697858  0.93358497  0.17733010  1
  Zn  Zn146  1  0.93128596  0.93362540  0.68122807  1
  Zn  Zn147  1  0.08160812  0.06375194  0.31458929  1
  Zn  Zn148  1  0.06173815  0.06172654  0.81420242  1
  Zn  Zn149  1  0.05497782  0.55823105  0.30611640  1
  Zn  Zn150  1  0.06177543  0.56231371  0.81539966  1
  Zn  Zn151  1  0.55934583  0.06654984  0.31194174  1
  Zn  Zn152  1  0.56257200  0.06307959  0.81380145  1
  Zn  Zn153  1  0.56694402  0.56275498  0.30922339  1
  Zn  Zn154  1  0.54169359  0.57901200  0.85048940  1
  Zn  Zn155  1  0.43838844  0.19233749  0.43546759  1
  Zn  Zn156  1  0.44211138  0.18643783  0.93916705  1
  Zn  Zn157  1  0.44107608  0.67884654  0.43191504  1
  Zn  Zn158  1  0.43324833  0.68137802  0.94059644  1
  Zn  Zn159  1  0.94284464  0.19653652  0.44421891  1
  Zn  Zn160  1  0.93655939  0.18602213  0.93570420  1
  Zn  Zn161  1  0.94591961  0.69064769  0.43544013  1
  Zn  Zn162  1  0.93659717  0.68872216  0.93713137  1
  Zn  Zn163  1  0.06264250  0.30914069  0.06127824  1
  Zn  Zn164  1  0.06323911  0.30998625  0.56404479  1
  Zn  Zn165  1  0.06206107  0.80894405  0.06569066  1
  Zn  Zn166  1  0.05628789  0.81910958  0.56931823  1
  Zn  Zn167  1  0.56102417  0.32231897  0.06043924  1
  Zn  Zn168  1  0.55866644  0.31039384  0.56145403  1
  Zn  Zn169  1  0.56577113  0.81360270  0.06446040  1
  Zn  Zn170  1  0.55739870  0.80772138  0.56376961  1
  O  O171  1  0.11684788  0.11703367  0.12132195  1
  O  O172  1  0.11648103  0.12799185  0.61454682  1
  O  O173  1  0.10803149  0.62522400  0.12504841  1
  O  O174  1  0.11588877  0.59989475  0.63466881  1
  O  O175  1  0.62779178  0.11724488  0.11849883  1
  O  O176  1  0.61682808  0.12531477  0.61474716  1
  O  O177  1  0.63075200  0.61209010  0.12982066  1
  O  O178  1  0.61835333  0.61525676  0.62455496  1
  O  O179  1  0.38387646  0.37808008  0.38449057  1
  O  O180  1  0.36669000  0.38440167  0.87450836  1
  O  O181  1  0.37805786  0.89136116  0.36464207  1
  O  O182  1  0.37980261  0.87853742  0.88597741  1
  O  O183  1  0.88770837  0.36748364  0.38442553  1
  O  O184  1  0.87490528  0.38040583  0.88092512  1
  O  O185  1  0.86394791  0.87498635  0.39076187  1
  O  O186  1  0.87589031  0.87628526  0.88668393  1
  O  O187  1  0.26408221  0.01298182  0.35915779  1
  O  O188  1  0.25518285  0.01099886  0.87091113  1
  O  O189  1  0.25196210  0.48911570  0.35493551  1
  O  O190  1  0.25376022  0.50309443  0.87053720  1
  O  O191  1  0.74538337  0.00939552  0.36297950  1
  O  O192  1  0.74950497  0.00172531  0.86074475  1
  O  O193  1  0.74534107  0.51001886  0.36854571  1
  O  O194  1  0.75416348  0.50628683  0.87037696  1
  O  O195  1  0.25093664  0.48372502  0.13325637  1
  O  O196  1  0.23393753  0.49692427  0.63865005  1
  O  O197  1  0.24450773  0.99983472  0.13551166  1
  O  O198  1  0.25900122  1.00958154  0.64222992  1
  O  O199  1  0.74582667  0.49253674  0.13424300  1
  O  O200  1  0.74426397  0.49254971  0.63066522  1
  O  O201  1  0.73846970  1.00031894  0.13865545  1
  O  O202  1  0.74142453  0.99885852  0.63649683  1
  O  O203  1  0.00369945  0.36928432  0.25525659  1
  O  O204  1  0.00324508  0.36477186  0.75221553  1
  O  O205  1  0.00471235  0.87021681  0.24365496  1
  O  O206  1  -0.00806269  0.86099002  0.74961909  1
  O  O207  1  0.50538338  0.36707138  0.25852171  1
  O  O208  1  0.50497096  0.36066840  0.74815139  1
  O  O209  1  0.51196841  0.86878591  0.25437066  1
  O  O210  1  0.50362152  0.86672070  0.75492675  1
  O  O211  1  0.49464587  0.14159503  0.25276892  1
  O  O212  1  0.49564619  0.13492475  0.74559942  1
  O  O213  1  0.49547886  0.63352096  0.25336131  1
  O  O214  1  0.48864387  0.62981014  0.75116954  1
  O  O215  1  0.99262887  0.12774076  0.24833733  1
  O  O216  1  0.99345508  0.12936292  0.74306101  1
  O  O217  1  0.99089090  0.63324926  0.23934040  1
  O  O218  1  0.98787681  0.63269003  0.75837597  1
  O  O219  1  0.36447374  0.24459026  -0.00132945  1
  O  O220  1  0.36860174  0.25531211  0.50761598  1
  O  O221  1  0.36952471  0.75559112  -0.00045963  1
  O  O222  1  0.37427625  0.74048780  0.50575282  1
  O  O223  1  0.87409087  0.25552102  0.00664788  1
  O  O224  1  0.87746886  0.25904240  0.51492734  1
  O  O225  1  0.86555572  0.76083550  -0.00482659  1
  O  O226  1  0.86763385  0.75506182  0.49796290  1
  O  O227  1  0.13419378  0.24375431  0.49887305  1
  O  O228  1  0.13214521  0.23769027  1.00103953  1
  O  O229  1  0.12706869  0.78020993  0.48308594  1
  O  O230  1  0.13199517  0.74561728  0.99434466  1
  O  O231  1  0.62131419  0.24178017  0.48953701  1
  O  O232  1  0.62462366  0.24357345  0.99387773  1
  O  O233  1  0.62988083  0.74348190  0.49414779  1
  O  O234  1  0.63156389  0.75616897  0.98640047  1
  O  O235  1  0.50899369  0.25741140  0.14154656  1
  O  O236  1  0.49452273  0.24086954  0.63254023  1
  O  O237  1  0.50204688  0.75431521  0.13929518  1
  O  O238  1  0.50744305  0.73423411  0.64138794  1
  O  O239  1  0.99583150  0.23970209  0.13193992  1
  O  O240  1  0.99225325  0.24242267  0.63433215  1
  O  O241  1  0.99638948  0.73765719  0.12986316  1
  O  O242  1  1.00199388  0.74282358  0.63374242  1
  O  O243  1  0.00294921  0.25704233  0.36627459  1
  O  O244  1  0.00085555  0.24778521  0.86106309  1
  O  O245  1  -0.00450417  0.75450864  0.35188226  1
  O  O246  1  0.00865602  0.75128117  0.87007060  1
  O  O247  1  0.50778772  0.26089792  0.36896003  1
  O  O248  1  0.50935552  0.25198410  0.86810419  1
  O  O249  1  0.51199914  0.74993862  0.36804815  1
  O  O250  1  0.50841352  0.75341837  0.86729174  1
  O  O251  1  0.24726212  0.13480469  0.49169749  1
  O  O252  1  0.24490063  0.13031213  0.99616856  1
  O  O253  1  0.21421060  0.63681266  0.49797549  1
  O  O254  1  0.24898919  0.62995049  0.99507382  1
  O  O255  1  0.74059703  0.12144927  0.48709994  1
  O  O256  1  0.73759243  0.12572631  0.99779909  1
  O  O257  1  0.74611180  0.62935030  0.49468549  1
  O  O258  1  0.75735425  0.63328266  0.98880054  1
  O  O259  1  0.24460467  0.36758968  0.01450011  1
  O  O260  1  0.25704141  0.36225155  0.49441021  1
  O  O261  1  0.25935806  0.86783297  -0.00040726  1
  O  O262  1  0.28434790  0.87506359  0.49104323  1
  O  O263  1  0.75616227  0.37104129  0.01035623  1
  O  O264  1  0.75780768  0.37577734  0.51137156  1
  O  O265  1  0.75731021  0.86579973  -0.00003352  1
  O  O266  1  0.75269758  0.86633105  0.50225187  1
  O  O267  1  0.13574713  0.49099808  0.24843835  1
  O  O268  1  0.12710528  0.48894330  0.75266065  1
  O  O269  1  0.13526189  0.99539314  0.24116311  1
  O  O270  1  0.14162320  1.00782212  0.75161534  1
  O  O271  1  0.63814909  0.49366768  0.24369440  1
  O  O272  1  0.63266869  0.49142445  0.73855106  1
  O  O273  1  0.62743707  0.99498456  0.24669614  1
  O  O274  1  0.62815748  0.98999852  0.74973021  1
  O  O275  1  0.37183937  0.00940950  0.25018765  1
  O  O276  1  0.37100499  0.00790249  0.75950995  1
  O  O277  1  0.36641781  0.50377594  0.25141045  1
  O  O278  1  0.35953234  0.50405795  0.75414061  1
  O  O279  1  0.86625610  0.00010415  0.24536648  1
  O  O280  1  0.86570812  0.00695462  0.74781101  1
  O  O281  1  0.86340985  0.51037300  0.24851853  1
  O  O282  1  0.87135076  0.50583100  0.75435841  1
  O  O283  1  0.11309235  0.37262918  0.36352044  1
  O  O284  1  0.12006583  0.36933726  0.86508701  1
  O  O285  1  0.12619129  0.89426092  0.36734941  1
  O  O286  1  0.12465400  0.86253377  0.88060918  1
  O  O287  1  0.62134992  0.36966419  0.37399441  1
  O  O288  1  0.62522404  0.36707242  0.86702858  1
  O  O289  1  0.62136974  0.86656325  0.37168671  1
  O  O290  1  0.62099859  0.86765815  0.86551037  1
  O  O291  1  0.37409947  0.12472850  0.13553660  1
  O  O292  1  0.38200623  0.13603109  0.62838073  1
  O  O293  1  0.37763783  0.62498155  0.13888149  1
  O  O294  1  0.38081400  0.61965211  0.63840116  1
  O  O295  1  0.88567282  0.12629672  0.11872635  1
  O  O296  1  0.87825897  0.13112631  0.63205104  1
  O  O297  1  0.87391529  0.62515189  0.13499337  1
  O  O298  1  0.88652588  0.62678051  0.62921161  1
  O  O299  1  0.24795556  0.26370696  0.11928114  1
  O  O300  1  0.26076388  0.24443457  0.61671129  1
  O  O301  1  0.25360018  0.75129136  0.11045848  1
  O  O302  1  0.25344262  0.74028151  0.64263367  1
  O  O303  1  0.75602453  0.25636632  0.12846409  1
  O  O304  1  0.75944752  0.25892947  0.63154311  1
  O  O305  1  0.74064145  0.75015808  0.11091091  1
  O  O306  1  0.74767875  0.74569728  0.61099857  1
  O  O307  1  0.25294109  0.24616902  0.38020997  1
  O  O308  1  0.24846023  0.23862369  0.88282442  1
  O  O309  1  0.22468725  0.74114574  0.36970978  1
  O  O310  1  0.24370394  0.74087128  0.88288021  1
  O  O311  1  0.73710097  0.24286039  0.36900044  1
  O  O312  1  0.73748815  0.24816686  0.87506701  1
  O  O313  1  0.74057327  0.74207380  0.38417498  1
  O  O314  1  0.74435325  0.74311007  0.88098245  1
  O  O315  1  0.00826606  0.12481676  0.00728362  1
  O  O316  1  0.00933319  0.12479657  0.50661191  1
  O  O317  1  -0.00357786  0.62021881  0.01187463  1
  O  O318  1  0.04149201  0.65202426  0.48264528  1
  O  O319  1  0.51370313  0.11651165  -0.00356135  1
  O  O320  1  0.50734270  0.13151023  0.50793237  1
  O  O321  1  0.51072640  0.60582499  -0.03940563  1
  O  O322  1  0.50820379  0.62739507  0.51327891  1
  O  O323  1  0.48925910  0.37077965  0.49296230  1
  O  O324  1  0.50632937  0.39235172  0.99631938  1
  O  O325  1  0.47766178  0.86440326  0.50120285  1
  O  O326  1  0.49484137  0.87908614  0.99528972  1
  O  O327  1  0.99563336  0.36882638  0.48643026  1
  O  O328  1  0.99299994  0.38109773  1.00151821  1
  O  O329  1  0.98265255  0.88129490  0.49830960  1
  O  O330  1  0.98760561  0.87406244  1.00110734  1
  O  O331  1  0.50289247  0.48657538  0.36961250  1
  O  O332  1  0.47311584  0.48675869  0.85289219  1
  O  O333  1  0.48529257  1.00051043  0.36959034  1
  O  O334  1  0.49549244  0.99285412  0.88144516  1
  O  O335  1  0.99588822  0.48371100  0.36843611  1
  O  O336  1  0.98984374  0.50030796  0.88479432  1
  O  O337  1  0.98903478  1.01803327  0.36668033  1
  O  O338  1  0.99642265  0.99661553  0.87804792  1
  O  O339  1  0.00842344  0.00805037  0.12128531  1
  O  O340  1  -0.00628035  0.01236506  0.62235952  1
  O  O341  1  -0.00969009  0.51447283  0.11850681  1
  O  O342  1  0.00866283  0.50060421  0.61997482  1
  O  O343  1  0.51314988  -0.00532236  0.12076893  1
  O  O344  1  0.49861797  0.01539741  0.63256769  1
  O  O345  1  0.52067680  0.49732098  0.13041726  1
  O  O346  1  0.50728747  0.51064493  0.63515106  1
  O  O347  1  0.24352313  0.37724953  0.23871795  1
  O  O348  1  0.23749640  0.37988771  0.75257717  1
  O  O349  1  0.24280230  0.88327723  0.25040791  1
  O  O350  1  0.25401406  0.89133029  0.75306177  1
  O  O351  1  0.74995313  0.38233370  0.24774454  1
  O  O352  1  0.74636675  0.37954054  0.73899632  1
  O  O353  1  0.73845319  0.88148565  0.25253649  1
  O  O354  1  0.74120971  0.87923054  0.74801603  1
  O  O355  1  0.25810669  0.12408258  0.25375345  1
  O  O356  1  0.25604408  0.12215039  0.75929448  1
  O  O357  1  0.25635141  0.60771937  0.23842349  1
  O  O358  1  0.25216930  0.61269994  0.75942296  1
  O  O359  1  0.74611116  0.11788644  0.26367001  1
  O  O360  1  0.75621730  0.11764000  0.74910940  1
  O  O361  1  0.75601997  0.62097001  0.25849142  1
  O  O362  1  0.76355714  0.62021142  0.75251150  1
  O  O363  1  0.37040930  0.12173240  0.36669144  1
  O  O364  1  0.36914534  0.12086478  0.87147230  1
  O  O365  1  0.37734569  0.61962724  0.35932351  1
  O  O366  1  0.36060643  0.61576942  0.86484443  1
  O  O367  1  0.86729200  0.13653804  0.37581793  1
  O  O368  1  0.87153643  0.12453137  0.86083750  1
  O  O369  1  0.86566737  0.63262437  0.36676477  1
  O  O370  1  0.86613786  0.62023337  0.86771194  1
  O  O371  1  0.12334190  0.37177664  0.13599184  1
  O  O372  1  0.11579890  0.38272193  0.63827018  1
  O  O373  1  0.12672297  0.88915208  0.12350996  1
  O  O374  1  0.13906030  0.89158225  0.59377846  1
  O  O375  1  0.63975617  0.37595728  0.13426358  1
  O  O376  1  0.63105753  0.37733921  0.62684715  1
  O  O377  1  0.62919740  0.88308242  0.13511531  1
  O  O378  1  0.62224352  0.87358040  0.63622505  1
  O  O379  1  0.11212277  0.25490499  0.24930937  1
  O  O380  1  0.11709028  0.25471453  0.74876095  1
  O  O381  1  0.10869795  0.76855342  0.23876500  1
  O  O382  1  0.11356131  0.74355314  0.76229207  1
  O  O383  1  0.61584463  0.25589946  0.26053313  1
  O  O384  1  0.61825374  0.25212833  0.75572684  1
  O  O385  1  0.62193880  0.75663158  0.25863144  1
  O  O386  1  0.61997581  0.75621888  0.75873971  1
  O  O387  1  0.38954332  0.24607774  0.25359924  1
  O  O388  1  0.38070851  0.24589971  0.74431853  1
  O  O389  1  0.38303823  0.74372476  0.25235888  1
  O  O390  1  0.38369928  0.73875447  0.76184224  1
  O  O391  1  0.88792693  0.25685453  0.24186464  1
  O  O392  1  0.88089235  0.24299252  0.74234123  1
  O  O393  1  0.88198284  0.74773561  0.24613041  1
  O  O394  1  0.88003060  0.74130495  0.74676406  1
  O  O395  1  0.36644710  0.48723027  0.50051699  1
  O  O396  1  0.37059607  0.50560657  0.98399913  1
  O  O397  1  0.37425040  1.00771923  0.48221501  1
  O  O398  1  0.37935974  0.99271895  0.99609767  1
  O  O399  1  0.87306285  0.48702281  0.50371238  1
  O  O400  1  0.88100563  0.49290901  0.99568410  1
  O  O401  1  0.87188954  0.98943111  0.50049194  1
  O  O402  1  0.87247462  0.98746836  0.99668725  1
  O  O403  1  0.12829371  0.01175447  0.00703459  1
  O  O404  1  0.12280227  0.01523951  0.48455372  1
  O  O405  1  0.10847092  0.50065173  -0.00506780  1
  O  O406  1  0.12677911  0.48645653  0.51353203  1
  O  O407  1  0.62373980  0.00464233  0.00817677  1
  O  O408  1  0.62390415  0.01036829  0.49953122  1
  O  O409  1  0.63694880  0.49995610  0.01963722  1
  O  O410  1  0.62981046  0.50354026  0.51581846  1
  O  O411  1  0.36595961  0.37605730  0.12774676  1
  O  O412  1  0.38225234  0.36386760  0.62058421  1
  O  O413  1  0.37422849  0.87257677  0.11399251  1
  O  O414  1  0.37131769  0.86576040  0.62466139  1
  O  O415  1  0.86558611  0.37096628  0.12198586  1
  O  O416  1  0.86935091  0.36872883  0.62014846  1
  O  O417  1  0.86706598  0.87666990  0.10861938  1
  O  O418  1  0.86778046  0.86876745  0.61138172  1
  O  O419  1  0.14345085  0.13343380  0.37839089  1
  O  O420  1  0.13321639  0.12651716  0.88451786  1
  O  O421  1  0.12413108  0.63069488  0.35433581  1
  O  O422  1  0.13572624  0.62937431  0.87867480  1
  O  O423  1  0.62780960  0.13221583  0.38149318  1
  O  O424  1  0.62564330  0.13394104  0.88173552  1
  O  O425  1  0.63324508  0.63095348  0.38006118  1
  O  O426  1  0.64276958  0.63462327  0.86005685  1
