# generated using pymatgen
data_V85Zn86O256
_symmetry_space_group_name_H-M   'P 1'
_cell_length_a   16.94441314
_cell_length_b   16.97440595
_cell_length_c   16.97373484
_cell_angle_alpha   89.95787405
_cell_angle_beta   90.06163610
_cell_angle_gamma   89.85242481
_symmetry_Int_Tables_number   1
_chemical_formula_structural   V85Zn86O256
_chemical_formula_sum   'V85 Zn86 O256'
_cell_volume   4881.98813199
_cell_formula_units_Z   1
loop_
 _symmetry_equiv_pos_site_id
 _symmetry_equiv_pos_as_xyz
  1  'x, y, z'
loop_
 _atom_site_type_symbol
 _atom_site_label
 _atom_site_symmetry_multiplicity
 _atom_site_fract_x
 _atom_site_fract_y
 _atom_site_fract_z
 _atom_site_occupancy
  V  V0  1  0.49891947  0.74139103  0.24766181  1
  V  V1  1  0.24907891  0.62508340  0.87519259  1
  V  V2  1  0.62651689  0.49325936  0.63303023  1
  V  V3  1  -0.00017562  0.25425699  0.25306204  1
  V  V4  1  0.73504222  0.12884185  0.87925631  1
  V  V5  1  0.13366188  0.87458592  0.24415292  1
  V  V6  1  0.24028013  0.13353472  0.88090445  1
  V  V7  1  -0.00623557  0.87551607  0.87351285  1
  V  V8  1  0.24909341  0.75425602  0.00540690  1
  V  V9  1  0.87098783  0.37545100  -0.00931529  1
  V  V10  1  0.51170238  0.12483999  0.12355414  1
  V  V11  1  0.75655227  0.37553115  0.12578299  1
  V  V12  1  0.88282760  0.23502043  0.62554221  1
  V  V13  1  0.37576412  0.62442530  0.75006703  1
  V  V14  1  0.74986733  0.88025355  0.61934822  1
  V  V15  1  0.62321849  0.87951751  0.24119210  1
  V  V16  1  0.75377807  0.36837610  0.62869614  1
  V  V17  1  0.12349377  0.25476472  0.37423225  1
  V  V18  1  0.87621560  0.12358862  0.24913646  1
  V  V19  1  0.87234641  0.87406802  0.50042147  1
  V  V20  1  0.75579388  0.61717830  0.87352927  1
  V  V21  1  0.12110678  0.51404214  0.62040405  1
  V  V22  1  0.25238713  0.24347116  0.49611531  1
  V  V23  1  0.50078800  0.87757679  0.87797179  1
  V  V24  1  0.62359557  0.37705485  0.25890574  1
  V  V25  1  0.75697307  0.75041353  0.00766418  1
  V  V26  1  0.76065185  0.62621978  0.37691873  1
  V  V27  1  0.50283173  0.62359815  0.62432940  1
  V  V28  1  0.50708542  -0.00143731  0.50597177  1
  V  V29  1  0.00398208  0.00564886  -0.00066542  1
  V  V30  1  0.49849638  0.87672047  0.37265556  1
  V  V31  1  0.62651011  0.87966020  0.74251638  1
  V  V32  1  -0.00451713  0.75300301  0.23200673  1
  V  V33  1  0.63184351  0.75231478  0.37979716  1
  V  V34  1  0.62971433  0.62414085  0.50063368  1
  V  V35  1  0.74477840  0.12715706  0.37460895  1
  V  V36  1  0.25129951  0.87478530  0.62545624  1
  V  V37  1  0.87583547  0.01743608  0.87401437  1
  V  V38  1  0.76223291  0.50036870  0.25538147  1
  V  V39  1  0.51318205  0.00317888  0.00512013  1
  V  V40  1  0.61826904  0.62741186  0.00467241  1
  V  V41  1  0.36982695  0.24713725  0.12369202  1
  V  V42  1  0.50988968  0.12106341  0.62870413  1
  V  V43  1  -0.00035689  0.00377884  0.50268446  1
  V  V44  1  0.62250746  0.50336780  0.12808240  1
  V  V45  1  0.12563895  0.74643969  0.37510193  1
  V  V46  1  0.75221319  0.00449526  0.74945575  1
  V  V47  1  0.37304407  0.87831110  0.00697593  1
  V  V48  1  0.62777738  0.74915602  0.87274229  1
  V  V49  1  0.49739505  0.25310956  0.25846609  1
  V  V50  1  0.50721648  0.24784320  0.75452145  1
  V  V51  1  0.50315280  0.75026575  0.74949994  1
  V  V52  1  0.24672657  0.74264876  0.49914408  1
  V  V53  1  0.12195507  0.00419212  0.62488816  1
  V  V54  1  0.25526167  0.61543015  0.36735067  1
  V  V55  1  0.25170240  -0.00040324  0.75164288  1
  V  V56  1  0.00194521  0.23652996  0.75073576  1
  V  V57  1  0.37595965  0.87416925  0.49936413  1
  V  V58  1  0.36428173  0.37291944  -0.00312738  1
  V  V59  1  0.87556112  0.63404861  0.23381084  1
  V  V60  1  0.37788358  0.74131029  0.12523761  1
  V  V61  1  -0.00498406  0.37997380  0.86780598  1
  V  V62  1  0.12361909  0.37226192  0.75103698  1
  V  V63  1  0.37380410  0.50010691  0.87407848  1
  V  V64  1  0.11897723  0.62156804  0.00627970  1
  V  V65  1  0.49761321  0.50183082  0.00032583  1
  V  V66  1  0.88003272  0.37308904  0.49576978  1
  V  V67  1  0.24746665  0.37440063  0.62283046  1
  V  V68  1  0.13459764  0.00003981  0.11792636  1
  V  V69  1  0.73738587  0.24852959  -0.00098664  1
  V  V70  1  0.12222102  0.75038471  0.87380687  1
  V  V71  1  0.74351060  0.00399877  0.23876987  1
  V  V72  1  0.24971791  0.00910392  0.25678038  1
  V  V73  1  0.37611158  0.74876963  0.62502989  1
  V  V74  1  0.00611973  0.12813253  0.12052734  1
  V  V75  1  0.50375088  0.36815292  0.87760932  1
  V  V76  1  0.23965793  0.38162663  0.14283029  1
  V  V77  1  -0.00628612  0.50255029  0.00001575  1
  V  V78  1  0.37657471  0.37629625  0.49521260  1
  V  V79  1  -0.00541813  0.51689003  0.50160831  1
  V  V80  1  0.00004197  0.87784340  0.37076590  1
  V  V81  1  0.49985875  0.49453424  0.49760721  1
  V  V82  1  0.37401657  0.12629728  0.75116920  1
  V  V83  1  -0.00771230  0.74801484  0.73787780  1
  V  V84  1  0.12904478  0.12229962  0.49395346  1
  Zn  Zn85  1  0.37455050  0.00186116  0.88076757  1
  Zn  Zn86  1  0.12301181  0.50601079  0.14683855  1
  Zn  Zn87  1  0.88011486  0.62429964  0.73438846  1
  Zn  Zn88  1  0.77290359  0.48267825  0.76650234  1
  Zn  Zn89  1  0.63044082  0.36864179  0.75739261  1
  Zn  Zn90  1  0.62041512  0.25304139  0.38193063  1
  Zn  Zn91  1  0.80071396  0.71460596  0.54915522  1
  Zn  Zn92  1  0.74824761  0.24741921  0.50117047  1
  Zn  Zn93  1  0.00259856  0.38644132  0.37292899  1
  Zn  Zn94  1  0.87557377  0.24964505  0.12149558  1
  Zn  Zn95  1  0.36962963  0.00657906  0.38054420  1
  Zn  Zn96  1  0.87895452  0.87408586  0.00779189  1
  Zn  Zn97  1  0.75450686  0.87730267  0.12528947  1
  Zn  Zn98  1  0.24810281  0.49980307  0.74741368  1
  Zn  Zn99  1  0.62584204  0.12500001  0.50193654  1
  Zn  Zn100  1  0.12329396  0.87448334  0.74799974  1
  Zn  Zn101  1  0.23193131  0.25133633  0.00178980  1
  Zn  Zn102  1  0.43805396  0.44040965  0.33131984  1
  Zn  Zn103  1  0.37216549  0.12878839  0.25500705  1
  Zn  Zn104  1  0.87295631  0.00121303  0.37336635  1
  Zn  Zn105  1  0.37619976  0.24997622  0.62552412  1
  Zn  Zn106  1  0.37471506  0.60811865  0.24721882  1
  Zn  Zn107  1  0.18342377  0.19111556  0.18587678  1
  Zn  Zn108  1  0.18550226  0.18645091  0.68316561  1
  Zn  Zn109  1  0.18854833  0.68908104  0.18711898  1
  Zn  Zn110  1  0.18705357  0.69011532  0.69069858  1
  Zn  Zn111  1  0.68676663  0.19319437  0.18885065  1
  Zn  Zn112  1  0.69037372  0.18551961  0.69133900  1
  Zn  Zn113  1  0.68539348  0.68674089  0.18994730  1
  Zn  Zn114  1  0.70193021  0.68290766  0.68237329  1
  Zn  Zn115  1  0.30736869  0.30815009  0.31409998  1
  Zn  Zn116  1  0.31346569  0.31052342  0.81027248  1
  Zn  Zn117  1  0.31268612  0.81226187  0.31098036  1
  Zn  Zn118  1  0.31427416  0.81374680  0.81667208  1
  Zn  Zn119  1  0.81501745  0.30998744  0.31307523  1
  Zn  Zn120  1  0.81821591  0.29958397  0.81250675  1
  Zn  Zn121  1  0.81319322  0.81531708  0.30959626  1
  Zn  Zn122  1  0.81312229  0.81391391  0.81384929  1
  Zn  Zn123  1  0.18166625  0.43789009  0.44191395  1
  Zn  Zn124  1  0.18239728  0.43853693  0.93412187  1
  Zn  Zn125  1  0.18713002  0.93203800  0.43607374  1
  Zn  Zn126  1  0.18693166  0.93667627  0.93428008  1
  Zn  Zn127  1  0.69277617  0.43846534  0.44160048  1
  Zn  Zn128  1  0.68354241  0.43726189  0.94083911  1
  Zn  Zn129  1  0.68746827  0.94244147  0.42996909  1
  Zn  Zn130  1  0.68939665  0.93605630  0.93513239  1
  Zn  Zn131  1  0.31452375  0.06343512  0.06329413  1
  Zn  Zn132  1  0.31675985  0.06219457  0.56442447  1
  Zn  Zn133  1  0.30595608  0.56090305  0.06425291  1
  Zn  Zn134  1  0.31237923  0.56070667  0.55959048  1
  Zn  Zn135  1  0.81668283  0.06448114  0.05876477  1
  Zn  Zn136  1  0.80998145  0.05765206  0.56093329  1
  Zn  Zn137  1  0.81038635  0.55906371  0.05955082  1
  Zn  Zn138  1  0.81604417  0.55045168  0.57694235  1
  Zn  Zn139  1  0.43526952  0.43492433  0.17202092  1
  Zn  Zn140  1  0.43665564  0.43487804  0.68679075  1
  Zn  Zn141  1  0.43487482  0.93666599  0.18441252  1
  Zn  Zn142  1  0.43742219  0.93824188  0.68852163  1
  Zn  Zn143  1  0.96465122  0.45906746  0.20588047  1
  Zn  Zn144  1  0.93910102  0.43538960  0.68177056  1
  Zn  Zn145  1  0.93673716  0.93878901  0.18299233  1
  Zn  Zn146  1  0.93365385  0.93606202  0.68701065  1
  Zn  Zn147  1  0.06546209  0.06482533  0.31195825  1
  Zn  Zn148  1  0.06458891  0.05722173  0.80969572  1
  Zn  Zn149  1  0.05730248  0.57107789  0.31812105  1
  Zn  Zn150  1  0.05956633  0.56200771  0.80945424  1
  Zn  Zn151  1  0.55880828  0.06363855  0.31172693  1
  Zn  Zn152  1  0.56333383  0.05918907  0.81538336  1
  Zn  Zn153  1  0.57023793  0.56613948  0.31422204  1
  Zn  Zn154  1  0.56413600  0.56109916  0.81469391  1
  Zn  Zn155  1  0.43424460  0.18300410  0.43791012  1
  Zn  Zn156  1  0.43368354  0.18613109  0.93948182  1
  Zn  Zn157  1  0.43752600  0.68561121  0.43576260  1
  Zn  Zn158  1  0.43797811  0.68886741  0.93766352  1
  Zn  Zn159  1  0.93681500  0.18483329  0.43803536  1
  Zn  Zn160  1  1.05817901  0.19148426  0.93269746  1
  Zn  Zn161  1  0.94089805  0.69100657  0.42768420  1
  Zn  Zn162  1  0.93581214  0.68641991  0.93321987  1
  Zn  Zn163  1  0.05803667  0.31968232  0.06458109  1
  Zn  Zn164  1  0.06187103  0.31242971  0.56341544  1
  Zn  Zn165  1  0.06536685  0.81929930  0.05883924  1
  Zn  Zn166  1  0.06430865  0.81711203  0.55974655  1
  Zn  Zn167  1  0.56005965  0.31557159  0.06883984  1
  Zn  Zn168  1  0.56250644  0.30821111  0.56535077  1
  Zn  Zn169  1  0.56132375  0.81148798  0.06364523  1
  Zn  Zn170  1  0.56688828  0.81250262  0.56281802  1
  O  O171  1  0.11275353  0.11657628  0.13063728  1
  O  O172  1  0.12920109  0.11058734  0.61390145  1
  O  O173  1  0.13187438  0.62306709  0.11009810  1
  O  O174  1  0.13174427  0.61203117  0.62800817  1
  O  O175  1  0.60996405  0.13199244  0.12519119  1
  O  O176  1  0.61306477  0.12449564  0.62805766  1
  O  O177  1  0.62878364  0.61603656  0.11739176  1
  O  O178  1  0.62378265  0.61582381  0.61953527  1
  O  O179  1  0.37099537  0.36920646  0.39030069  1
  O  O180  1  0.37962496  0.37982601  0.88016365  1
  O  O181  1  0.38299889  0.87626196  0.38096328  1
  O  O182  1  0.38428299  0.87444220  0.88729698  1
  O  O183  1  0.87469324  0.36888482  0.39225451  1
  O  O184  1  0.88190782  0.37195899  0.87793935  1
  O  O185  1  0.88404064  0.88103576  0.37741215  1
  O  O186  1  0.88521674  0.88009591  0.87937624  1
  O  O187  1  0.24798964  -0.00458772  0.36011047  1
  O  O188  1  0.24906181  0.00829414  0.86382262  1
  O  O189  1  0.23996268  0.51848019  0.38434560  1
  O  O190  1  0.25555368  0.50795551  0.87161013  1
  O  O191  1  0.75079421  0.01233813  0.36125070  1
  O  O192  1  0.75626312  0.00906862  0.87406436  1
  O  O193  1  0.74407567  0.51175923  0.36513657  1
  O  O194  1  0.74367662  0.51206952  0.87764813  1
  O  O195  1  0.24420410  0.48634231  0.12490993  1
  O  O196  1  0.23927600  0.49300886  0.62243138  1
  O  O197  1  0.23886260  1.00544467  0.13125769  1
  O  O198  1  0.24708847  0.99603039  0.63560043  1
  O  O199  1  0.74025376  0.49466057  0.13214140  1
  O  O200  1  0.74107823  0.48001087  0.63053501  1
  O  O201  1  0.75059527  1.00547086  0.13560492  1
  O  O202  1  0.75040521  0.99370178  0.63668948  1
  O  O203  1  -0.02039896  0.35518601  0.25816521  1
  O  O204  1  0.00581733  0.36888834  0.75151579  1
  O  O205  1  0.00858588  0.87378871  0.25545545  1
  O  O206  1  0.00079397  0.86739073  0.75729610  1
  O  O207  1  0.50692405  0.36982659  0.25023322  1
  O  O208  1  0.49693787  0.36407407  0.75903447  1
  O  O209  1  0.50464906  0.87107101  0.25630003  1
  O  O210  1  0.50658012  0.87118100  0.75653773  1
  O  O211  1  0.49729338  0.13318610  0.23744330  1
  O  O212  1  0.49346439  0.12711692  0.74897633  1
  O  O213  1  0.49813183  0.63900978  0.25962123  1
  O  O214  1  0.49672729  0.63075676  0.74518335  1
  O  O215  1  0.99309827  0.12971494  0.24391603  1
  O  O216  1  1.00617901  0.13776230  0.75256828  1
  O  O217  1  0.98631662  0.64284762  0.25605247  1
  O  O218  1  0.99903169  0.64320462  0.75339780  1
  O  O219  1  0.36874283  0.25800466  0.00726736  1
  O  O220  1  0.36816289  0.25524414  0.50424775  1
  O  O221  1  0.36888813  0.75428701  0.00528532  1
  O  O222  1  0.37082323  0.75566951  0.50598782  1
  O  O223  1  0.86084746  0.26992791  0.00534620  1
  O  O224  1  0.87575537  0.25350245  0.51150140  1
  O  O225  1  0.85931808  0.74958705  -0.00574214  1
  O  O226  1  0.87984791  0.76804838  0.49069923  1
  O  O227  1  0.13029559  0.23954935  0.49811220  1
  O  O228  1  0.11990312  0.25162980  1.00148981  1
  O  O229  1  0.13505925  0.75861697  0.48901536  1
  O  O230  1  0.13045907  0.74663023  0.99106715  1
  O  O231  1  0.62841939  0.24507989  0.49863810  1
  O  O232  1  0.63798247  0.26137166  1.00466967  1
  O  O233  1  0.61966863  0.74454326  0.48642832  1
  O  O234  1  0.62904382  0.74396128  0.99280714  1
  O  O235  1  0.49021888  0.24334851  0.13031858  1
  O  O236  1  0.49596491  0.23931930  0.63554363  1
  O  O237  1  0.49179330  0.75168351  0.13512832  1
  O  O238  1  0.49757116  0.74358840  0.63012097  1
  O  O239  1  0.99806659  0.24366962  0.13366653  1
  O  O240  1  0.98979080  0.24964272  0.63199290  1
  O  O241  1  1.00654654  0.75535182  0.13329312  1
  O  O242  1  1.00738793  0.75803344  0.63991362  1
  O  O243  1  0.00702799  0.24607474  0.36937485  1
  O  O244  1  0.00070099  0.25993112  0.85643688  1
  O  O245  1  0.00898485  0.76298004  0.36839735  1
  O  O246  1  0.00592146  0.75866501  0.87151926  1
  O  O247  1  0.49986168  0.24623411  0.36144587  1
  O  O248  1  0.49153288  0.25742516  0.86926662  1
  O  O249  1  0.50490202  0.76074506  0.36968982  1
  O  O250  1  0.51107925  0.75473852  0.87130793  1
  O  O251  1  0.24389777  0.13206371  0.50599739  1
  O  O252  1  0.25539042  0.12572964  0.98280233  1
  O  O253  1  0.25598415  0.63872920  0.49251246  1
  O  O254  1  0.24339014  0.63248589  0.99118897  1
  O  O255  1  0.74737529  0.12222299  0.48896367  1
  O  O256  1  0.75386902  0.13387371  0.98926939  1
  O  O257  1  0.74725872  0.62242602  0.49189749  1
  O  O258  1  0.74090084  0.63304138  0.99163617  1
  O  O259  1  0.25744710  0.37451325  -0.00362719  1
  O  O260  1  0.25448936  0.36870208  0.50657109  1
  O  O261  1  0.25962780  0.86565627  -0.00900639  1
  O  O262  1  0.25778636  0.86696505  0.50442511  1
  O  O263  1  0.75195862  0.37350969  0.00631250  1
  O  O264  1  0.75903885  0.37126667  0.51007033  1
  O  O265  1  0.74732971  0.85954346  -0.00048733  1
  O  O266  1  0.75950015  0.89008434  0.50497122  1
  O  O267  1  0.07027820  0.49020416  0.24473444  1
  O  O268  1  0.12496680  0.49298759  0.73695582  1
  O  O269  1  0.13458469  0.99516670  0.24395836  1
  O  O270  1  0.13261335  0.99666918  0.74080260  1
  O  O271  1  0.63202834  0.49662199  0.24394390  1
  O  O272  1  0.62080621  0.49490138  0.73879849  1
  O  O273  1  0.63077112  0.99134697  0.25369553  1
  O  O274  1  0.63853925  0.98987022  0.76060178  1
  O  O275  1  0.35579307  -0.00453745  0.24527544  1
  O  O276  1  0.36720251  0.00596607  0.75415184  1
  O  O277  1  0.38717602  0.49650538  0.25015211  1
  O  O278  1  0.37316138  0.50689303  0.75476295  1
  O  O279  1  0.86916268  0.01209149  0.24992321  1
  O  O280  1  0.86165221  -0.00713439  0.75983642  1
  O  O281  1  0.86624063  0.50961562  0.24665076  1
  O  O282  1  0.87558384  0.51076825  0.73258450  1
  O  O283  1  0.12032310  0.35918291  0.38446721  1
  O  O284  1  0.11929528  0.37845544  0.85650898  1
  O  O285  1  0.11941067  0.86726973  0.36569067  1
  O  O286  1  0.11388895  0.86770800  0.87297445  1
  O  O287  1  0.63417312  0.37484566  0.36211366  1
  O  O288  1  0.60769768  0.38061829  0.87534504  1
  O  O289  1  0.61894955  0.86845393  0.36747420  1
  O  O290  1  0.62154874  0.86598275  0.86660985  1
  O  O291  1  0.37468337  0.13880745  0.12902009  1
  O  O292  1  0.38160043  0.12407470  0.63962684  1
  O  O293  1  0.36818682  0.63711261  0.12642214  1
  O  O294  1  0.38089053  0.62989274  0.62971755  1
  O  O295  1  0.88902359  0.12512359  0.12970777  1
  O  O296  1  0.87216652  0.13694870  0.61944747  1
  O  O297  1  0.86587783  0.62566093  0.13477214  1
  O  O298  1  0.81797280  0.64461433  0.63699507  1
  O  O299  1  0.25333964  0.26060700  0.12401849  1
  O  O300  1  0.25004405  0.25697330  0.61426430  1
  O  O301  1  0.25480873  0.74951811  0.11079477  1
  O  O302  1  0.25364107  0.75450440  0.61823567  1
  O  O303  1  0.75173661  0.25842996  0.11929400  1
  O  O304  1  0.76080171  0.25379114  0.62784256  1
  O  O305  1  0.74171832  0.74817432  0.10903753  1
  O  O306  1  0.72942834  0.77598693  0.61817392  1
  O  O307  1  0.24129825  0.25070164  0.38852134  1
  O  O308  1  0.25085964  0.23579951  0.87382627  1
  O  O309  1  0.24393872  0.74682905  0.38113277  1
  O  O310  1  0.24253768  0.74552847  0.88191708  1
  O  O311  1  0.74841305  0.23691569  0.37392113  1
  O  O312  1  0.75088589  0.23584991  0.88125689  1
  O  O313  1  0.74081333  0.74395830  0.36904929  1
  O  O314  1  0.74054978  0.74404890  0.88226841  1
  O  O315  1  0.00240910  0.11426101  0.00496634  1
  O  O316  1  0.00775572  0.10959133  0.49576216  1
  O  O317  1  0.00721686  0.61667471  -0.01150706  1
  O  O318  1  -0.01404799  0.61624454  0.50365635  1
  O  O319  1  0.49264738  0.11876547  0.01414858  1
  O  O320  1  0.49847890  0.11611382  0.51233717  1
  O  O321  1  0.51105162  0.62032612  -0.00395757  1
  O  O322  1  0.50685195  0.61790778  0.50585707  1
  O  O323  1  0.48927042  0.38190072  0.51026788  1
  O  O324  1  0.48708188  0.37786745  0.99526436  1
  O  O325  1  0.49604996  0.87920182  0.49400794  1
  O  O326  1  0.49457385  0.88195023  0.99786888  1
  O  O327  1  0.99237062  0.37992426  0.50105631  1
  O  O328  1  0.98947166  0.37997654  0.98768880  1
  O  O329  1  0.99595764  0.88457025  0.49115394  1
  O  O330  1  1.00038307  0.88689270  0.99060394  1
  O  O331  1  0.51346155  0.50115747  0.39271381  1
  O  O332  1  0.49238718  0.49341340  0.88121241  1
  O  O333  1  0.49849578  0.98713018  0.38006177  1
  O  O334  1  0.49686918  0.99509607  0.88550953  1
  O  O335  1  1.00333783  0.50192971  0.39811796  1
  O  O336  1  1.00328793  0.48627681  0.87787454  1
  O  O337  1  1.00365364  0.98986849  0.37950789  1
  O  O338  1  0.99540995  0.99569327  0.87861209  1
  O  O339  1  0.00933256  0.00733968  0.11618710  1
  O  O340  1  0.00994010  -0.00837303  0.61620394  1
  O  O341  1  0.00111324  0.49451295  0.10157391  1
  O  O342  1  0.01407238  0.49891567  0.61642316  1
  O  O343  1  0.49428244  0.01657424  0.12175238  1
  O  O344  1  0.49565434  0.00718697  0.61787753  1
  O  O345  1  0.51486587  0.49255797  0.11403262  1
  O  O346  1  0.50638344  0.50401108  0.61867829  1
  O  O347  1  0.24823655  0.37480903  0.24096725  1
  O  O348  1  0.24306754  0.37405304  0.74131626  1
  O  O349  1  0.23782765  0.88134812  0.25156452  1
  O  O350  1  0.25036330  0.88307545  0.74647370  1
  O  O351  1  0.74821777  0.38277295  0.24527594  1
  O  O352  1  0.74923102  0.36942829  0.74707102  1
  O  O353  1  0.74073017  0.88598956  0.25036004  1
  O  O354  1  0.74386430  0.88088206  0.74496360  1
  O  O355  1  0.24760182  0.11153031  0.24709080  1
  O  O356  1  0.25478319  0.12004386  0.75513489  1
  O  O357  1  0.25136496  0.62767225  0.26269146  1
  O  O358  1  0.25745469  0.62638069  0.75873837  1
  O  O359  1  0.75493904  0.12210067  0.25240134  1
  O  O360  1  0.74591439  0.11709385  0.76533119  1
  O  O361  1  0.75473644  0.61956505  0.25622068  1
  O  O362  1  0.73722499  0.62201853  0.77256858  1
  O  O363  1  0.37909342  0.11792698  0.36734221  1
  O  O364  1  0.36534265  0.12268610  0.86465137  1
  O  O365  1  0.35978953  0.62918450  0.37171754  1
  O  O366  1  0.36981388  0.62101229  0.87088544  1
  O  O367  1  0.86801772  0.12244981  0.36587854  1
  O  O368  1  0.86714347  0.11530574  0.87405226  1
  O  O369  1  0.86300129  0.63270673  0.36554580  1
  O  O370  1  0.85704562  0.62861923  0.87088838  1
  O  O371  1  0.13815424  0.37785022  0.12441456  1
  O  O372  1  0.13414212  0.38067507  0.62976108  1
  O  O373  1  0.12158198  0.88749343  0.13303579  1
  O  O374  1  0.13500365  0.88665491  0.62406533  1
  O  O375  1  0.63445602  0.38282925  0.13643362  1
  O  O376  1  0.63309410  0.37741273  0.62995226  1
  O  O377  1  0.62799106  0.86953183  0.13881370  1
  O  O378  1  0.62292913  0.88054874  0.63816765  1
  O  O379  1  0.11389732  0.24284749  0.26218975  1
  O  O380  1  0.11097081  0.25792129  0.73604556  1
  O  O381  1  0.11998101  0.75876316  0.25303672  1
  O  O382  1  0.11871549  0.75316053  0.76114756  1
  O  O383  1  0.61512139  0.26166618  0.24966950  1
  O  O384  1  0.61110081  0.24877001  0.75045388  1
  O  O385  1  0.61717364  0.75587585  0.25878688  1
  O  O386  1  0.62224218  0.75566863  0.75667924  1
  O  O387  1  0.38039742  0.25389360  0.24127844  1
  O  O388  1  0.38288985  0.24101999  0.74765020  1
  O  O389  1  0.38252757  0.75258404  0.24016319  1
  O  O390  1  0.38264486  0.74567519  0.74556810  1
  O  O391  1  0.87773417  0.23594022  0.24612980  1
  O  O392  1  0.88966124  0.24926865  0.73618144  1
  O  O393  1  0.88319597  0.74745809  0.24876963  1
  O  O394  1  0.88891809  0.75108514  0.75218172  1
  O  O395  1  0.38643116  0.49085565  0.50396192  1
  O  O396  1  0.37770863  0.49336702  0.99644101  1
  O  O397  1  0.38351938  0.99004666  0.50061276  1
  O  O398  1  0.38050432  0.99142552  1.00136460  1
  O  O399  1  0.88857621  0.48940995  0.51389141  1
  O  O400  1  0.87757656  0.48856098  0.99893512  1
  O  O401  1  0.88481638  0.99280318  0.49662326  1
  O  O402  1  0.88562419  0.99923356  0.99029157  1
  O  O403  1  0.11942722  -0.00488932  0.00742335  1
  O  O404  1  0.12223425  0.00340395  0.50402495  1
  O  O405  1  0.11490389  0.51035628  -0.00584932  1
  O  O406  1  0.11272545  0.50032147  0.51290025  1
  O  O407  1  0.61232259  -0.00766550  0.00019359  1
  O  O408  1  0.61024313  0.00076134  0.49514190  1
  O  O409  1  0.62033638  0.50866204  0.00834548  1
  O  O410  1  0.62103083  0.50107571  0.51360482  1
  O  O411  1  0.36071235  0.36665244  0.11475619  1
  O  O412  1  0.36152530  0.37476244  0.61857382  1
  O  O413  1  0.37897338  0.86338057  0.11199895  1
  O  O414  1  0.37086736  0.86753585  0.62091706  1
  O  O415  1  0.86050280  0.37941889  0.12035093  1
  O  O416  1  0.86887485  0.36293151  0.61758113  1
  O  O417  1  0.86867966  0.87876632  0.12049552  1
  O  O418  1  0.86364916  0.87806340  0.61374413  1
  O  O419  1  0.12374665  0.13148852  0.38823728  1
  O  O420  1  0.13621422  0.12367076  0.87158870  1
  O  O421  1  0.13345789  0.64096010  0.37073690  1
  O  O422  1  0.13019828  0.63359374  0.87923165  1
  O  O423  1  0.63121458  0.12824746  0.37477822  1
  O  O424  1  0.63625943  0.12157214  0.88001046  1
  O  O425  1  0.63560658  0.63424960  0.38123640  1
  O  O426  1  0.62839925  0.63219979  0.88456678  1
