# generated using pymatgen
data_V85Zn86O256
_symmetry_space_group_name_H-M   'P 1'
_cell_length_a   16.95812018
_cell_length_b   16.98457523
_cell_length_c   16.97623386
_cell_angle_alpha   89.95538054
_cell_angle_beta   89.97416089
_cell_angle_gamma   90.06367682
_symmetry_Int_Tables_number   1
_chemical_formula_structural   V85Zn86O256
_chemical_formula_sum   'V85 Zn86 O256'
_cell_volume   4889.59967829
_cell_formula_units_Z   1
loop_
 _symmetry_equiv_pos_site_id
 _symmetry_equiv_pos_as_xyz
  1  'x, y, z'
loop_
 _atom_site_type_symbol
 _atom_site_label
 _atom_site_symmetry_multiplicity
 _atom_site_fract_x
 _atom_site_fract_y
 _atom_site_fract_z
 _atom_site_occupancy
  V  V0  1  0.87074944  0.12806662  0.74155455  1
  V  V1  1  -0.01651477  0.21526000  0.27487254  1
  V  V2  1  -0.00177762  0.74778213  0.75123225  1
  V  V3  1  0.37102037  0.38105033  0.48043285  1
  V  V4  1  0.37720388  0.49767518  0.87623392  1
  V  V5  1  0.62518143  0.49709102  0.12898806  1
  V  V6  1  0.12416850  0.49984528  0.62528895  1
  V  V7  1  0.00014187  0.00139465  0.50489737  1
  V  V8  1  0.23480114  0.11836897  0.37860891  1
  V  V9  1  0.62540825  0.13816883  -0.00102700  1
  V  V10  1  0.86685071  0.36651459  0.51207361  1
  V  V11  1  0.50198637  0.49651962  0.00089840  1
  V  V12  1  0.25045480  0.87510678  0.63315315  1
  V  V13  1  0.37649318  0.74906523  0.62543587  1
  V  V14  1  -0.01405197  0.38552086  0.36877254  1
  V  V15  1  0.50271035  0.49285991  0.49145995  1
  V  V16  1  0.37282560  0.25176637  0.12589317  1
  V  V17  1  -0.01181541  0.50232198  0.49901002  1
  V  V18  1  -0.01301993  0.87480957  0.38627801  1
  V  V19  1  0.62338205  0.62308917  0.50726846  1
  V  V20  1  0.50121846  0.74753509  0.74886155  1
  V  V21  1  0.12529576  0.75054025  0.87836862  1
  V  V22  1  0.25275622  0.12397810  0.87290105  1
  V  V23  1  -0.00097019  0.62573987  0.62642727  1
  V  V24  1  0.49520737  0.24848429  0.26141246  1
  V  V25  1  -0.01014248  0.12553157  0.11797856  1
  V  V26  1  0.25037488  0.50063325  0.75110307  1
  V  V27  1  0.87395379  0.76050546  0.62428205  1
  V  V28  1  -0.00195351  0.75186171  0.25131625  1
  V  V29  1  0.12484152  0.62256644  0.00330543  1
  V  V30  1  0.11968258  0.37648999  0.24782230  1
  V  V31  1  0.12637888  0.75450084  0.37569489  1
  V  V32  1  0.63744208  0.23539453  0.38074798  1
  V  V33  1  0.25172963  0.74982068  0.00277528  1
  V  V34  1  0.49082604  0.88019784  0.38455729  1
  V  V35  1  0.01279059  0.12554563  0.62606364  1
  V  V36  1  0.51470822  0.36664603  0.86477779  1
  V  V37  1  0.12668390  0.00136585  0.12666803  1
  V  V38  1  0.62208176  -0.00064225  0.11852267  1
  V  V39  1  -0.00297848  0.62596333  0.12588397  1
  V  V40  1  0.38379527  0.12418821  0.74385073  1
  V  V41  1  0.12497903  0.25150025  0.87302650  1
  V  V42  1  0.12688864  0.88452586  0.25660601  1
  V  V43  1  0.37670713  0.61977358  0.75287242  1
  V  V44  1  0.75299887  0.49740351  0.25524300  1
  V  V45  1  -0.00569839  0.49808045  -0.00211216  1
  V  V46  1  0.25624865  0.61924332  0.37337460  1
  V  V47  1  0.25666287  0.37504092  0.62276148  1
  V  V48  1  0.75449961  0.74984873  0.50529040  1
  V  V49  1  0.74522991  0.13518286  0.87703667  1
  V  V50  1  0.12439631  0.12423997  -0.00353743  1
  V  V51  1  0.76224862  0.01215751  0.26265026  1
  V  V52  1  -0.00679222  0.87193934  0.88126767  1
  V  V53  1  0.12475322  0.37528959  0.74927071  1
  V  V54  1  0.37683216  0.74611862  0.12706139  1
  V  V55  1  0.75907435  0.87818418  0.12119733  1
  V  V56  1  0.75004506  -0.01046905  0.75181601  1
  V  V57  1  0.62720815  0.88068949  0.25294689  1
  V  V58  1  0.35652704  0.11503860  0.24588214  1
  V  V59  1  0.62566472  0.75220226  0.87700094  1
  V  V60  1  0.62793990  0.62487404  0.00469220  1
  V  V61  1  0.69115612  0.92578453  0.57125246  1
  V  V62  1  -0.00223715  -0.00428997  -0.00204032  1
  V  V63  1  0.49750574  0.12082959  0.12061124  1
  V  V64  1  0.12514025  0.62376906  0.49977623  1
  V  V65  1  0.87527079  0.62273889  0.25466209  1
  V  V66  1  0.12022073  0.25470342  0.38301748  1
  V  V67  1  0.38450666  0.00258544  0.88020281  1
  V  V68  1  0.87131520  -0.00344566  0.87996525  1
  V  V69  1  0.75073270  0.62048219  0.87381366  1
  V  V70  1  0.61839307  0.37328332  0.26241681  1
  V  V71  1  0.75102654  0.62356678  0.37445972  1
  V  V72  1  0.50172178  0.75018565  0.25131523  1
  V  V73  1  0.87024543  0.36369513  -0.00147913  1
  V  V74  1  -0.00378775  0.25160663  0.74506353  1
  V  V75  1  0.38107012  0.24966874  0.62172789  1
  V  V76  1  0.24966022  0.87683458  0.13033529  1
  V  V77  1  0.37648673  0.37371228  -0.00223510  1
  V  V78  1  0.38428076  0.87951241  0.00366741  1
  V  V79  1  0.74780635  0.36450460  0.12421975  1
  V  V80  1  0.25436385  0.75303282  0.50212822  1
  V  V81  1  0.24888934  0.25155005  -0.00048278  1
  V  V82  1  0.62772838  0.75340525  0.38002135  1
  V  V83  1  0.62524889  0.87901688  0.74603004  1
  V  V84  1  0.73770927  0.49352363  0.73763236  1
  Zn  Zn85  1  0.50361636  0.88001850  0.88055476  1
  Zn  Zn86  1  0.24651977  0.37672412  0.12487831  1
  Zn  Zn87  1  0.86857338  0.49517106  0.87284092  1
  Zn  Zn88  1  0.25053648  -0.00515432  0.75627437  1
  Zn  Zn89  1  0.12494159  0.87746962  0.75515389  1
  Zn  Zn90  1  0.25538404  0.49516060  0.24803642  1
  Zn  Zn91  1  0.24565444  0.24619225  0.49989145  1
  Zn  Zn92  1  0.50184259  0.61916910  0.62491935  1
  Zn  Zn93  1  0.39353663  0.01987574  0.40266471  1
  Zn  Zn94  1  0.12484500  0.49912552  0.12669448  1
  Zn  Zn95  1  0.87078754  0.62042967  0.74835917  1
  Zn  Zn96  1  0.38277584  0.61671110  0.25809713  1
  Zn  Zn97  1  0.50099926  0.62150894  0.12867604  1
  Zn  Zn98  1  0.75537386  0.75763149  -0.00184766  1
  Zn  Zn99  1  -0.00389497  0.37453919  0.87394833  1
  Zn  Zn100  1  0.87579082  0.75329475  0.12054147  1
  Zn  Zn101  1  0.12971296  -0.00074280  0.62908602  1
  Zn  Zn102  1  0.51504792  0.24844738  0.74063355  1
  Zn  Zn103  1  0.76738273  0.21246872  0.53392322  1
  Zn  Zn104  1  0.25239510  0.62398436  0.87856355  1
  Zn  Zn105  1  0.68659062  0.31945850  0.67639787  1
  Zn  Zn106  1  0.87170500  0.24405006  0.12769259  1
  Zn  Zn107  1  0.17311106  0.19408442  0.18811551  1
  Zn  Zn108  1  0.19390892  0.18965897  0.68825493  1
  Zn  Zn109  1  0.18632175  0.68917057  0.19036662  1
  Zn  Zn110  1  0.18745516  0.68695655  0.69064027  1
  Zn  Zn111  1  0.68340760  0.18523964  0.19222219  1
  Zn  Zn112  1  0.68627603  0.15959069  0.66855394  1
  Zn  Zn113  1  0.68902877  0.69005257  0.18836587  1
  Zn  Zn114  1  0.68835591  0.68842012  0.68836838  1
  Zn  Zn115  1  0.30387857  0.30697066  0.30735564  1
  Zn  Zn116  1  0.31865805  0.31247207  0.80830680  1
  Zn  Zn117  1  0.31163827  0.81025193  0.31173403  1
  Zn  Zn118  1  0.31582307  0.81108558  0.81738496  1
  Zn  Zn119  1  0.81295579  0.31261561  0.31264885  1
  Zn  Zn120  1  0.81174136  0.31353363  0.80667452  1
  Zn  Zn121  1  0.80991606  0.81472259  0.30841502  1
  Zn  Zn122  1  0.81380293  0.80935511  0.81422843  1
  Zn  Zn123  1  0.18219967  0.43731233  0.43755056  1
  Zn  Zn124  1  0.18700924  0.43735856  0.93772325  1
  Zn  Zn125  1  0.21364413  0.96225249  0.46561851  1
  Zn  Zn126  1  0.19126076  0.93607986  0.94082601  1
  Zn  Zn127  1  0.68621694  0.43543498  0.44104853  1
  Zn  Zn128  1  0.68980122  0.43676351  0.93939883  1
  Zn  Zn129  1  0.70550113  1.07437381  0.44419665  1
  Zn  Zn130  1  0.68420295  0.94162825  0.93954529  1
  Zn  Zn131  1  0.30925833  0.06154991  0.06164776  1
  Zn  Zn132  1  0.37216469  0.04807311  0.56500414  1
  Zn  Zn133  1  0.31197872  0.55993321  0.06756664  1
  Zn  Zn134  1  0.31675481  0.56098455  0.56250833  1
  Zn  Zn135  1  0.80715944  0.05891507  0.05982354  1
  Zn  Zn136  1  0.81787684  0.05735504  0.56294761  1
  Zn  Zn137  1  0.81188031  0.55976291  0.06599283  1
  Zn  Zn138  1  0.81337427  0.56692179  0.56486766  1
  Zn  Zn139  1  0.43622327  0.43680098  0.19246667  1
  Zn  Zn140  1  0.55422208  0.44350067  0.67695975  1
  Zn  Zn141  1  0.43872018  0.93763653  0.19118547  1
  Zn  Zn142  1  0.43864430  0.93257206  0.69217434  1
  Zn  Zn143  1  0.93251116  0.44011570  0.18234967  1
  Zn  Zn144  1  0.93213408  0.44073414  0.69042584  1
  Zn  Zn145  1  0.93979815  0.94198283  0.19354759  1
  Zn  Zn146  1  0.94087337  0.94043935  0.69151122  1
  Zn  Zn147  1  0.04990667  0.06268208  0.32196245  1
  Zn  Zn148  1  0.06319892  0.06093729  0.80898811  1
  Zn  Zn149  1  0.06663718  0.56216207  0.31287951  1
  Zn  Zn150  1  0.06143998  0.56309286  0.81594581  1
  Zn  Zn151  1  0.56135809  0.06325717  0.30576438  1
  Zn  Zn152  1  0.56506285  0.06520197  0.81056962  1
  Zn  Zn153  1  0.56239700  0.56286379  0.31826141  1
  Zn  Zn154  1  0.56420964  0.56191870  0.81789936  1
  Zn  Zn155  1  0.43227202  0.18763043  0.43870166  1
  Zn  Zn156  1  0.44132354  0.18918694  0.93730572  1
  Zn  Zn157  1  0.43997818  0.69040965  0.44028151  1
  Zn  Zn158  1  0.44134116  0.68685275  0.93970123  1
  Zn  Zn159  1  0.91358191  0.16638766  0.44534786  1
  Zn  Zn160  1  0.93482966  0.18620522  0.93153925  1
  Zn  Zn161  1  0.93589476  0.68901650  0.43770799  1
  Zn  Zn162  1  0.93231497  0.68737270  0.94148475  1
  Zn  Zn163  1  0.05610385  0.30947478  0.06289603  1
  Zn  Zn164  1  0.05472759  0.31692429  0.56299073  1
  Zn  Zn165  1  0.06099192  0.81274986  0.06483535  1
  Zn  Zn166  1  0.06873090  0.81367814  0.56390248  1
  Zn  Zn167  1  0.55855352  0.31222126  0.06799129  1
  Zn  Zn168  1  0.55768436  0.30998852  0.54897817  1
  Zn  Zn169  1  0.56548844  0.81162299  0.06613716  1
  Zn  Zn170  1  0.52853635  1.00788681  0.52764765  1
  O  O171  1  0.12272547  0.11773017  0.11172128  1
  O  O172  1  0.11597628  0.12516838  0.63275338  1
  O  O173  1  0.11804543  0.62750942  0.11518555  1
  O  O174  1  0.11847748  0.62043690  0.62084094  1
  O  O175  1  0.61614955  0.11914023  0.12049460  1
  O  O176  1  0.70501294  0.11136737  0.56914376  1
  O  O177  1  0.62636532  0.61849348  0.11960644  1
  O  O178  1  0.62495029  0.63153521  0.60969440  1
  O  O179  1  0.36372185  0.37227895  0.38283651  1
  O  O180  1  0.38153816  0.38244063  0.87921679  1
  O  O181  1  0.39067805  0.86608995  0.36991424  1
  O  O182  1  0.37672383  0.88341305  0.88649502  1
  O  O183  1  0.88436502  0.37941911  0.37866691  1
  O  O184  1  0.87435342  0.37555200  0.88412641  1
  O  O185  1  0.88950358  0.86655016  0.37383230  1
  O  O186  1  0.88244498  0.88209675  0.87237139  1
  O  O187  1  0.22304425  0.02003292  0.36318386  1
  O  O188  1  0.25925616  0.00923846  0.87941920  1
  O  O189  1  0.24169271  0.51808931  0.37742186  1
  O  O190  1  0.25802898  0.50060043  0.86924976  1
  O  O191  1  0.74228670  -0.00074392  0.35995109  1
  O  O192  1  0.75647195  0.00146547  0.86963482  1
  O  O193  1  0.74118237  0.50632835  0.36144661  1
  O  O194  1  0.74496063  0.50787805  0.86657709  1
  O  O195  1  0.24200173  0.49428071  0.12529769  1
  O  O196  1  0.24530725  0.49464146  0.63092904  1
  O  O197  1  0.23399070  0.99441050  0.11995027  1
  O  O198  1  0.25387455  0.97878367  0.63186888  1
  O  O199  1  0.74253509  0.49245325  0.13709934  1
  O  O200  1  0.75011336  0.50840709  0.64020628  1
  O  O201  1  0.74278038  0.99107940  0.13045135  1
  O  O202  1  0.75866668  0.97703938  0.63353427  1
  O  O203  1  0.00074914  0.39126853  0.26227087  1
  O  O204  1  0.00361809  0.36786053  0.75052855  1
  O  O205  1  0.00662496  0.87132062  0.26203713  1
  O  O206  1  0.00266793  0.86484205  0.76457606  1
  O  O207  1  0.50794752  0.36140946  0.24401769  1
  O  O208  1  0.50543730  0.37448638  0.76156421  1
  O  O209  1  0.50788950  0.86227412  0.24704414  1
  O  O210  1  0.50828497  0.86542500  0.75640636  1
  O  O211  1  0.48576927  0.13105198  0.24025612  1
  O  O212  1  0.48622626  0.12809757  0.75609636  1
  O  O213  1  0.50278649  0.63802367  0.25076448  1
  O  O214  1  0.49409232  0.62899575  0.75169722  1
  O  O215  1  1.02010839  0.12170891  0.22220081  1
  O  O216  1  0.99356605  0.13182412  0.74589411  1
  O  O217  1  0.99351259  0.62901570  0.24799340  1
  O  O218  1  0.99813516  0.63128824  0.74601923  1
  O  O219  1  0.37019263  0.25345862  0.00699725  1
  O  O220  1  0.36941958  0.26338690  0.50231715  1
  O  O221  1  0.37199948  0.75539737  0.00682919  1
  O  O222  1  0.36763782  0.74319660  0.51405318  1
  O  O223  1  0.87941786  0.26077937  0.00168056  1
  O  O224  1  0.87574465  0.26471062  0.49748469  1
  O  O225  1  0.86730645  0.74644723  0.00763131  1
  O  O226  1  0.86299594  0.74560948  0.50738493  1
  O  O227  1  0.12177524  0.26195967  0.48626177  1
  O  O228  1  0.12811879  0.24539864  0.99254938  1
  O  O229  1  0.13094412  0.74132890  0.49319599  1
  O  O230  1  0.12845821  0.74301464  0.99636516  1
  O  O231  1  0.62726166  0.24922913  0.48057147  1
  O  O232  1  0.62300361  0.23713705  1.00897767  1
  O  O233  1  0.63730586  0.74136669  0.48770429  1
  O  O234  1  0.62850486  0.74268226  0.99409975  1
  O  O235  1  0.48952660  0.24109464  0.13364268  1
  O  O236  1  0.48358529  0.25019722  0.61721736  1
  O  O237  1  0.49438143  0.74708489  0.13321609  1
  O  O238  1  0.49147483  0.74218248  0.64273659  1
  O  O239  1  0.99506890  0.23585357  0.12670189  1
  O  O240  1  1.00468487  0.24314432  0.63709821  1
  O  O241  1  0.99952561  0.74425060  0.13409102  1
  O  O242  1  0.99907038  0.74434628  0.63444180  1
  O  O243  1  0.00398804  0.27504448  0.37212811  1
  O  O244  1  0.00909502  0.24896100  0.86432740  1
  O  O245  1  0.00702802  0.75667662  0.37224890  1
  O  O246  1  0.00380788  0.75317787  0.87178746  1
  O  O247  1  0.50462866  0.24100726  0.36401353  1
  O  O248  1  0.49612491  0.26443634  0.87034007  1
  O  O249  1  0.50838116  0.75768166  0.37069900  1
  O  O250  1  0.51210740  0.74891657  0.86823569  1
  O  O251  1  0.24309498  0.13007493  0.47794552  1
  O  O252  1  0.24593750  0.13146156  0.98952051  1
  O  O253  1  0.24546012  0.63166373  0.49300798  1
  O  O254  1  0.24067141  0.63042639  1.00044335  1
  O  O255  1  0.81016003  0.12411764  0.46666769  1
  O  O256  1  0.74293756  0.12188315  0.98546984  1
  O  O257  1  0.74502306  0.62908990  0.49294521  1
  O  O258  1  0.73855962  0.62082993  0.99503264  1
  O  O259  1  0.25788014  0.36825951  -0.00012223  1
  O  O260  1  0.25697706  0.37739170  0.50441788  1
  O  O261  1  0.25939389  0.86752923  0.00950661  1
  O  O262  1  0.24061378  0.85503587  0.51431795  1
  O  O263  1  0.75748082  0.37986738  0.01230231  1
  O  O264  1  0.76841028  0.38314973  0.49651955  1
  O  O265  1  0.74210565  0.87762168  0.01761336  1
  O  O266  1  0.74263256  0.86299199  0.51152277  1
  O  O267  1  0.12862578  0.49123050  0.24781967  1
  O  O268  1  0.12904757  0.49550563  0.74640733  1
  O  O269  1  0.11321320  0.98874349  0.24190877  1
  O  O270  1  0.13280844  0.99570532  0.74911009  1
  O  O271  1  0.62597433  0.49114165  0.24753902  1
  O  O272  1  0.63139310  0.50371133  0.74604744  1
  O  O273  1  0.63019462  0.99360399  0.23889413  1
  O  O274  1  0.63348298  0.99010521  0.75358627  1
  O  O275  1  0.36740139  0.01586809  0.23931978  1
  O  O276  1  0.36971986  0.00817356  0.76355700  1
  O  O277  1  0.36922175  0.50622691  0.24442874  1
  O  O278  1  0.37102825  0.51239091  0.75799888  1
  O  O279  1  0.86232672  -0.00258396  0.25292832  1
  O  O280  1  0.86988568  0.00467626  0.76077089  1
  O  O281  1  0.86398413  0.50897156  0.24709399  1
  O  O282  1  0.86100263  0.50264771  0.75436161  1
  O  O283  1  0.11685295  0.37324221  0.36454450  1
  O  O284  1  0.12231802  0.36915550  0.86762951  1
  O  O285  1  0.12121513  0.86249959  0.36956402  1
  O  O286  1  0.11981410  0.86183550  0.87907394  1
  O  O287  1  0.62721272  0.36527676  0.36466951  1
  O  O288  1  0.61193195  0.37486375  0.88303283  1
  O  O289  1  0.61392318  0.86621250  0.36001969  1
  O  O290  1  0.62335526  0.86792607  0.87003476  1
  O  O291  1  0.37557090  0.13286972  0.12872937  1
  O  O292  1  0.35621173  0.13848700  0.63650755  1
  O  O293  1  0.37829265  0.63833838  0.12253731  1
  O  O294  1  0.37354254  0.63215316  0.63717881  1
  O  O295  1  0.88532123  0.12252202  0.11568972  1
  O  O296  1  0.88732357  0.11718905  0.64042689  1
  O  O297  1  0.87976431  0.62459377  0.13704254  1
  O  O298  1  0.88600659  0.63471193  0.62690556  1
  O  O299  1  0.25477087  0.25126278  0.11761172  1
  O  O300  1  0.25194666  0.26051423  0.61949475  1
  O  O301  1  0.25794982  0.75443294  0.12222531  1
  O  O302  1  0.25693249  0.74920930  0.62128279  1
  O  O303  1  0.75119229  0.26136616  0.13475077  1
  O  O304  1  0.76453816  0.24633682  0.64082628  1
  O  O305  1  0.74760654  0.76837142  0.12758050  1
  O  O306  1  0.76045879  0.74342105  0.61761799  1
  O  O307  1  0.23370340  0.24515675  0.37242621  1
  O  O308  1  0.24598710  0.24435403  0.87890656  1
  O  O309  1  0.24361322  0.74500435  0.38409392  1
  O  O310  1  0.24111885  0.74756033  0.88417339  1
  O  O311  1  0.73590305  0.24672922  0.36504072  1
  O  O312  1  0.75170989  0.23257331  0.86725744  1
  O  O313  1  0.74487626  0.74760734  0.38060575  1
  O  O314  1  0.73863069  0.74274688  0.87511950  1
  O  O315  1  0.00567212  0.11761455  0.00054222  1
  O  O316  1  -0.00280181  0.11077966  0.51236489  1
  O  O317  1  0.00546210  0.61792848  0.00404634  1
  O  O318  1  0.00475185  0.62045179  0.50487471  1
  O  O319  1  0.50509777  0.12886498  0.01283261  1
  O  O320  1  0.45879074  0.08888556  0.48057960  1
  O  O321  1  0.51386019  0.61790359  0.00126030  1
  O  O322  1  0.50924161  0.62174365  0.50034742  1
  O  O323  1  0.48433790  0.38438112  0.49197357  1
  O  O324  1  0.49328497  0.37774586  0.99484941  1
  O  O325  1  0.50132312  0.88981399  0.48120678  1
  O  O326  1  0.48813819  0.86882188  1.00099598  1
  O  O327  1  0.99085526  0.38544033  0.49019174  1
  O  O328  1  0.99060126  0.38258826  0.99937334  1
  O  O329  1  1.00250593  0.86910837  0.48880759  1
  O  O330  1  1.00386238  0.87824011  0.98829642  1
  O  O331  1  0.49177092  0.51133954  0.39184956  1
  O  O332  1  0.49631597  0.49002264  0.88239393  1
  O  O333  1  0.49335653  0.98314889  0.35229602  1
  O  O334  1  0.48836359  1.00058033  0.87478026  1
  O  O335  1  1.00629135  0.49330062  0.38595520  1
  O  O336  1  0.99598039  0.49944418  0.88723863  1
  O  O337  1  1.00565051  0.98269832  0.39169738  1
  O  O338  1  0.99310897  0.99083267  0.87746225  1
  O  O339  1  0.00792771  0.00169249  0.11636410  1
  O  O340  1  0.00727375  0.00812401  0.62646133  1
  O  O341  1  0.00143857  0.50747330  0.11315718  1
  O  O342  1  0.00405312  0.50726839  0.61971373  1
  O  O343  1  0.50763392  0.00948265  0.13158246  1
  O  O344  1  0.46787905  0.00994527  0.62169651  1
  O  O345  1  0.50826301  0.49952592  0.11842359  1
  O  O346  1  0.49358441  0.50646181  0.60150293  1
  O  O347  1  0.23418991  0.37283547  0.24593723  1
  O  O348  1  0.24651097  0.38126502  0.74202734  1
  O  O349  1  0.23794265  0.86789421  0.24387608  1
  O  O350  1  0.24738848  0.86895963  0.74762013  1
  O  O351  1  0.74312101  0.38185767  0.24561016  1
  O  O352  1  0.74595690  0.38954912  0.75270670  1
  O  O353  1  0.74176570  0.88273964  0.24181714  1
  O  O354  1  0.74176710  0.88186536  0.75941962  1
  O  O355  1  0.25448262  0.13365342  0.24590421  1
  O  O356  1  0.25797688  0.12704141  0.76430206  1
  O  O357  1  0.24842178  0.62873923  0.26622501  1
  O  O358  1  0.25729743  0.61927668  0.75582669  1
  O  O359  1  0.74962192  0.11108979  0.24435948  1
  O  O360  1  0.75576227  0.10675130  0.75904041  1
  O  O361  1  0.75605893  0.61867517  0.25340126  1
  O  O362  1  0.74668557  0.61728722  0.75932854  1
  O  O363  1  0.35331810  0.12625191  0.35634149  1
  O  O364  1  0.36968941  0.12044169  0.87304428  1
  O  O365  1  0.35890124  0.63478781  0.37645408  1
  O  O366  1  0.37650377  0.61637254  0.87241894  1
  O  O367  1  0.95501743  0.13883502  0.34452234  1
  O  O368  1  0.86409157  0.11680126  0.86835357  1
  O  O369  1  0.86849412  0.63062230  0.36243599  1
  O  O370  1  0.85890866  0.62288216  0.87558755  1
  O  O371  1  0.11727732  0.37245105  0.13827257  1
  O  O372  1  0.13204644  0.38148520  0.62936307  1
  O  O373  1  0.12764201  0.88198748  0.13336050  1
  O  O374  1  0.13708680  0.86589263  0.63700835  1
  O  O375  1  0.63089029  0.37844217  0.13393499  1
  O  O376  1  0.61806222  0.37905114  0.61133616  1
  O  O377  1  0.62927015  0.88183169  0.13392153  1
  O  O378  1  0.62719996  0.87509734  0.63577768  1
  O  O379  1  0.10110655  0.25790559  0.25840611  1
  O  O380  1  0.12051326  0.25689625  0.75500192  1
  O  O381  1  0.11730602  0.75683217  0.25794453  1
  O  O382  1  0.11369333  0.74483961  0.76308669  1
  O  O383  1  0.61412186  0.25342896  0.25736411  1
  O  O384  1  0.62448496  0.23205137  0.72617545  1
  O  O385  1  0.62120107  0.75592004  0.25818181  1
  O  O386  1  0.61962943  0.75651718  0.75654594  1
  O  O387  1  0.37765576  0.24309338  0.24196727  1
  O  O388  1  0.37849173  0.24346223  0.73894526  1
  O  O389  1  0.38393807  0.74586876  0.24224552  1
  O  O390  1  0.38270624  0.73718549  0.75408106  1
  O  O391  1  0.89117079  0.25584689  0.24809910  1
  O  O392  1  0.88706430  0.23933651  0.75998056  1
  O  O393  1  0.88072603  0.74281407  0.24515074  1
  O  O394  1  0.88542525  0.74413212  0.74779647  1
  O  O395  1  0.37735436  0.48595515  0.49901465  1
  O  O396  1  0.38184125  0.49465972  0.99603335  1
  O  O397  1  0.32425245  0.98672050  0.48379041  1
  O  O398  1  0.37109245  0.99019274  0.99582636  1
  O  O399  1  0.88577234  0.50071567  0.50261085  1
  O  O400  1  0.88061023  0.49230178  0.99893528  1
  O  O401  1  0.90171500  0.98354822  0.51770285  1
  O  O402  1  0.88038508  1.00291612  0.98687704  1
  O  O403  1  0.11834066  0.00331179  0.00516374  1
  O  O404  1  0.10986347  -0.01491413  0.51378672  1
  O  O405  1  0.11653128  0.50814267  -0.00039190  1
  O  O406  1  0.11540285  0.50519512  0.50743453  1
  O  O407  1  0.62658754  0.00929304  0.01389005  1
  O  O408  1  0.63867551  -0.01477790  0.50544059  1
  O  O409  1  0.62144733  0.50586756  0.00813191  1
  O  O410  1  0.61271642  0.50838345  0.49032159  1
  O  O411  1  0.37577632  0.36148277  0.11849075  1
  O  O412  1  0.36057975  0.36665294  0.61833966  1
  O  O413  1  0.37163237  0.86602997  0.12228632  1
  O  O414  1  0.36673559  0.85401923  0.64053000  1
  O  O415  1  0.86488937  0.37285479  0.11771556  1
  O  O416  1  0.88225084  0.37818502  0.60988210  1
  O  O417  1  0.86127472  0.87861184  0.13048185  1
  O  O418  1  0.88433577  0.85835873  0.63556402  1
  O  O419  1  0.12727697  0.14167924  0.36400052  1
  O  O420  1  0.13319599  0.12986414  0.87793136  1
  O  O421  1  0.13141771  0.63710698  0.37923782  1
  O  O422  1  0.12350197  0.63466672  0.88799531  1
  O  O423  1  0.62491118  0.13004305  0.37549921  1
  O  O424  1  0.63645868  0.11883696  0.88395999  1
  O  O425  1  0.63267580  0.63612975  0.37895066  1
  O  O426  1  0.63243077  0.63201016  0.88364380  1
