# generated using pymatgen
data_V85Zn86O256
_symmetry_space_group_name_H-M   'P 1'
_cell_length_a   16.93736029
_cell_length_b   16.93275912
_cell_length_c   16.93535689
_cell_angle_alpha   90.02797492
_cell_angle_beta   89.98665967
_cell_angle_gamma   89.86840019
_symmetry_Int_Tables_number   1
_chemical_formula_structural   V85Zn86O256
_chemical_formula_sum   'V85 Zn86 O256'
_cell_volume   4856.98318699
_cell_formula_units_Z   1
loop_
 _symmetry_equiv_pos_site_id
 _symmetry_equiv_pos_as_xyz
  1  'x, y, z'
loop_
 _atom_site_type_symbol
 _atom_site_label
 _atom_site_symmetry_multiplicity
 _atom_site_fract_x
 _atom_site_fract_y
 _atom_site_fract_z
 _atom_site_occupancy
  V  V0  1  0.49181362  0.87136901  0.87109874  1
  V  V1  1  0.88210421  0.38113851  0.00117384  1
  V  V2  1  0.38411347  0.74988595  0.11884954  1
  V  V3  1  0.62424857  0.12399088  -0.00114216  1
  V  V4  1  0.88292980  0.50125623  0.87696389  1
  V  V5  1  0.24782648  0.51495426  0.74995725  1
  V  V6  1  0.61569205  0.87424119  0.25714375  1
  V  V7  1  0.87427995  0.63223644  0.24443943  1
  V  V8  1  0.12792497  0.13125138  -0.00551916  1
  V  V9  1  0.12472798  -0.00726359  0.12882195  1
  V  V10  1  0.00045318  0.12661721  0.12628806  1
  V  V11  1  0.39031388  0.74815581  0.62575947  1
  V  V12  1  0.87083255  0.85729005  0.50241716  1
  V  V13  1  0.61576793  0.50585112  0.12754546  1
  V  V14  1  0.61776042  0.62963613  0.00347715  1
  V  V15  1  0.12645177  0.13290463  0.50191178  1
  V  V16  1  0.37483670  0.50381194  0.37592635  1
  V  V17  1  0.00911896  0.87024029  0.37643088  1
  V  V18  1  0.62248344  0.24782731  0.37832176  1
  V  V19  1  0.48899830  0.23856362  0.75153908  1
  V  V20  1  0.37314701  0.50504832  0.87297051  1
  V  V21  1  0.62121575  0.75128484  0.86770185  1
  V  V22  1  0.39368892  0.62973634  0.74621046  1
  V  V23  1  0.87501423  -0.00268702  0.38030455  1
  V  V24  1  0.74951794  0.25008914  -0.00049443  1
  V  V25  1  0.87366817  0.87127943  0.00791967  1
  V  V26  1  0.38667325  0.87643248  0.48389606  1
  V  V27  1  0.11689610  0.50506899  0.11224977  1
  V  V28  1  0.37563186  0.37377686  0.50483602  1
  V  V29  1  0.62130349  0.37533420  0.24890171  1
  V  V30  1  0.00211716  0.48742648  0.49384085  1
  V  V31  1  0.87329566  0.62854392  0.73848115  1
  V  V32  1  0.00285264  0.87181740  0.87333181  1
  V  V33  1  0.49776677  0.37325692  0.37741713  1
  V  V34  1  0.74696956  0.37609430  0.12339546  1
  V  V35  1  0.75363725  0.86373982  0.62611376  1
  V  V36  1  0.87729526  0.25135402  0.12963670  1
  V  V37  1  0.61626663  0.37909386  0.75700050  1
  V  V38  1  0.12653709  -0.00396337  0.62598973  1
  V  V39  1  0.37930085  0.37522713  -0.00734408  1
  V  V40  1  0.62834749  0.62869844  0.51294480  1
  V  V41  1  0.25193024  0.73323252  -0.00646723  1
  V  V42  1  0.75005058  0.62629170  0.87486483  1
  V  V43  1  0.87491043  0.25185764  0.62967081  1
  V  V44  1  0.87548120  0.12429589  0.75269887  1
  V  V45  1  0.25673867  0.00010449  0.75095499  1
  V  V46  1  0.12179824  0.62879409  0.49324523  1
  V  V47  1  0.74708844  0.37742355  0.62561640  1
  V  V48  1  0.74931008  0.49938794  0.74617056  1
  V  V49  1  0.12784786  0.37458564  0.75841680  1
  V  V50  1  -0.00115505  -0.00279626  0.50168428  1
  V  V51  1  0.37385045  0.00728002  0.87390959  1
  V  V52  1  0.25451235  0.25311509  0.49418460  1
  V  V53  1  0.74716803  0.12321467  0.38511696  1
  V  V54  1  0.50129034  0.50062562  -0.00655092  1
  V  V55  1  0.38287076  0.62362619  0.24243728  1
  V  V56  1  0.87365077  0.12743652  0.25162231  1
  V  V57  1  0.87077402  -0.00257477  0.87091711  1
  V  V58  1  0.25138308  0.87246108  0.11220608  1
  V  V59  1  0.75027304  0.75052401  0.00663878  1
  V  V60  1  0.49878060  0.12368481  0.12087273  1
  V  V61  1  0.01224447  0.25118009  0.75945121  1
  V  V62  1  0.74820418  0.12256549  0.87135779  1
  V  V63  1  0.24890214  -0.00385084  0.25315466  1
  V  V64  1  0.00130732  -0.00437387  0.00030002  1
  V  V65  1  0.62748403  0.88173228  0.74992901  1
  V  V66  1  0.24591071  0.12764663  0.37122820  1
  V  V67  1  0.37271182  0.11862277  0.24673796  1
  V  V68  1  0.75067952  -0.00232992  0.24929013  1
  V  V69  1  0.50625256  0.50531239  0.51214031  1
  V  V70  1  0.37129067  0.25272404  0.11966856  1
  V  V71  1  0.12101253  0.36589569  0.25671560  1
  V  V72  1  0.74808399  0.63516276  0.37826903  1
  V  V73  1  0.24868869  0.37641845  0.62697040  1
  V  V74  1  0.74958614  0.50276241  0.25308143  1
  V  V75  1  0.49542992  -0.00575343  -0.00176056  1
  V  V76  1  0.25560963  0.86932530  0.62426032  1
  V  V77  1  0.12865326  0.73223554  0.87542286  1
  V  V78  1  0.62756459  0.00752622  0.62596495  1
  V  V79  1  -0.00207594  0.74919651  0.74242919  1
  V  V80  1  0.00409371  0.12449829  0.63077131  1
  V  V81  1  0.24572352  0.50043818  0.24786622  1
  V  V82  1  0.00768991  0.74595174  0.24838388  1
  V  V83  1  0.49697073  0.24912796  0.24816256  1
  V  V84  1  0.24879119  0.75051896  0.49042311  1
  Zn  Zn85  1  0.24667076  0.63046881  0.37017718  1
  Zn  Zn86  1  0.49765871  0.00572549  0.50157784  1
  Zn  Zn87  1  0.75171421  0.86912589  0.13124006  1
  Zn  Zn88  1  -0.00576819  0.62249875  0.10805127  1
  Zn  Zn89  1  0.74742710  0.25131180  0.50498311  1
  Zn  Zn90  1  0.88110722  0.49037469  0.36971390  1
  Zn  Zn91  1  0.49892909  0.74857873  0.25300816  1
  Zn  Zn92  1  0.00749287  0.37467528  0.88278732  1
  Zn  Zn93  1  0.25025833  0.13851080  0.86876946  1
  Zn  Zn94  1  0.42375537  0.19151395  0.59511435  1
  Zn  Zn95  1  0.60740507  0.13335267  0.51565414  1
  Zn  Zn96  1  0.24150087  0.26180245  -0.00953336  1
  Zn  Zn97  1  0.87605756  0.37037771  0.49227778  1
  Zn  Zn98  1  0.24805399  0.37734147  0.12317057  1
  Zn  Zn99  1  0.61709334  0.75468034  0.38439449  1
  Zn  Zn100  1  0.12691679  0.87007593  0.75001312  1
  Zn  Zn101  1  0.62562613  -0.00256212  0.12391799  1
  Zn  Zn102  1  0.61877181  0.25561990  0.87729793  1
  Zn  Zn103  1  0.12071978  0.50340287  0.62491280  1
  Zn  Zn104  1  -0.00400220  0.62725882  0.61691054  1
  Zn  Zn105  1  0.12943464  0.86658563  0.25271956  1
  Zn  Zn106  1  -0.02873703  0.30786385  0.32619800  1
  Zn  Zn107  1  0.18804058  0.18747959  0.17896062  1
  Zn  Zn108  1  0.23250020  0.17278288  0.66970485  1
  Zn  Zn109  1  0.18922004  0.68466707  0.18384196  1
  Zn  Zn110  1  0.18432934  0.68929482  0.67946715  1
  Zn  Zn111  1  0.68680642  0.18479584  0.18858501  1
  Zn  Zn112  1  0.68586263  0.19373155  0.69491449  1
  Zn  Zn113  1  0.68503754  0.68896579  0.18857355  1
  Zn  Zn114  1  0.68497166  0.68858893  0.68782488  1
  Zn  Zn115  1  0.30869278  0.31307485  0.31196870  1
  Zn  Zn116  1  0.31372000  0.31654735  0.81512114  1
  Zn  Zn117  1  0.31643653  0.81193980  0.30690492  1
  Zn  Zn118  1  0.31360342  0.81037653  0.81194182  1
  Zn  Zn119  1  0.80204799  0.31278377  0.31263549  1
  Zn  Zn120  1  0.81348325  0.31274994  0.81417909  1
  Zn  Zn121  1  0.81453124  0.81239491  0.31531040  1
  Zn  Zn122  1  0.81025213  0.81195561  0.81229396  1
  Zn  Zn123  1  0.18443129  0.43897972  0.43243753  1
  Zn  Zn124  1  0.19401063  0.44336110  0.93533654  1
  Zn  Zn125  1  0.19205106  0.94039074  0.43844450  1
  Zn  Zn126  1  0.18574697  0.93631928  0.93780133  1
  Zn  Zn127  1  0.68734769  0.43799153  0.43931588  1
  Zn  Zn128  1  0.69225154  0.44070063  0.93577641  1
  Zn  Zn129  1  0.68576386  0.93787648  0.44357039  1
  Zn  Zn130  1  0.68618891  0.93755217  0.93738924  1
  Zn  Zn131  1  0.31165595  0.05881937  0.05947900  1
  Zn  Zn132  1  0.31338190  0.05535599  0.55956341  1
  Zn  Zn133  1  0.31202151  0.56203449  0.06484686  1
  Zn  Zn134  1  0.31205667  0.56514074  0.56396416  1
  Zn  Zn135  1  0.81295314  0.06047296  0.06047695  1
  Zn  Zn136  1  0.80899176  0.05610443  0.56904503  1
  Zn  Zn137  1  0.80814468  0.56362946  0.06468788  1
  Zn  Zn138  1  0.81505335  0.55770310  0.55784260  1
  Zn  Zn139  1  0.43653448  0.43823339  0.18520484  1
  Zn  Zn140  1  0.43460267  0.43693015  0.68817120  1
  Zn  Zn141  1  0.43484582  0.93537044  0.18308900  1
  Zn  Zn142  1  0.44183258  0.93694483  0.68771852  1
  Zn  Zn143  1  0.93963629  0.44214165  0.18587825  1
  Zn  Zn144  1  0.93968598  0.43892926  0.68514849  1
  Zn  Zn145  1  0.93992673  0.93563369  0.19132384  1
  Zn  Zn146  1  0.93410363  0.93524692  0.68808113  1
  Zn  Zn147  1  0.04165946  0.10472078  0.33138210  1
  Zn  Zn148  1  0.06440881  0.05772654  0.81151403  1
  Zn  Zn149  1  0.06436761  0.56100435  0.31243285  1
  Zn  Zn150  1  0.05923926  0.56139111  0.80975160  1
  Zn  Zn151  1  0.56327368  0.05525723  0.31366319  1
  Zn  Zn152  1  0.56132434  0.06320204  0.80901171  1
  Zn  Zn153  1  0.56056153  0.56661574  0.32005993  1
  Zn  Zn154  1  0.56538078  0.56035318  0.81265348  1
  Zn  Zn155  1  0.45266783  0.14799988  0.41636665  1
  Zn  Zn156  1  0.43845977  0.18921080  0.93032846  1
  Zn  Zn157  1  0.44019739  0.68892906  0.43729023  1
  Zn  Zn158  1  0.43585788  0.68735824  0.93525067  1
  Zn  Zn159  1  0.93253254  0.18288667  0.44820254  1
  Zn  Zn160  1  0.93825870  0.18866792  0.94067173  1
  Zn  Zn161  1  0.93842492  0.68217493  0.42821293  1
  Zn  Zn162  1  0.93533085  0.68730212  0.93117573  1
  Zn  Zn163  1  0.06218120  0.31525824  0.07236296  1
  Zn  Zn164  1  0.06637400  0.31208224  0.57119042  1
  Zn  Zn165  1  0.04847999  0.77868955  0.04641467  1
  Zn  Zn166  1  0.06442160  0.81061717  0.55991513  1
  Zn  Zn167  1  0.55949508  0.31373158  0.05984158  1
  Zn  Zn168  1  0.56493154  0.31737375  0.56811876  1
  Zn  Zn169  1  0.56611764  0.81771764  0.06471370  1
  Zn  Zn170  1  0.56471293  0.81467732  0.56359931  1
  O  O171  1  0.11698207  0.11675505  0.11745685  1
  O  O172  1  0.12852733  0.11554513  0.61871784  1
  O  O173  1  0.12168835  0.60832592  0.13181778  1
  O  O174  1  0.12166473  0.62250833  0.60956841  1
  O  O175  1  0.61707914  0.12315081  0.11810842  1
  O  O176  1  0.63593972  0.11189963  0.63081997  1
  O  O177  1  0.62849649  0.61734597  0.11639631  1
  O  O178  1  0.63228034  0.62062601  0.61206250  1
  O  O179  1  0.37680206  0.38349099  0.38449341  1
  O  O180  1  0.37677323  0.39347319  0.88057920  1
  O  O181  1  0.37485255  0.87304133  0.38566692  1
  O  O182  1  0.38814779  0.88006988  0.87003462  1
  O  O183  1  0.88106153  0.36780262  0.37269602  1
  O  O184  1  0.87356052  0.38394341  0.88475920  1
  O  O185  1  0.88087664  0.88093685  0.38496390  1
  O  O186  1  0.88168935  0.88170364  0.87925767  1
  O  O187  1  0.24834506  0.00687714  0.35990362  1
  O  O188  1  0.25932210  -0.00797085  0.86737757  1
  O  O189  1  0.25863940  0.50031891  0.36453422  1
  O  O190  1  0.26086415  0.50202910  0.86277052  1
  O  O191  1  0.75211319  0.00648971  0.36887367  1
  O  O192  1  0.76032900  0.00846445  0.88160016  1
  O  O193  1  0.74734123  0.50151942  0.36105112  1
  O  O194  1  0.75898105  0.50673838  0.86517628  1
  O  O195  1  0.24368887  0.49994654  0.13541998  1
  O  O196  1  0.24821850  0.49202378  0.63028709  1
  O  O197  1  0.24485639  0.99282703  0.13078807  1
  O  O198  1  0.24424703  0.98617159  0.63041653  1
  O  O199  1  0.73768176  0.49722152  0.13519490  1
  O  O200  1  0.75947518  0.49230219  0.63840300  1
  O  O201  1  0.75059429  1.00377296  0.14032301  1
  O  O202  1  0.73576990  0.98744756  0.62515076  1
  O  O203  1  0.01314755  0.37580882  0.24557192  1
  O  O204  1  0.00912692  0.36935941  0.75171084  1
  O  O205  1  0.00167931  0.86609501  0.26016036  1
  O  O206  1  -0.00122458  0.86755039  0.75712536  1
  O  O207  1  0.50244798  0.36963250  0.25635685  1
  O  O208  1  0.51513758  0.38276945  0.74890762  1
  O  O209  1  0.51352470  0.88090912  0.24902702  1
  O  O210  1  0.51294302  0.87649403  0.76046751  1
  O  O211  1  0.48986309  0.12935366  0.24038025  1
  O  O212  1  0.49870854  0.13796336  0.74859841  1
  O  O213  1  0.48624350  0.61850176  0.24855468  1
  O  O214  1  0.49226872  0.62174728  0.74704509  1
  O  O215  1  0.98830395  0.11102797  0.23147856  1
  O  O216  1  0.99864947  0.13199983  0.74830191  1
  O  O217  1  0.99268375  0.63527265  0.25489222  1
  O  O218  1  0.99027723  0.63110133  0.74588973  1
  O  O219  1  0.37998519  0.26033529  0.00367517  1
  O  O220  1  0.36693928  0.26183080  0.50121004  1
  O  O221  1  0.36283052  0.74584054  0.00427963  1
  O  O222  1  0.37035848  0.75743353  0.50721146  1
  O  O223  1  0.86830368  0.25652320  0.01009614  1
  O  O224  1  0.87246561  0.25019786  0.51719280  1
  O  O225  1  0.86105815  0.76204625  -0.01232985  1
  O  O226  1  0.88039847  0.75850341  0.49653829  1
  O  O227  1  0.13019491  0.23759901  0.50583714  1
  O  O228  1  0.12302096  0.23516102  1.00921651  1
  O  O229  1  0.13595215  0.74272099  0.50135886  1
  O  O230  1  0.14559699  0.75952676  0.98730905  1
  O  O231  1  0.62581158  0.24936082  0.49315832  1
  O  O232  1  0.62954802  0.24287491  0.99849621  1
  O  O233  1  0.62218094  0.73299498  0.50281614  1
  O  O234  1  0.62944107  0.74513349  0.99404101  1
  O  O235  1  0.49014348  0.24560277  0.12832867  1
  O  O236  1  0.50243360  0.25993594  0.64329512  1
  O  O237  1  0.48731179  0.75714076  0.12448361  1
  O  O238  1  0.48956321  0.75246540  0.62446250  1
  O  O239  1  0.98840073  0.23994731  0.12246149  1
  O  O240  1  0.99390747  0.24305359  0.63459045  1
  O  O241  1  0.99701095  0.75541472  0.14765687  1
  O  O242  1  1.00406153  0.75049289  0.63841076  1
  O  O243  1  0.00183784  0.21073667  0.36634560  1
  O  O244  1  -0.00658000  0.25411325  0.86434801  1
  O  O245  1  -0.00227564  0.76090871  0.36539786  1
  O  O246  1  0.00946457  0.75654461  0.86305095  1
  O  O247  1  0.50532344  0.25064762  0.36796413  1
  O  O248  1  0.50330099  0.25084412  0.86055618  1
  O  O249  1  0.50509762  0.74228946  0.36627250  1
  O  O250  1  0.50923878  0.76008267  0.88303661  1
  O  O251  1  0.24626944  0.13165137  0.48952620  1
  O  O252  1  0.23382309  0.12202612  0.99941499  1
  O  O253  1  0.24486402  0.63433001  0.49803652  1
  O  O254  1  0.24953049  0.63484525  0.99854027  1
  O  O255  1  0.74945397  0.12523004  0.49087141  1
  O  O256  1  0.74460758  0.12913241  0.99319401  1
  O  O257  1  0.73713216  0.61149882  0.49122202  1
  O  O258  1  0.74014227  0.63087235  0.99469819  1
  O  O259  1  0.26579464  0.37971444  0.00279191  1
  O  O260  1  0.25507482  0.37235156  0.50186821  1
  O  O261  1  0.25250678  0.87596570  0.01043872  1
  O  O262  1  0.25834102  0.86893553  0.50540406  1
  O  O263  1  0.75633230  0.37025142  0.00613344  1
  O  O264  1  0.75285291  0.37473145  0.51062345  1
  O  O265  1  0.75520615  0.86851934  0.00180825  1
  O  O266  1  0.75814066  0.87616497  0.51200356  1
  O  O267  1  0.13203460  0.49276538  0.24560217  1
  O  O268  1  0.13245878  0.49586322  0.74791631  1
  O  O269  1  0.13304882  0.99947039  0.23623196  1
  O  O270  1  0.12757791  0.99221980  0.73781799  1
  O  O271  1  0.62626534  0.49747088  0.24351415  1
  O  O272  1  0.63585987  0.49122729  0.75385824  1
  O  O273  1  0.63284054  0.99211397  0.24971851  1
  O  O274  1  0.62532197  0.99018438  0.74351274  1
  O  O275  1  0.36571188  0.01230108  0.23939367  1
  O  O276  1  0.36689942  -0.00625608  0.75752194  1
  O  O277  1  0.36818722  0.50304044  0.25451913  1
  O  O278  1  0.37080887  0.51090282  0.75342834  1
  O  O279  1  0.86783231  0.00363157  0.25869030  1
  O  O280  1  0.88144126  0.00706370  0.76351850  1
  O  O281  1  0.86454878  0.50446962  0.25041770  1
  O  O282  1  0.87016768  0.50726751  0.75725641  1
  O  O283  1  0.12644238  0.37424044  0.35735277  1
  O  O284  1  0.12534383  0.38242151  0.86351247  1
  O  O285  1  0.11190939  0.88395004  0.37594583  1
  O  O286  1  0.11162321  0.87353804  0.87331556  1
  O  O287  1  0.62066559  0.36406375  0.37060551  1
  O  O288  1  0.63263447  0.37558367  0.86163437  1
  O  O289  1  0.63185349  0.87463215  0.36213562  1
  O  O290  1  0.62117665  0.87040799  0.86739184  1
  O  O291  1  0.37759460  0.13285033  0.12641548  1
  O  O292  1  0.33663353  0.13414800  0.63278937  1
  O  O293  1  0.37117858  0.63492783  0.13101656  1
  O  O294  1  0.37397108  0.63240815  0.63671682  1
  O  O295  1  0.87975546  0.13225857  0.12685958  1
  O  O296  1  0.87975303  0.12883590  0.63394842  1
  O  O297  1  0.87644105  0.61805805  0.13913746  1
  O  O298  1  0.87250890  0.62357040  0.63536261  1
  O  O299  1  0.26215805  0.25160526  0.11460466  1
  O  O300  1  0.24187445  0.26936582  0.61018198  1
  O  O301  1  0.25364043  0.75417525  0.11186811  1
  O  O302  1  0.25616296  0.75895949  0.61628289  1
  O  O303  1  0.75588232  0.25416006  0.12019130  1
  O  O304  1  0.75817166  0.25699860  0.62817804  1
  O  O305  1  0.74797727  0.74887965  0.11112328  1
  O  O306  1  0.74755691  0.76409119  0.62685759  1
  O  O307  1  0.24760000  0.24604486  0.38610563  1
  O  O308  1  0.25236729  0.25036825  0.87926767  1
  O  O309  1  0.25644721  0.75085000  0.38645660  1
  O  O310  1  0.24553429  0.75300437  0.88505754  1
  O  O311  1  0.74004896  0.24123622  0.37825059  1
  O  O312  1  0.75067395  0.24192332  0.88482721  1
  O  O313  1  0.74566876  0.73747156  0.37340616  1
  O  O314  1  0.73991801  0.74575651  0.88338335  1
  O  O315  1  0.00578514  0.11822967  0.00882853  1
  O  O316  1  0.00952651  0.11687423  0.51234776  1
  O  O317  1  0.01029745  0.67334166  0.00968868  1
  O  O318  1  0.00582384  0.61857503  0.49796489  1
  O  O319  1  0.50522681  0.11771092  0.00135329  1
  O  O320  1  0.49142564  0.13199814  0.52150101  1
  O  O321  1  0.51176052  0.62013904  -0.00245857  1
  O  O322  1  0.51244641  0.61246548  0.49717475  1
  O  O323  1  0.49393386  0.38273416  0.49659990  1
  O  O324  1  0.48931829  0.38577829  1.00239321  1
  O  O325  1  0.48942643  0.87425590  0.49818890  1
  O  O326  1  0.51099328  0.88836439  0.98903616  1
  O  O327  1  1.00264880  0.38373538  0.50379306  1
  O  O328  1  0.98587917  0.36917133  1.00134738  1
  O  O329  1  0.99330963  0.87853759  0.49546712  1
  O  O330  1  0.99158120  0.87258295  0.99167639  1
  O  O331  1  0.49146629  0.49139446  0.38103008  1
  O  O332  1  0.49590324  0.50489436  0.88745874  1
  O  O333  1  0.48929636  1.03889666  0.39094644  1
  O  O334  1  0.49266118  0.99510525  0.87851866  1
  O  O335  1  0.99994035  0.50092310  0.38876233  1
  O  O336  1  0.98671693  0.49749846  0.87363061  1
  O  O337  1  0.99224796  0.99938201  0.38298181  1
  O  O338  1  0.99421909  0.99071372  0.88068242  1
  O  O339  1  0.00686269  0.00130913  0.11868836  1
  O  O340  1  0.00799709  0.00331346  0.62334773  1
  O  O341  1  0.01080724  0.50445536  0.12115862  1
  O  O342  1  -0.00056547  0.50415550  0.61032885  1
  O  O343  1  0.49924686  0.00477086  0.11442416  1
  O  O344  1  0.52140018  -0.01012767  0.62368964  1
  O  O345  1  0.51042055  0.49693962  0.11485815  1
  O  O346  1  0.49652146  0.49704522  0.60987327  1
  O  O347  1  0.24371609  0.38370194  0.24614070  1
  O  O348  1  0.24610539  0.38388314  0.74198076  1
  O  O349  1  0.24793515  0.88151086  0.24331028  1
  O  O350  1  0.24872651  0.87955488  0.74117591  1
  O  O351  1  0.74014020  0.38295876  0.24307280  1
  O  O352  1  0.74574870  0.38214198  0.74651532  1
  O  O353  1  0.74653084  0.88311376  0.25063616  1
  O  O354  1  0.74356557  0.87283403  0.73948371  1
  O  O355  1  0.25176713  0.11944279  0.25088086  1
  O  O356  1  0.23238571  0.10282414  0.75930308  1
  O  O357  1  0.25969136  0.61765735  0.25163546  1
  O  O358  1  0.25317397  0.61617160  0.74122317  1
  O  O359  1  0.75413359  0.11855187  0.26048835  1
  O  O360  1  0.75689808  0.13173735  0.76536924  1
  O  O361  1  0.75400803  0.62035623  0.25560158  1
  O  O362  1  0.75423191  0.61906353  0.75419215  1
  O  O363  1  0.35554220  0.13643775  0.35671980  1
  O  O364  1  0.36968289  0.11105705  0.87839835  1
  O  O365  1  0.37301850  0.61292651  0.36970750  1
  O  O366  1  0.38059475  0.61755017  0.85968518  1
  O  O367  1  0.86322986  0.11661869  0.37317088  1
  O  O368  1  0.86976774  0.11725216  0.87437967  1
  O  O369  1  0.86381457  0.61744175  0.36494203  1
  O  O370  1  0.86835143  0.61826620  0.86819975  1
  O  O371  1  0.12748625  0.38846141  0.13161639  1
  O  O372  1  0.13163186  0.38149148  0.63738451  1
  O  O373  1  0.13374640  0.88087433  0.12648964  1
  O  O374  1  0.13474129  0.88027496  0.62314406  1
  O  O375  1  0.62791199  0.38239104  0.12861174  1
  O  O376  1  0.64026472  0.37378521  0.63837933  1
  O  O377  1  0.63145028  0.87947558  0.13842058  1
  O  O378  1  0.63518164  0.87837893  0.63127764  1
  O  O379  1  0.13178586  0.26686627  0.23884834  1
  O  O380  1  0.11547715  0.25908979  0.74452094  1
  O  O381  1  0.11368902  0.74743340  0.25092993  1
  O  O382  1  0.12033188  0.75026981  0.75727227  1
  O  O383  1  0.61840491  0.25520097  0.25547457  1
  O  O384  1  0.61822577  0.26486173  0.75467153  1
  O  O385  1  0.62311359  0.76457841  0.24860793  1
  O  O386  1  0.62870149  0.75732879  0.76245248  1
  O  O387  1  0.37602173  0.24414439  0.23913136  1
  O  O388  1  0.39014951  0.26015363  0.75093975  1
  O  O389  1  0.37555871  0.74024582  0.23841021  1
  O  O390  1  0.37270741  0.73579951  0.74374777  1
  O  O391  1  0.86997999  0.24514450  0.24023874  1
  O  O392  1  0.88225054  0.24509570  0.74366428  1
  O  O393  1  0.88367586  0.74060573  0.25664799  1
  O  O394  1  0.88388881  0.73928065  0.75909168  1
  O  O395  1  0.38311186  0.49834946  0.49269449  1
  O  O396  1  0.38252176  0.50026705  0.99333416  1
  O  O397  1  0.37540564  0.97922636  0.50528186  1
  O  O398  1  0.38511258  1.00024607  0.99136343  1
  O  O399  1  0.88793978  0.49331184  0.49389454  1
  O  O400  1  0.86538493  0.49234862  0.99194024  1
  O  O401  1  0.88074275  0.99518399  0.49718731  1
  O  O402  1  0.88131571  0.99264097  0.99077612  1
  O  O403  1  0.11950206  0.00537261  0.00981948  1
  O  O404  1  0.12326320  0.00598231  0.51129019  1
  O  O405  1  0.13048039  0.49813585  0.01367314  1
  O  O406  1  0.11549310  0.50419506  0.50023854  1
  O  O407  1  0.61852050  0.00916565  0.00100737  1
  O  O408  1  0.62313574  0.00733323  0.51265353  1
  O  O409  1  0.62006657  0.50701543  0.00495347  1
  O  O410  1  0.61149961  0.50406751  0.49674079  1
  O  O411  1  0.37458189  0.36759963  0.11708170  1
  O  O412  1  0.36598005  0.38353505  0.61200532  1
  O  O413  1  0.36330716  0.86247465  0.13094248  1
  O  O414  1  0.37006826  0.86537499  0.62382093  1
  O  O415  1  0.86838235  0.37128085  0.12057863  1
  O  O416  1  0.86638833  0.36579006  0.62864387  1
  O  O417  1  0.87286971  0.88202490  0.11149015  1
  O  O418  1  0.86203662  0.87924945  0.61866274  1
  O  O419  1  0.13887417  0.11599127  0.38762007  1
  O  O420  1  0.12077601  0.11716080  0.89296051  1
  O  O421  1  0.12995506  0.61978859  0.38743810  1
  O  O422  1  0.12253248  0.63326777  0.87259210  1
  O  O423  1  0.63187249  0.13724997  0.37362170  1
  O  O424  1  0.63325641  0.12504566  0.88045391  1
  O  O425  1  0.63473778  0.62402144  0.38382091  1
  O  O426  1  0.62929697  0.63318420  0.88092929  1
