# generated using pymatgen
data_V85Zn86O256
_symmetry_space_group_name_H-M   'P 1'
_cell_length_a   16.93011016
_cell_length_b   16.92741295
_cell_length_c   16.92625743
_cell_angle_alpha   89.98813720
_cell_angle_beta   90.02337027
_cell_angle_gamma   89.96576221
_symmetry_Int_Tables_number   1
_chemical_formula_structural   V85Zn86O256
_chemical_formula_sum   'V85 Zn86 O256'
_cell_volume   4850.77568168
_cell_formula_units_Z   1
loop_
 _symmetry_equiv_pos_site_id
 _symmetry_equiv_pos_as_xyz
  1  'x, y, z'
loop_
 _atom_site_type_symbol
 _atom_site_label
 _atom_site_symmetry_multiplicity
 _atom_site_fract_x
 _atom_site_fract_y
 _atom_site_fract_z
 _atom_site_occupancy
  V  V0  1  0.73402323  0.24564121  0.49898913  1
  V  V1  1  0.24298457  0.25572390  0.50705175  1
  V  V2  1  0.12666023  0.01105170  0.11895485  1
  V  V3  1  0.00272424  0.37550614  0.37625685  1
  V  V4  1  0.25462972  0.13150238  0.37487080  1
  V  V5  1  0.73476382  0.12627209  0.37855764  1
  V  V6  1  0.62844323  0.25737868  0.87064895  1
  V  V7  1  -0.00057516  0.74728746  0.24952615  1
  V  V8  1  0.62798417  0.12795852  0.00024662  1
  V  V9  1  0.75245205  0.87672129  0.12407943  1
  V  V10  1  0.50435336  0.37999341  0.86986788  1
  V  V11  1  -0.00017711  0.37648793  0.87910436  1
  V  V12  1  0.74590152  0.49481985  0.75020506  1
  V  V13  1  0.23666830  -0.00001564  0.75000712  1
  V  V14  1  0.00156448  0.01462743  0.00383877  1
  V  V15  1  0.87508782  0.00145647  0.37582949  1
  V  V16  1  0.50283638  0.51806134  0.50081430  1
  V  V17  1  0.36727605  0.87732803  -0.00122939  1
  V  V18  1  0.12330498  0.74625245  0.37870270  1
  V  V19  1  0.06506768  0.20246043  0.32007595  1
  V  V20  1  0.87599331  0.86885430  0.50357047  1
  V  V21  1  0.12678056  0.24420243  0.87819883  1
  V  V22  1  0.50141857  0.12694552  0.12541549  1
  V  V23  1  0.50920520  0.37436391  0.38058549  1
  V  V24  1  0.87477233  0.63049602  0.74641064  1
  V  V25  1  0.74592692  0.49709360  0.23844539  1
  V  V26  1  0.00892721  -0.00424408  0.50605378  1
  V  V27  1  0.25098048  0.62930543  0.87595522  1
  V  V28  1  0.73807209  0.37425655  0.62571352  1
  V  V29  1  0.50042711  0.25176169  0.74627129  1
  V  V30  1  0.62121998  0.62301223  0.01494364  1
  V  V31  1  0.89148171  0.25385193  0.13430501  1
  V  V32  1  0.12761163  0.74958109  0.87818328  1
  V  V33  1  0.12693118  0.61548579  0.00587528  1
  V  V34  1  0.87115208  0.49805593  0.37514958  1
  V  V35  1  0.75633349  0.26532945  0.01258799  1
  V  V36  1  0.12874875  0.87033159  0.24363736  1
  V  V37  1  0.37504614  0.37479959  0.50853584  1
  V  V38  1  0.75022840  0.12761180  0.87525106  1
  V  V39  1  0.00120566  0.87302529  0.87809149  1
  V  V40  1  0.87228632  0.25367037  0.62478100  1
  V  V41  1  0.37360388  -0.00308474  0.37385212  1
  V  V42  1  0.24587822  0.37896065  0.12361819  1
  V  V43  1  0.62608281  0.00176829  0.12327113  1
  V  V44  1  0.11664841  0.37777729  0.24665418  1
  V  V45  1  0.74900940  0.74911182  0.00067726  1
  V  V46  1  0.62476933  0.88016161  0.74750930  1
  V  V47  1  0.37983922  0.75078527  0.62113632  1
  V  V48  1  0.00333514  0.50390516  0.50155856  1
  V  V49  1  0.36696610  0.88015014  0.49931091  1
  V  V50  1  0.87767637  0.74692678  0.12383310  1
  V  V51  1  0.37481378  0.50016194  0.37752438  1
  V  V52  1  0.37528179  0.37703876  -0.00129002  1
  V  V53  1  0.13193142  0.50090222  0.62222523  1
  V  V54  1  0.50709923  0.10474401  0.61411819  1
  V  V55  1  0.49588512  0.88476080  0.87431937  1
  V  V56  1  0.24633322  0.62285608  0.37456685  1
  V  V57  1  0.62408898  0.74948855  0.87525190  1
  V  V58  1  0.24888734  0.24150888  0.00077373  1
  V  V59  1  -0.00003565  0.62940460  0.62384263  1
  V  V60  1  0.75717649  0.87080770  0.62831624  1
  V  V61  1  0.37784071  0.25045641  0.12584239  1
  V  V62  1  0.87506018  0.00137139  0.87735095  1
  V  V63  1  0.87452449  0.12615917  0.74913510  1
  V  V64  1  0.00107385  0.25339124  0.74936356  1
  V  V65  1  0.49637015  0.74848186  0.24519275  1
  V  V66  1  0.74238495  0.74550915  0.50421616  1
  V  V67  1  0.62145283  0.51745454  0.62354497  1
  V  V68  1  0.24508845  0.74185075  0.50437535  1
  V  V69  1  0.50415213  0.24989646  0.25840720  1
  V  V70  1  0.50160443  0.50497193  0.01371311  1
  V  V71  1  0.74880606  0.00319071  0.74247457  1
  V  V72  1  0.62228662  0.87290768  0.24486577  1
  V  V73  1  0.00689548  0.12228641  0.62610747  1
  V  V74  1  0.50168193  0.74717271  0.74536004  1
  V  V75  1  0.87611337  0.49653464  0.87996835  1
  V  V76  1  0.37547894  0.62674213  0.74383232  1
  V  V77  1  0.13605929  0.37481214  0.74560402  1
  V  V78  1  0.37686056  0.50260109  0.87308456  1
  V  V79  1  0.24627844  0.49883098  0.24789275  1
  V  V80  1  0.74319825  0.62237632  0.37886962  1
  V  V81  1  0.62695773  0.37702898  0.23696536  1
  V  V82  1  0.52532555  0.88897096  0.40081144  1
  V  V83  1  0.37968368  0.11384647  0.75537501  1
  V  V84  1  0.74913369  0.62429160  0.87550231  1
  Zn  Zn85  1  0.87786745  0.87616107  0.00176797  1
  Zn  Zn86  1  -0.00140926  0.49372234  0.01126043  1
  Zn  Zn87  1  0.24782612  0.87130990  0.11642261  1
  Zn  Zn88  1  0.00578608  0.61617995  0.12829699  1
  Zn  Zn89  1  0.12060253  0.87357849  0.74530232  1
  Zn  Zn90  1  0.25095375  0.00249370  0.24620454  1
  Zn  Zn91  1  -0.00221490  0.87055906  0.37657154  1
  Zn  Zn92  1  0.62248486  0.74255146  0.37639039  1
  Zn  Zn93  1  0.37093408  0.73884660  0.11217379  1
  Zn  Zn94  1  0.25605118  0.12101918  0.87975244  1
  Zn  Zn95  1  0.12749096  0.12386323  0.50321089  1
  Zn  Zn96  1  0.49708170  0.00387202  -0.00484592  1
  Zn  Zn97  1  0.37413734  0.24934480  0.62765531  1
  Zn  Zn98  1  0.87217236  0.37332999  0.50065274  1
  Zn  Zn99  1  0.37977224  0.62115836  0.24225339  1
  Zn  Zn100  1  -0.00222697  0.75149942  0.74748748  1
  Zn  Zn101  1  0.75349996  0.00281000  0.24901545  1
  Zn  Zn102  1  0.87424657  0.62208262  0.25004079  1
  Zn  Zn103  1  0.25481689  0.49709936  0.74414390  1
  Zn  Zn104  1  0.87956270  0.12716797  0.24860551  1
  Zn  Zn105  1  0.37711068  0.12296484  0.24945147  1
  Zn  Zn106  1  0.24121481  0.88420839  0.62235635  1
  Zn  Zn107  1  0.19280181  0.18746797  0.18452110  1
  Zn  Zn108  1  0.19089839  0.18641931  0.68966687  1
  Zn  Zn109  1  0.19466585  0.68827164  0.18399631  1
  Zn  Zn110  1  0.18500013  0.68791413  0.68962203  1
  Zn  Zn111  1  0.68861539  0.18988836  0.19354065  1
  Zn  Zn112  1  0.68127735  0.18629520  0.68485838  1
  Zn  Zn113  1  0.68931666  0.68701377  0.19185850  1
  Zn  Zn114  1  0.69131135  0.69004004  0.68792228  1
  Zn  Zn115  1  0.31586337  0.31387296  0.31614639  1
  Zn  Zn116  1  0.31618970  0.30958463  0.81286742  1
  Zn  Zn117  1  0.30977706  0.81257075  0.30997419  1
  Zn  Zn118  1  0.31267876  0.81567724  0.81413988  1
  Zn  Zn119  1  0.81177581  0.30963944  0.31011810  1
  Zn  Zn120  1  0.81154476  0.31533954  0.81311282  1
  Zn  Zn121  1  0.81064604  0.81159435  0.31373770  1
  Zn  Zn122  1  0.81537632  0.81311699  0.81533431  1
  Zn  Zn123  1  0.18433077  0.43466759  0.43714244  1
  Zn  Zn124  1  0.18938686  0.43759615  0.93279297  1
  Zn  Zn125  1  0.18802354  0.93475990  0.43290000  1
  Zn  Zn126  1  0.18721123  0.94216620  0.93169237  1
  Zn  Zn127  1  0.68588867  0.43720821  0.44139293  1
  Zn  Zn128  1  0.68478638  0.44095125  0.94050677  1
  Zn  Zn129  1  0.69278057  0.93682716  0.43826824  1
  Zn  Zn130  1  0.68660174  0.93926335  0.93578955  1
  Zn  Zn131  1  0.31733714  0.05624476  0.06152256  1
  Zn  Zn132  1  0.31582362  0.06706255  0.56687374  1
  Zn  Zn133  1  0.31260385  0.56522756  0.06258906  1
  Zn  Zn134  1  0.31419464  0.56518934  0.56172550  1
  Zn  Zn135  1  0.81603538  0.06938591  0.06520807  1
  Zn  Zn136  1  0.81555544  0.06217674  0.56077321  1
  Zn  Zn137  1  0.81440271  0.56291431  0.06188111  1
  Zn  Zn138  1  0.81409031  0.56146329  0.56216872  1
  Zn  Zn139  1  0.43470891  0.43567603  0.19081486  1
  Zn  Zn140  1  0.44338591  0.44001876  0.68624769  1
  Zn  Zn141  1  0.43827961  0.93644602  0.18601309  1
  Zn  Zn142  1  0.43248327  0.93486459  0.68511787  1
  Zn  Zn143  1  0.93024833  0.43272492  0.18393024  1
  Zn  Zn144  1  0.93713921  0.43944142  0.69024126  1
  Zn  Zn145  1  0.94044931  0.93697247  0.18740327  1
  Zn  Zn146  1  0.93835396  0.93762492  0.68935524  1
  Zn  Zn147  1  0.06491959  0.04089270  0.31557484  1
  Zn  Zn148  1  0.06126074  0.06457270  0.81596020  1
  Zn  Zn149  1  0.06298433  0.56147037  0.31121824  1
  Zn  Zn150  1  0.06357652  0.56131272  0.81034692  1
  Zn  Zn151  1  0.56208285  0.05851282  0.31088042  1
  Zn  Zn152  1  0.56586466  0.06650837  0.80821955  1
  Zn  Zn153  1  0.56381346  0.56083035  0.31211268  1
  Zn  Zn154  1  0.56394802  0.56429594  0.81196132  1
  Zn  Zn155  1  0.43722212  0.18788640  0.44129379  1
  Zn  Zn156  1  0.43958432  0.19045558  0.93582969  1
  Zn  Zn157  1  0.43485700  0.69708708  0.42706594  1
  Zn  Zn158  1  0.43969619  0.69129279  0.93574385  1
  Zn  Zn159  1  0.92728067  0.18155375  0.44630805  1
  Zn  Zn160  1  0.93464718  0.19363341  0.94044791  1
  Zn  Zn161  1  0.93253797  0.68461203  0.43802577  1
  Zn  Zn162  1  0.94037635  0.68419038  0.93830538  1
  Zn  Zn163  1  0.06411527  0.31262426  0.06128695  1
  Zn  Zn164  1  0.06243315  0.31564611  0.56255370  1
  Zn  Zn165  1  0.06520911  0.80975208  0.05862486  1
  Zn  Zn166  1  0.06453021  0.81089357  0.56468081  1
  Zn  Zn167  1  0.56294333  0.31357638  0.05936247  1
  Zn  Zn168  1  0.56063372  0.31822536  0.56520404  1
  Zn  Zn169  1  0.55786111  0.81171627  0.06077204  1
  Zn  Zn170  1  0.56708435  0.83277690  0.56048703  1
  O  O171  1  0.12724503  0.10989179  0.12931818  1
  O  O172  1  0.11026555  0.13160202  0.62592462  1
  O  O173  1  0.12780197  0.62807512  0.10895659  1
  O  O174  1  0.11318070  0.61361304  0.63232040  1
  O  O175  1  0.62227499  0.12365769  0.11834602  1
  O  O176  1  0.60625111  0.12192548  0.63159275  1
  O  O177  1  0.62723899  0.62982808  0.11397645  1
  O  O178  1  0.62938395  0.61615669  0.62375760  1
  O  O179  1  0.38425433  0.38197685  0.38548478  1
  O  O180  1  0.38249271  0.38110102  0.87966944  1
  O  O181  1  0.36825933  0.88723320  0.38089829  1
  O  O182  1  0.38669208  0.87208798  0.88205997  1
  O  O183  1  0.88558641  0.37865641  0.37512708  1
  O  O184  1  0.88618554  0.38344421  0.86706721  1
  O  O185  1  0.87205202  0.88510027  0.38277331  1
  O  O186  1  0.88143078  0.88373908  0.87920906  1
  O  O187  1  0.25347827  0.01314598  0.37374791  1
  O  O188  1  0.24732679  0.00737742  0.85921624  1
  O  O189  1  0.25235476  0.50474773  0.37093842  1
  O  O190  1  0.25955245  0.50938429  0.86963591  1
  O  O191  1  0.75611651  0.00908482  0.37715101  1
  O  O192  1  0.75578462  0.00738293  0.86826504  1
  O  O193  1  0.75569896  0.50360681  0.37464894  1
  O  O194  1  0.75360914  0.50307805  0.86687410  1
  O  O195  1  0.25414838  0.48630660  0.13250106  1
  O  O196  1  0.23655460  0.50570414  0.62337883  1
  O  O197  1  0.23805803  0.99479253  0.12337174  1
  O  O198  1  0.25656563  1.00319359  0.64367670  1
  O  O199  1  0.75676067  0.50216156  0.13932161  1
  O  O200  1  0.74087633  0.49530612  0.62872106  1
  O  O201  1  0.74633954  0.99273709  0.12415169  1
  O  O202  1  0.75675262  0.99465067  0.63699603  1
  O  O203  1  0.01014557  0.37909674  0.25809199  1
  O  O204  1  0.00804162  0.36945118  0.75686150  1
  O  O205  1  0.00914378  0.86331003  0.25073470  1
  O  O206  1  -0.00167480  0.87470129  0.76408469  1
  O  O207  1  0.50868039  0.37155184  0.25808414  1
  O  O208  1  0.49526269  0.36862921  0.76192688  1
  O  O209  1  0.51010606  0.86967032  0.25333283  1
  O  O210  1  0.50714271  0.86941270  0.75319979  1
  O  O211  1  0.50151076  0.13469981  0.24655738  1
  O  O212  1  0.49257467  0.13120535  0.74677547  1
  O  O213  1  0.50063322  0.64397573  0.26319934  1
  O  O214  1  0.49344662  0.64033873  0.75533005  1
  O  O215  1  1.00896819  0.13551289  0.26856155  1
  O  O216  1  0.99399357  0.13202444  0.74536402  1
  O  O217  1  0.99852341  0.63572748  0.24949089  1
  O  O218  1  0.99074202  0.62330502  0.74269717  1
  O  O219  1  0.37056417  0.25852988  0.00419556  1
  O  O220  1  0.36704533  0.25852741  0.50448857  1
  O  O221  1  0.38720811  0.76946225  -0.00120487  1
  O  O222  1  0.36244914  0.75065130  0.50566736  1
  O  O223  1  0.86174244  0.24699866  0.01046869  1
  O  O224  1  0.86541256  0.25091967  0.51460662  1
  O  O225  1  0.86915705  0.75030823  0.00718684  1
  O  O226  1  0.86717497  0.76414131  0.49325879  1
  O  O227  1  0.13907777  0.25091069  0.50182399  1
  O  O228  1  0.13704951  0.25636298  0.99083789  1
  O  O229  1  0.12944365  0.75108296  0.48606935  1
  O  O230  1  0.12154581  0.73712082  0.98569584  1
  O  O231  1  0.63492584  0.25260373  0.50685261  1
  O  O232  1  0.63234224  0.24658298  0.99070031  1
  O  O233  1  0.63938390  0.75740206  0.49883701  1
  O  O234  1  0.62837561  0.74404669  0.99482671  1
  O  O235  1  0.49772753  0.24551941  0.13135772  1
  O  O236  1  0.50177277  0.25338545  0.64015026  1
  O  O237  1  0.49653221  0.75688388  0.14191798  1
  O  O238  1  0.48861283  0.76095202  0.63093051  1
  O  O239  1  0.99104607  0.25003159  0.12108585  1
  O  O240  1  0.99045419  0.24660964  0.62863565  1
  O  O241  1  0.99364904  0.74653897  0.13093547  1
  O  O242  1  1.00068624  0.73341646  0.62444909  1
  O  O243  1  0.00022344  0.25395981  0.38390267  1
  O  O244  1  0.00608302  0.25625126  0.87025102  1
  O  O245  1  0.00570539  0.74797439  0.36906737  1
  O  O246  1  0.00500286  0.75814682  0.87447304  1
  O  O247  1  0.49342388  0.25872879  0.36747407  1
  O  O248  1  0.50855874  0.25866880  0.86771721  1
  O  O249  1  0.50728899  0.77057464  0.37051076  1
  O  O250  1  0.50757081  0.76060937  0.86428445  1
  O  O251  1  0.24743839  0.13536264  0.49527308  1
  O  O252  1  0.25852119  0.13778742  1.00068770  1
  O  O253  1  0.25120546  0.63433845  0.49147987  1
  O  O254  1  0.23908854  0.61916200  0.98892218  1
  O  O255  1  0.75272567  0.13016491  0.49016905  1
  O  O256  1  0.74040290  0.13270943  0.99528935  1
  O  O257  1  0.75857183  0.63501383  0.49380115  1
  O  O258  1  0.74185636  0.62923854  0.99439558  1
  O  O259  1  0.25465522  0.37098905  0.00717886  1
  O  O260  1  0.25740596  0.36242460  0.49246125  1
  O  O261  1  0.26392196  0.87844676  -0.00782329  1
  O  O262  1  0.25276988  0.86157830  0.49831938  1
  O  O263  1  0.74738686  0.36323895  -0.00311068  1
  O  O264  1  0.75125356  0.36591220  0.50788947  1
  O  O265  1  0.75030389  0.87050266  0.01012134  1
  O  O266  1  0.75770222  0.87081621  0.51103179  1
  O  O267  1  0.13673964  0.49077061  0.25404712  1
  O  O268  1  0.12759743  0.49096309  0.74225137  1
  O  O269  1  0.12372116  0.98900475  0.23526197  1
  O  O270  1  0.13373412  1.00287042  0.74990739  1
  O  O271  1  0.63011207  0.48715897  0.25291798  1
  O  O272  1  0.63242483  0.50614305  0.73710159  1
  O  O273  1  0.62900773  0.99161977  0.24025870  1
  O  O274  1  0.63765911  0.99224773  0.75661444  1
  O  O275  1  0.37166084  0.00064639  0.25812632  1
  O  O276  1  0.37492979  0.01167838  0.75226549  1
  O  O277  1  0.36296818  0.49553829  0.25939452  1
  O  O278  1  0.37793688  0.51045669  0.75273154  1
  O  O279  1  0.87626305  0.00277296  0.25886784  1
  O  O280  1  0.86876413  0.00680292  0.75786238  1
  O  O281  1  0.86484676  0.49637414  0.26282209  1
  O  O282  1  0.86602717  0.50769236  0.75827456  1
  O  O283  1  0.11091135  0.37488805  0.36785932  1
  O  O284  1  0.12029987  0.36781687  0.86494535  1
  O  O285  1  0.12130447  0.86472771  0.36546022  1
  O  O286  1  0.11865007  0.86691169  0.87305975  1
  O  O287  1  0.61180083  0.37834795  0.37293488  1
  O  O288  1  0.61707419  0.36901984  0.87753698  1
  O  O289  1  0.63260401  0.87248059  0.35388287  1
  O  O290  1  0.62334588  0.86852199  0.86474542  1
  O  O291  1  0.38394806  0.13104285  0.12565926  1
  O  O292  1  0.38857281  0.12746989  0.63776087  1
  O  O293  1  0.37630000  0.62547969  0.12912315  1
  O  O294  1  0.37437421  0.63285059  0.63628797  1
  O  O295  1  0.86783173  0.14277922  0.13211575  1
  O  O296  1  0.88171493  0.13336671  0.63051049  1
  O  O297  1  0.87339617  0.63853544  0.12841492  1
  O  O298  1  0.88471096  0.61410039  0.63593483  1
  O  O299  1  0.25594876  0.25905994  0.11881785  1
  O  O300  1  0.25332907  0.24600767  0.61086368  1
  O  O301  1  0.26014114  0.76067364  0.13462184  1
  O  O302  1  0.25806491  0.74548330  0.61717857  1
  O  O303  1  0.74311238  0.25125187  0.11244214  1
  O  O304  1  0.75275210  0.25633190  0.62366235  1
  O  O305  1  0.75692465  0.75673035  0.12125210  1
  O  O306  1  0.75221689  0.75840144  0.61882985  1
  O  O307  1  0.25872191  0.23873941  0.38633948  1
  O  O308  1  0.24441330  0.25018019  0.88410852  1
  O  O309  1  0.24270694  0.74173078  0.37908386  1
  O  O310  1  0.24435197  0.73792582  0.86938909  1
  O  O311  1  0.75443059  0.23516611  0.38484645  1
  O  O312  1  0.74530135  0.24706627  0.88152268  1
  O  O313  1  0.74867365  0.73989645  0.38189934  1
  O  O314  1  0.74465102  0.74647329  0.88168987  1
  O  O315  1  0.00044016  0.11323014  -0.00689138  1
  O  O316  1  0.00137626  0.11596820  0.50884996  1
  O  O317  1  0.01493076  0.61986365  -0.00150902  1
  O  O318  1  -0.00769493  0.61208112  0.50678273  1
  O  O319  1  0.51279010  0.12848120  0.00343086  1
  O  O320  1  0.49563105  0.12530697  0.51572807  1
  O  O321  1  0.50970867  0.61685408  -0.00790086  1
  O  O322  1  0.49245016  0.61665837  0.49001153  1
  O  O323  1  0.49352277  0.38214672  0.49528065  1
  O  O324  1  0.49650905  0.38209473  0.98926675  1
  O  O325  1  0.47039595  0.85403177  0.49538843  1
  O  O326  1  0.49981972  0.88009555  0.98808895  1
  O  O327  1  0.99629679  0.38428396  0.49370629  1
  O  O328  1  1.00725656  0.37688831  0.98355900  1
  O  O329  1  0.99240010  0.87882381  0.50157261  1
  O  O330  1  0.99954239  0.88190821  0.98951822  1
  O  O331  1  0.49557046  0.49443696  0.38280815  1
  O  O332  1  0.49581886  0.49432179  0.87674027  1
  O  O333  1  0.49093626  0.98748738  0.36995781  1
  O  O334  1  0.50980185  0.98764333  0.87165874  1
  O  O335  1  0.99387661  0.49456896  0.38111719  1
  O  O336  1  0.99172368  0.49211966  0.87217812  1
  O  O337  1  0.99133377  0.99260867  0.38642485  1
  O  O338  1  0.99784529  0.99519961  0.88551789  1
  O  O339  1  0.00854781  -0.00333279  0.11147496  1
  O  O340  1  -0.00731417  0.00991402  0.61803468  1
  O  O341  1  -0.01007505  0.50407691  0.12407481  1
  O  O342  1  0.00599315  0.50449148  0.61796547  1
  O  O343  1  0.50826569  0.01056912  0.12374382  1
  O  O344  1  0.49877979  0.00441620  0.62416726  1
  O  O345  1  0.49500238  0.49372447  0.11238904  1
  O  O346  1  0.51394015  0.50181462  0.61870857  1
  O  O347  1  0.24179892  0.37791455  0.24567056  1
  O  O348  1  0.24044552  0.37551260  0.75301889  1
  O  O349  1  0.23586036  0.87983823  0.25270182  1
  O  O350  1  0.24987601  0.89129732  0.75256686  1
  O  O351  1  0.73319920  0.37999043  0.25936008  1
  O  O352  1  0.75231591  0.38810540  0.74344331  1
  O  O353  1  0.74513369  0.87451788  0.23664481  1
  O  O354  1  0.74727471  0.88119486  0.74666106  1
  O  O355  1  0.25498952  0.12601746  0.25952427  1
  O  O356  1  0.26292874  0.11850094  0.75054742  1
  O  O357  1  0.24918309  0.61285888  0.25619548  1
  O  O358  1  0.26000025  0.62284205  0.75637116  1
  O  O359  1  0.74958693  0.12382602  0.26663947  1
  O  O360  1  0.75330601  0.11953433  0.75292836  1
  O  O361  1  0.75076233  0.61495057  0.25915653  1
  O  O362  1  0.75597012  0.61624423  0.75396220  1
  O  O363  1  0.37036711  0.11414052  0.37631073  1
  O  O364  1  0.37686088  0.13117594  0.86012841  1
  O  O365  1  0.36215767  0.62013213  0.36921357  1
  O  O366  1  0.36990225  0.62463664  0.86572552  1
  O  O367  1  0.86965655  0.11145682  0.37525201  1
  O  O368  1  0.86921081  0.12329522  0.86944535  1
  O  O369  1  0.86557514  0.61451581  0.37203122  1
  O  O370  1  0.86876872  0.61819908  0.86823955  1
  O  O371  1  0.13361764  0.36929048  0.13516412  1
  O  O372  1  0.11891414  0.38501068  0.63526039  1
  O  O373  1  0.12507143  0.87962615  0.12926949  1
  O  O374  1  0.12997125  0.86753465  0.63243997  1
  O  O375  1  0.62070893  0.37539406  0.13827328  1
  O  O376  1  0.63538735  0.38481366  0.62609791  1
  O  O377  1  0.63192216  0.87893077  0.12819170  1
  O  O378  1  0.63953752  0.87324227  0.64118946  1
  O  O379  1  0.12432158  0.25572936  0.25359064  1
  O  O380  1  0.12168771  0.25734779  0.75417348  1
  O  O381  1  0.11887761  0.75240191  0.25721952  1
  O  O382  1  0.11905545  0.74760604  0.76450413  1
  O  O383  1  0.61491813  0.26300589  0.24997726  1
  O  O384  1  0.61896369  0.24620469  0.76360504  1
  O  O385  1  0.61599039  0.75621361  0.24982631  1
  O  O386  1  0.61877732  0.75621266  0.75321802  1
  O  O387  1  0.38723286  0.25216346  0.24380309  1
  O  O388  1  0.38367573  0.24205236  0.74776861  1
  O  O389  1  0.39083447  0.75281963  0.25684753  1
  O  O390  1  0.38113824  0.74731788  0.74196132  1
  O  O391  1  0.87693863  0.24610340  0.24146211  1
  O  O392  1  0.87753042  0.24670883  0.74108372  1
  O  O393  1  0.88336224  0.75030340  0.24396121  1
  O  O394  1  0.87513046  0.73500581  0.75500841  1
  O  O395  1  0.38147795  0.49526658  0.49700340  1
  O  O396  1  0.38196558  0.49582884  0.99140999  1
  O  O397  1  0.36398297  0.98971393  0.49296188  1
  O  O398  1  0.38138143  0.98715171  0.99621641  1
  O  O399  1  0.87986974  0.49495303  0.48944091  1
  O  O400  1  0.87484418  0.50497685  0.98368599  1
  O  O401  1  0.88238175  0.98959819  0.49520792  1
  O  O402  1  0.88621413  1.00129588  0.99752085  1
  O  O403  1  0.11603272  -0.00209266  0.00944278  1
  O  O404  1  0.11253860  0.00122204  0.49374291  1
  O  O405  1  0.12320023  0.51219413  -0.00769523  1
  O  O406  1  0.11477220  0.49451054  0.50780017  1
  O  O407  1  0.62485035  0.01144741  0.00444589  1
  O  O408  1  0.58987653  -0.07445437  0.48154198  1
  O  O409  1  0.61503168  0.51138268  -0.00339262  1
  O  O410  1  0.61732246  0.49926453  0.51324700  1
  O  O411  1  0.36797998  0.36839682  0.12009432  1
  O  O412  1  0.37940195  0.37651747  0.61256581  1
  O  O413  1  0.37566830  0.87768827  0.10818954  1
  O  O414  1  0.36408129  0.86682198  0.61814018  1
  O  O415  1  0.86898846  0.35402231  0.12931596  1
  O  O416  1  0.86419679  0.36911527  0.62673514  1
  O  O417  1  0.86936501  0.86576437  0.12392528  1
  O  O418  1  0.86577748  0.87719466  0.62056466  1
  O  O419  1  0.12744221  0.13272517  0.37227902  1
  O  O420  1  0.12864880  0.14127459  0.86941282  1
  O  O421  1  0.13654482  0.63120681  0.37013259  1
  O  O422  1  0.13328804  0.62828273  0.87877877  1
  O  O423  1  0.63587830  0.11663016  0.37871588  1
  O  O424  1  0.63011029  0.13417067  0.88203130  1
  O  O425  1  0.63853334  0.62281671  0.37599239  1
  O  O426  1  0.63263353  0.63315117  0.87718106  1
