# generated using pymatgen
data_V85Zn86O256
_symmetry_space_group_name_H-M   'P 1'
_cell_length_a   16.92889756
_cell_length_b   16.92790226
_cell_length_c   16.93213025
_cell_angle_alpha   89.99089643
_cell_angle_beta   89.95774135
_cell_angle_gamma   90.05986154
_symmetry_Int_Tables_number   1
_chemical_formula_structural   V85Zn86O256
_chemical_formula_sum   'V85 Zn86 O256'
_cell_volume   4852.24878440
_cell_formula_units_Z   1
loop_
 _symmetry_equiv_pos_site_id
 _symmetry_equiv_pos_as_xyz
  1  'x, y, z'
loop_
 _atom_site_type_symbol
 _atom_site_label
 _atom_site_symmetry_multiplicity
 _atom_site_fract_x
 _atom_site_fract_y
 _atom_site_fract_z
 _atom_site_occupancy
  V  V0  1  0.87325978  0.49785221  0.37241731  1
  V  V1  1  0.25370788  0.00256117  0.74503021  1
  V  V2  1  0.37307706  0.24182452  0.13483535  1
  V  V3  1  0.49929508  0.49832693  0.00066381  1
  V  V4  1  0.24701016  0.50756744  0.25468918  1
  V  V5  1  0.89635400  0.12393790  0.24824748  1
  V  V6  1  0.37749613  0.37787877  0.50115957  1
  V  V7  1  0.12278649  0.37754842  0.74522633  1
  V  V8  1  0.24852419  0.24977514  0.00181032  1
  V  V9  1  0.12350965  0.24564895  0.36908534  1
  V  V10  1  0.12872056  -0.00374478  0.62366006  1
  V  V11  1  0.37003688  0.50857600  0.37736518  1
  V  V12  1  0.24605296  0.50190211  0.74907357  1
  V  V13  1  0.25130012  0.74762573  0.00380359  1
  V  V14  1  0.25904619  0.12258016  0.36106404  1
  V  V15  1  0.76457855  0.74808064  0.00817334  1
  V  V16  1  -0.00088915  0.75059673  0.74814566  1
  V  V17  1  0.62274244  0.48990879  0.12885993  1
  V  V18  1  -0.00187940  0.49920742  0.00089315  1
  V  V19  1  0.73969322  0.74914202  0.50069644  1
  V  V20  1  0.13059753  0.12258479  0.49943377  1
  V  V21  1  0.37269723  0.37434852  0.00138583  1
  V  V22  1  0.12643839  0.74446916  0.87336245  1
  V  V23  1  0.74536137  0.86812893  0.13528661  1
  V  V24  1  0.74593734  0.36815433  0.62001914  1
  V  V25  1  0.12390157  0.24925788  0.87407003  1
  V  V26  1  0.62792520  -0.00278394  0.63791218  1
  V  V27  1  0.13461013  0.87764845  0.25770609  1
  V  V28  1  0.74933568  0.49746463  0.74914279  1
  V  V29  1  0.86926905  0.36663642  0.49608233  1
  V  V30  1  0.62584660  0.63182898  0.00072129  1
  V  V31  1  0.87354650  -0.00992789  0.87621569  1
  V  V32  1  0.24445172  0.37941921  0.62339830  1
  V  V33  1  0.51078830  0.87834550  0.37607601  1
  V  V34  1  0.37301670  -0.00448834  0.36461233  1
  V  V35  1  0.87223100  0.62893705  0.24576662  1
  V  V36  1  -0.00324710  0.75961597  0.25880454  1
  V  V37  1  0.86471637  0.36970298  0.00111048  1
  V  V38  1  0.73146325  0.00186795  0.24509417  1
  V  V39  1  0.38155528  0.00086733  0.88256602  1
  V  V40  1  0.49854442  0.36438794  0.87162326  1
  V  V41  1  0.00114430  -0.00821691  0.49261364  1
  V  V42  1  0.87527960  0.74884172  0.62195691  1
  V  V43  1  0.86631550  0.11788333  0.74972461  1
  V  V44  1  0.30647135  0.66893026  0.81796105  1
  V  V45  1  0.51310848  0.00309557  0.00262411  1
  V  V46  1  0.25611009  0.74994744  0.51218369  1
  V  V47  1  0.50186473  0.63655641  0.64650177  1
  V  V48  1  0.24875804  0.37543913  0.12662838  1
  V  V49  1  0.51064098  0.75734900  0.24755508  1
  V  V50  1  0.12553633  0.00101672  0.12950417  1
  V  V51  1  0.00017359  0.24839874  0.74582262  1
  V  V52  1  0.50655822  0.12098192  0.13525880  1
  V  V53  1  0.74486284  0.63144531  0.87317166  1
  V  V54  1  0.75231880  0.12826585  0.37362105  1
  V  V55  1  0.87580123  0.87258685  0.49131052  1
  V  V56  1  0.50482529  0.51691147  0.50185844  1
  V  V57  1  -0.00200239  0.37528239  0.87401625  1
  V  V58  1  0.37620235  0.75324938  0.12979085  1
  V  V59  1  0.12667045  0.87613378  0.74556074  1
  V  V60  1  0.11546345  0.12371261  0.00444298  1
  V  V61  1  0.50541280  0.37719835  0.37371179  1
  V  V62  1  0.24942725  0.12514931  0.87577046  1
  V  V63  1  0.50596224  0.25423857  0.25279735  1
  V  V64  1  0.49859121  0.62453437  0.13139405  1
  V  V65  1  0.12157178  0.37269941  0.24960195  1
  V  V66  1  0.74560095  0.48984553  0.25012627  1
  V  V67  1  0.61958759  0.36821388  0.74882858  1
  V  V68  1  0.75075679  0.12927196  0.88943715  1
  V  V69  1  0.00384282  0.49943794  0.50264281  1
  V  V70  1  0.74185220  0.62486764  0.37810948  1
  V  V71  1  0.13376241  0.73841124  0.37602368  1
  V  V72  1  0.88124291  0.24238788  0.12416988  1
  V  V73  1  0.74907491  0.87832975  0.63686637  1
  V  V74  1  -0.00205633  0.36845342  0.36873241  1
  V  V75  1  0.50247786  0.12760127  0.62496875  1
  V  V76  1  0.87376796  0.62779387  0.74858741  1
  V  V77  1  0.87148440  0.24575206  0.62025389  1
  V  V78  1  0.37959232  0.25262745  0.62962449  1
  V  V79  1  0.37358621  0.49957343  0.87001984  1
  V  V80  1  0.12274888  0.50039370  0.12555599  1
  V  V81  1  0.63178771  0.12923059  0.50017138  1
  V  V82  1  0.00043756  0.12279958  0.62313716  1
  V  V83  1  0.38719912  0.12937808  0.75328802  1
  V  V84  1  -0.00232491  0.63535084  0.12404448  1
  Zn  Zn85  1  0.87570829  -0.00519290  0.36823314  1
  Zn  Zn86  1  0.62445680  0.75190222  0.37560013  1
  Zn  Zn87  1  0.38186245  0.87745926  0.00406054  1
  Zn  Zn88  1  0.63491980  0.13541545  0.01355331  1
  Zn  Zn89  1  0.63111236  0.25454526  0.37817491  1
  Zn  Zn90  1  0.00104224  0.61770672  0.62286877  1
  Zn  Zn91  1  0.74287968  0.36398053  0.12354669  1
  Zn  Zn92  1  0.37744509  0.75632344  0.64211506  1
  Zn  Zn93  1  0.12843589  0.62290309  -0.00477614  1
  Zn  Zn94  1  0.00059378  -0.00306743  0.00264621  1
  Zn  Zn95  1  0.13838147  0.61358044  0.50122484  1
  Zn  Zn96  1  0.36981384  0.62840173  0.25374879  1
  Zn  Zn97  1  0.62567613  0.50416545  0.62105232  1
  Zn  Zn98  1  0.25300930  0.88082470  0.12643488  1
  Zn  Zn99  1  0.88352256  0.87016167  0.01454777  1
  Zn  Zn100  1  0.53048668  0.77936579  0.78335228  1
  Zn  Zn101  1  0.63328887  0.25007159  0.87962485  1
  Zn  Zn102  1  0.36981954  0.88118853  0.51083910  1
  Zn  Zn103  1  0.00194030  0.87548836  0.87779463  1
  Zn  Zn104  1  0.25286156  0.24944425  0.49851135  1
  Zn  Zn105  1  0.49811314  -0.00087509  0.50143616  1
  Zn  Zn106  1  0.87347763  0.49908977  0.87521409  1
  Zn  Zn107  1  0.18293979  0.18573961  0.18662088  1
  Zn  Zn108  1  0.19195506  0.18847457  0.68516503  1
  Zn  Zn109  1  0.18347748  0.68893836  0.18546695  1
  Zn  Zn110  1  0.17670959  0.68546343  0.67619993  1
  Zn  Zn111  1  0.69179197  0.19174374  0.19288121  1
  Zn  Zn112  1  0.68569036  0.18692976  0.69238817  1
  Zn  Zn113  1  0.68732575  0.68406465  0.18533706  1
  Zn  Zn114  1  0.68285447  0.68600064  0.68198935  1
  Zn  Zn115  1  0.31312487  0.31567653  0.31378574  1
  Zn  Zn116  1  0.31139503  0.31339849  0.81133039  1
  Zn  Zn117  1  0.31478676  0.81217098  0.31635239  1
  Zn  Zn118  1  0.31748969  0.83300552  0.81212388  1
  Zn  Zn119  1  0.81513562  0.30490242  0.30543637  1
  Zn  Zn120  1  0.81438168  0.30956848  0.80911376  1
  Zn  Zn121  1  0.80837460  0.81304342  0.31015402  1
  Zn  Zn122  1  0.70241397  0.81683978  0.81977584  1
  Zn  Zn123  1  0.18737363  0.43443785  0.43553281  1
  Zn  Zn124  1  0.18605594  0.43837535  0.93409700  1
  Zn  Zn125  1  0.19097970  0.93388748  0.43350323  1
  Zn  Zn126  1  0.18948855  0.93552830  0.93810744  1
  Zn  Zn127  1  0.68619622  0.43894602  0.43903861  1
  Zn  Zn128  1  0.68432771  0.44156635  0.93561051  1
  Zn  Zn129  1  0.68937582  0.94463411  0.44256090  1
  Zn  Zn130  1  0.70327650  0.94841406  0.95752221  1
  Zn  Zn131  1  0.30916683  0.06342455  0.06590768  1
  Zn  Zn132  1  0.31587917  0.06108701  0.55952834  1
  Zn  Zn133  1  0.31145489  0.56471645  0.06227476  1
  Zn  Zn134  1  0.31818208  0.57220176  0.56776770  1
  Zn  Zn135  1  0.81909154  0.05716163  0.06847890  1
  Zn  Zn136  1  0.81102452  0.05857263  0.55974942  1
  Zn  Zn137  1  0.81208462  0.55817704  0.06516848  1
  Zn  Zn138  1  0.81336290  0.55902599  0.55977520  1
  Zn  Zn139  1  0.43400459  0.43522046  0.19096433  1
  Zn  Zn140  1  0.43707623  0.44304603  0.68701161  1
  Zn  Zn141  1  0.44068175  0.93680527  0.18922165  1
  Zn  Zn142  1  0.43987618  0.93469043  0.68642511  1
  Zn  Zn143  1  0.93385447  0.43585771  0.18476768  1
  Zn  Zn144  1  0.93222465  0.43466883  0.68461808  1
  Zn  Zn145  1  0.93892580  0.93832244  0.18446021  1
  Zn  Zn146  1  0.93700480  0.93571317  0.68645075  1
  Zn  Zn147  1  0.06744749  0.05660913  0.31536642  1
  Zn  Zn148  1  0.05857858  0.06182841  0.81339831  1
  Zn  Zn149  1  0.05801350  0.56272485  0.31344055  1
  Zn  Zn150  1  0.06217569  0.56242002  0.81006663  1
  Zn  Zn151  1  0.55835969  0.06770192  0.31502786  1
  Zn  Zn152  1  0.56940286  -0.04522762  0.82257635  1
  Zn  Zn153  1  0.56226564  0.56141670  0.31266827  1
  Zn  Zn154  1  0.56545702  0.55774429  0.81470938  1
  Zn  Zn155  1  0.43770491  0.18811440  0.44006684  1
  Zn  Zn156  1  0.44042439  0.18509774  0.94525813  1
  Zn  Zn157  1  0.43562312  0.69319068  0.43474216  1
  Zn  Zn158  1  0.44058508  0.68781512  0.94577790  1
  Zn  Zn159  1  0.93937322  0.18333751  0.43449285  1
  Zn  Zn160  1  0.93343775  0.18825531  0.93569072  1
  Zn  Zn161  1  0.93469740  0.68688443  0.43142836  1
  Zn  Zn162  1  0.93928100  0.68551319  0.93192460  1
  Zn  Zn163  1  0.05744416  0.31063190  0.06296178  1
  Zn  Zn164  1  0.06188722  0.31051641  0.55552086  1
  Zn  Zn165  1  0.06612641  0.81599037  0.06422422  1
  Zn  Zn166  1  0.06459083  0.80944296  0.55973263  1
  Zn  Zn167  1  0.56037498  0.30753893  0.05911895  1
  Zn  Zn168  1  0.56070077  0.31221095  0.56002245  1
  Zn  Zn169  1  0.57139445  0.82015699  -0.03906479  1
  Zn  Zn170  1  0.55775570  0.81701595  0.56657608  1
  O  O171  1  0.12784618  0.11714336  0.11634354  1
  O  O172  1  0.12204660  0.12107238  0.61585253  1
  O  O173  1  0.11454333  0.61684486  0.12282470  1
  O  O174  1  0.11239712  0.62508253  0.61153086  1
  O  O175  1  0.60950476  0.13296081  0.13199183  1
  O  O176  1  0.62034915  0.12150975  0.62228549  1
  O  O177  1  0.61756212  0.61431447  0.12027966  1
  O  O178  1  0.60771216  0.62051969  0.62460551  1
  O  O179  1  0.38122047  0.38507982  0.38498786  1
  O  O180  1  0.37892635  0.38146016  0.87921676  1
  O  O181  1  0.37973764  0.88701899  0.37624931  1
  O  O182  1  0.37435640  0.89673568  0.88532937  1
  O  O183  1  0.88008779  0.37317751  0.37817291  1
  O  O184  1  0.88108733  0.37471107  0.88146550  1
  O  O185  1  0.87112252  0.87475544  0.38722112  1
  O  O186  1  0.87419869  0.88982441  0.87335373  1
  O  O187  1  0.25994887  0.01160503  0.37672832  1
  O  O188  1  0.25764474  0.00960140  0.87087682  1
  O  O189  1  0.25745898  0.49453554  0.36728354  1
  O  O190  1  0.25672215  0.49693903  0.86197819  1
  O  O191  1  0.75289706  0.00682625  0.36309905  1
  O  O192  1  0.76699181  0.01239555  0.87897968  1
  O  O193  1  0.75311342  0.50509664  0.36987946  1
  O  O194  1  0.75288314  0.50773446  0.86551910  1
  O  O195  1  0.24283139  0.49403385  0.13035514  1
  O  O196  1  0.26111925  0.49322422  0.63855480  1
  O  O197  1  0.23493702  0.99703305  0.12046166  1
  O  O198  1  0.24184981  1.01050003  0.63418711  1
  O  O199  1  0.74011622  0.49631173  0.13383486  1
  O  O200  1  0.74854021  0.48865900  0.62979917  1
  O  O201  1  0.75082837  0.99713430  0.14100228  1
  O  O202  1  0.73821328  0.99271361  0.62107772  1
  O  O203  1  0.00379674  0.38108580  0.26194314  1
  O  O204  1  0.00331193  0.37060433  0.75150905  1
  O  O205  1  0.00858586  0.86237695  0.24587540  1
  O  O206  1  0.00827270  0.86770477  0.75133794  1
  O  O207  1  0.49591593  0.37052890  0.26303091  1
  O  O208  1  0.50820428  0.38396845  0.75806444  1
  O  O209  1  0.49799614  0.86697964  0.25928621  1
  O  O210  1  0.50050913  0.88646904  0.76533407  1
  O  O211  1  0.49530234  0.13443020  0.24206977  1
  O  O212  1  0.48831889  0.12658437  0.73794153  1
  O  O213  1  0.49824310  0.62888131  0.24178647  1
  O  O214  1  0.50120823  0.62332942  0.74599865  1
  O  O215  1  0.99475056  0.12410905  0.25652314  1
  O  O216  1  0.99482076  0.13024809  0.74106566  1
  O  O217  1  0.99182387  0.63067917  0.24394571  1
  O  O218  1  0.99004034  0.62889815  0.74698456  1
  O  O219  1  0.36780284  0.25581258  0.00903759  1
  O  O220  1  0.37397851  0.26129764  0.50753354  1
  O  O221  1  0.36958740  0.75107345  0.01513499  1
  O  O222  1  0.36168685  0.75313377  0.49667269  1
  O  O223  1  0.87915182  0.25628875  0.01173422  1
  O  O224  1  0.88057653  0.25918455  0.50293234  1
  O  O225  1  0.86733934  0.74118588  0.00260882  1
  O  O226  1  0.87049955  0.75492666  0.50488969  1
  O  O227  1  0.12839229  0.24065815  0.48807713  1
  O  O228  1  0.12923462  0.24499339  0.99648020  1
  O  O229  1  0.13327352  0.74974837  0.48783322  1
  O  O230  1  0.13331990  0.74973568  0.98987766  1
  O  O231  1  0.62057206  0.23550578  0.49937944  1
  O  O232  1  0.62270412  0.24615089  0.99244500  1
  O  O233  1  0.63729558  0.75458109  0.50163677  1
  O  O234  1  0.64051380  0.73479334  1.00795102  1
  O  O235  1  0.49150166  0.24501597  0.13401392  1
  O  O236  1  0.48787567  0.24592019  0.62379398  1
  O  O237  1  0.49120179  0.73996188  0.13332591  1
  O  O238  1  0.50440858  0.74307249  0.63728155  1
  O  O239  1  0.98185040  0.25847372  0.13030644  1
  O  O240  1  0.99446941  0.24325782  0.62523680  1
  O  O241  1  1.00751039  0.73794636  0.13386421  1
  O  O242  1  0.98704579  0.75026105  0.62777025  1
  O  O243  1  0.01041540  0.25678529  0.37899754  1
  O  O244  1  0.00443357  0.25508022  0.86653948  1
  O  O245  1  0.01226762  0.74501957  0.36723223  1
  O  O246  1  0.00859650  0.75159687  0.86566272  1
  O  O247  1  0.49575492  0.25973686  0.36928204  1
  O  O248  1  0.49454028  0.26252763  0.87633808  1
  O  O249  1  0.50249443  0.75882925  0.36645011  1
  O  O250  1  0.50722991  0.75620386  0.89314922  1
  O  O251  1  0.23929430  0.12548244  0.49424096  1
  O  O252  1  0.24207309  0.13298417  0.99371892  1
  O  O253  1  0.25201803  0.63981696  0.50088644  1
  O  O254  1  0.24647076  0.63927355  1.00377057  1
  O  O255  1  0.74479702  0.12007941  0.48821637  1
  O  O256  1  0.75476199  0.12194313  0.99390727  1
  O  O257  1  0.75866652  0.63428186  0.48999689  1
  O  O258  1  0.74583911  0.62484133  0.99568735  1
  O  O259  1  0.25194447  0.36980914  0.00544708  1
  O  O260  1  0.26104093  0.37801276  0.50662721  1
  O  O261  1  0.25366378  0.86083612  0.00062922  1
  O  O262  1  0.25005676  0.85574083  0.49102054  1
  O  O263  1  0.76243792  0.38298299  -0.00099281  1
  O  O264  1  0.75683221  0.37646716  0.50662257  1
  O  O265  1  0.76250551  0.86224000  0.00959849  1
  O  O266  1  0.75794467  0.86789707  0.50632830  1
  O  O267  1  0.12895250  0.49417369  0.24779114  1
  O  O268  1  0.13310397  0.49062342  0.75323996  1
  O  O269  1  0.12355798  0.98506663  0.24747443  1
  O  O270  1  0.13082733  0.99558795  0.74578594  1
  O  O271  1  0.63296314  0.50372919  0.24178202  1
  O  O272  1  0.63683260  0.49044008  0.74739831  1
  O  O273  1  0.63311938  1.00441789  0.25102286  1
  O  O274  1  0.62777214  1.00941841  0.73606597  1
  O  O275  1  0.37634259  0.00034045  0.26508913  1
  O  O276  1  0.36869938  0.01167629  0.75829393  1
  O  O277  1  0.36466119  0.49953458  0.25963378  1
  O  O278  1  0.36803076  0.49860710  0.76322200  1
  O  O279  1  0.87713066  0.01476548  0.25018298  1
  O  O280  1  0.88334409  0.00823984  0.76020666  1
  O  O281  1  0.86731895  0.50580192  0.25472468  1
  O  O282  1  0.86451902  0.50674130  0.74724493  1
  O  O283  1  0.11806950  0.36453414  0.37132301  1
  O  O284  1  0.11791036  0.36773003  0.86812995  1
  O  O285  1  0.12550400  0.86526199  0.36246035  1
  O  O286  1  0.12786710  0.86481263  0.86272995  1
  O  O287  1  0.60996515  0.37276891  0.38419203  1
  O  O288  1  0.61496534  0.37672507  0.86793146  1
  O  O289  1  0.61420588  0.87797537  0.38040837  1
  O  O290  1  0.63788481  0.88539973  0.88754942  1
  O  O291  1  0.37983287  0.13809202  0.12366591  1
  O  O292  1  0.38089408  0.13324341  0.62978587  1
  O  O293  1  0.38362060  0.62923947  0.12837488  1
  O  O294  1  0.39646153  0.63584509  0.62394853  1
  O  O295  1  0.87998765  0.13175608  0.13481645  1
  O  O296  1  0.87893458  0.12572590  0.62906885  1
  O  O297  1  0.88230458  0.61796410  0.13777882  1
  O  O298  1  0.87622541  0.63028818  0.62963849  1
  O  O299  1  0.25525393  0.25534459  0.12346493  1
  O  O300  1  0.26092664  0.25964843  0.62147343  1
  O  O301  1  0.25731715  0.75081082  0.12058858  1
  O  O302  1  0.25245981  0.74986546  0.61512576  1
  O  O303  1  0.76861161  0.25262364  0.13517341  1
  O  O304  1  0.75441956  0.26093035  0.62957289  1
  O  O305  1  0.75190779  0.75766159  0.12466457  1
  O  O306  1  0.75918973  0.75378234  0.61769895  1
  O  O307  1  0.24689484  0.23928251  0.37699504  1
  O  O308  1  0.24346080  0.24572486  0.87987662  1
  O  O309  1  0.23662072  0.74555296  0.37364769  1
  O  O310  1  0.24962300  0.74569396  0.87697708  1
  O  O311  1  0.74805819  0.23423118  0.36604817  1
  O  O312  1  0.75923850  0.23404365  0.87360793  1
  O  O313  1  0.74692527  0.74319987  0.38174467  1
  O  O314  1  0.75377670  0.73520515  0.88839563  1
  O  O315  1  0.01351644  0.12730002  -0.00542114  1
  O  O316  1  0.01198051  0.11719818  0.50287921  1
  O  O317  1  -0.00022086  0.61708286  0.00726748  1
  O  O318  1  -0.01125563  0.60381752  0.49469793  1
  O  O319  1  0.50090360  0.12089868  0.01855500  1
  O  O320  1  0.50439590  0.12521892  0.51287321  1
  O  O321  1  0.50741425  0.61746147  0.01371211  1
  O  O322  1  0.49974482  0.61735387  0.49727565  1
  O  O323  1  0.48927832  0.38462943  0.49816035  1
  O  O324  1  0.49159028  0.38109991  0.99294854  1
  O  O325  1  0.49527004  0.87651538  0.49013001  1
  O  O326  1  0.50163325  0.89953742  1.01334168  1
  O  O327  1  0.99322611  0.38080571  0.48894475  1
  O  O328  1  0.99238417  0.38224637  0.99444601  1
  O  O329  1  0.99065775  0.88140362  0.50681490  1
  O  O330  1  0.99780941  0.87382215  0.99579878  1
  O  O331  1  0.49369975  0.49617472  0.38455846  1
  O  O332  1  0.49087019  0.49324923  0.88135696  1
  O  O333  1  0.48958319  0.99604474  0.37552279  1
  O  O334  1  0.49624065  1.01452559  0.89489029  1
  O  O335  1  0.99156493  0.49019761  0.38033720  1
  O  O336  1  0.99768644  0.49478547  0.88294832  1
  O  O337  1  0.99870106  1.00093879  0.38907219  1
  O  O338  1  0.98936057  0.99834834  0.87795998  1
  O  O339  1  0.01838046  -0.00518806  0.12147468  1
  O  O340  1  0.00845891  0.00489656  0.61609408  1
  O  O341  1  0.00394541  0.50562546  0.11836211  1
  O  O342  1  -0.00780755  0.49332561  0.60566036  1
  O  O343  1  0.49253088  0.01640179  0.12196211  1
  O  O344  1  0.51201314  0.01018209  0.62448994  1
  O  O345  1  0.50305134  0.50433133  0.12341470  1
  O  O346  1  0.49756568  0.51133021  0.61432669  1
  O  O347  1  0.24227275  0.38372653  0.24563903  1
  O  O348  1  0.24374378  0.38143244  0.74198824  1
  O  O349  1  0.23703287  0.86951187  0.25033285  1
  O  O350  1  0.24286689  0.89451154  0.75246669  1
  O  O351  1  0.75366450  0.38694914  0.25151804  1
  O  O352  1  0.74643360  0.38104719  0.74286863  1
  O  O353  1  0.74951651  0.88744065  0.24547384  1
  O  O354  1  0.75884861  0.87333120  0.73544269  1
  O  O355  1  0.24961707  0.12746916  0.26293906  1
  O  O356  1  0.25567839  0.11903956  0.75632307  1
  O  O357  1  0.24842194  0.61093370  0.24358349  1
  O  O358  1  0.24442622  0.61881305  0.74776472  1
  O  O359  1  0.75348012  0.11291445  0.25509543  1
  O  O360  1  0.76440515  0.12703696  0.75238899  1
  O  O361  1  0.75649979  0.61729455  0.25473462  1
  O  O362  1  0.75466782  0.61710857  0.75472589  1
  O  O363  1  0.36406912  0.11904027  0.37945976  1
  O  O364  1  0.37136221  0.12269173  0.86967931  1
  O  O365  1  0.37908511  0.61220216  0.37236367  1
  O  O366  1  0.37241517  0.61610882  0.88273094  1
  O  O367  1  0.87097322  0.12281171  0.36351172  1
  O  O368  1  0.87249950  0.11879658  0.86603927  1
  O  O369  1  0.86548884  0.61829605  0.36376832  1
  O  O370  1  0.86765069  0.62122297  0.86378457  1
  O  O371  1  0.12755349  0.37955210  0.13007337  1
  O  O372  1  0.13871127  0.36967937  0.62333968  1
  O  O373  1  0.13016188  0.87773172  0.13939964  1
  O  O374  1  0.12253482  0.87882917  0.63718761  1
  O  O375  1  0.62325488  0.38588162  0.12047519  1
  O  O376  1  0.62948939  0.37629691  0.63021861  1
  O  O377  1  0.65159921  0.88038579  0.11250711  1
  O  O378  1  0.63181665  0.88987112  0.62166408  1
  O  O379  1  0.12860090  0.25510946  0.26152184  1
  O  O380  1  0.12030498  0.25600206  0.75196021  1
  O  O381  1  0.11978733  0.75443141  0.25988755  1
  O  O382  1  0.12333619  0.75774572  0.75338348  1
  O  O383  1  0.61029276  0.25029518  0.25508602  1
  O  O384  1  0.62972160  0.26444612  0.75769074  1
  O  O385  1  0.61345627  0.74597867  0.25027727  1
  O  O386  1  0.63591349  0.74790131  0.76006053  1
  O  O387  1  0.38367466  0.25965552  0.24161024  1
  O  O388  1  0.36748482  0.24170156  0.74146308  1
  O  O389  1  0.38068243  0.74764428  0.24346791  1
  O  O390  1  0.36329814  0.74076631  0.76310530  1
  O  O391  1  0.87803932  0.23185012  0.24315242  1
  O  O392  1  0.88302011  0.24248304  0.73951144  1
  O  O393  1  0.88375244  0.74094216  0.25844551  1
  O  O394  1  0.87795524  0.73654578  0.73917753  1
  O  O395  1  0.38270807  0.49746078  0.49585690  1
  O  O396  1  0.37639185  0.49406397  0.99171489  1
  O  O397  1  0.37800515  0.99934778  0.48818789  1
  O  O398  1  0.38404588  1.00733573  0.99583553  1
  O  O399  1  0.87899634  0.48456873  0.49180910  1
  O  O400  1  0.88540186  0.49208554  1.00063769  1
  O  O401  1  0.88396349  0.99027097  0.49903994  1
  O  O402  1  0.88091703  1.00044238  0.98863961  1
  O  O403  1  0.12485814  0.00856155  0.00350457  1
  O  O404  1  0.12173081  0.00263584  0.50240854  1
  O  O405  1  0.11376019  0.50019889  0.00308533  1
  O  O406  1  0.10781064  0.49683679  0.49009294  1
  O  O407  1  0.61546622  0.01470373  0.00356652  1
  O  O408  1  0.62142738  0.01424084  0.50921996  1
  O  O409  1  0.61878785  0.50689686  0.00912743  1
  O  O410  1  0.60770229  0.49746643  0.50149778  1
  O  O411  1  0.36758623  0.36915112  0.11960761  1
  O  O412  1  0.36939784  0.37103798  0.62101533  1
  O  O413  1  0.37260595  0.86714512  0.12546897  1
  O  O414  1  0.37645706  0.86913410  0.62452908  1
  O  O415  1  0.87090128  0.36731891  0.11684683  1
  O  O416  1  0.86588838  0.36741746  0.61510054  1
  O  O417  1  0.85919707  0.88354478  0.12667991  1
  O  O418  1  0.86837957  0.86761813  0.61693277  1
  O  O419  1  0.13566066  0.12777100  0.37917954  1
  O  O420  1  0.13042234  0.13108207  0.87929795  1
  O  O421  1  0.12235949  0.63459538  0.37901570  1
  O  O422  1  0.12238235  0.63908854  0.87348457  1
  O  O423  1  0.63252048  0.12616358  0.38343446  1
  O  O424  1  0.65083842  0.12482237  0.87376136  1
  O  O425  1  0.63828414  0.62585461  0.37217090  1
  O  O426  1  0.63448519  0.61324345  0.88843521  1
