# generated using pymatgen
data_V85Zn86O256
_symmetry_space_group_name_H-M   'P 1'
_cell_length_a   16.93990251
_cell_length_b   16.93887593
_cell_length_c   16.93448370
_cell_angle_alpha   89.96418937
_cell_angle_beta   90.02784073
_cell_angle_gamma   89.97548423
_symmetry_Int_Tables_number   1
_chemical_formula_structural   V85Zn86O256
_chemical_formula_sum   'V85 Zn86 O256'
_cell_volume   4859.22801213
_cell_formula_units_Z   1
loop_
 _symmetry_equiv_pos_site_id
 _symmetry_equiv_pos_as_xyz
  1  'x, y, z'
loop_
 _atom_site_type_symbol
 _atom_site_label
 _atom_site_symmetry_multiplicity
 _atom_site_fract_x
 _atom_site_fract_y
 _atom_site_fract_z
 _atom_site_occupancy
  V  V0  1  0.62935234  0.37789187  0.22656810  1
  V  V1  1  0.87169801  0.00405156  0.37370887  1
  V  V2  1  0.38110427  0.24569518  0.62241042  1
  V  V3  1  0.12424799  0.87487491  0.74895122  1
  V  V4  1  -0.00088183  0.75169933  0.74694637  1
  V  V5  1  0.49760910  0.00511167  0.50574976  1
  V  V6  1  0.14207025  0.49807775  0.12468270  1
  V  V7  1  0.74755779  0.00464203  0.25012758  1
  V  V8  1  0.87653323  0.00193616  0.87519298  1
  V  V9  1  0.50364453  0.24447547  0.25659259  1
  V  V10  1  -0.00038142  0.87420620  0.36813813  1
  V  V11  1  0.50399107  0.24601675  0.75425422  1
  V  V12  1  0.25148393  0.62575794  0.87713666  1
  V  V13  1  0.75471173  0.87506590  0.12557809  1
  V  V14  1  0.38224281  0.49711878  0.87641550  1
  V  V15  1  0.38036739  0.37756500  0.50045419  1
  V  V16  1  0.75086496  0.75041029  0.00005940  1
  V  V17  1  -0.00182837  -0.00056827  0.49773656  1
  V  V18  1  0.51145305  0.37420625  0.37756745  1
  V  V19  1  0.74646416  0.12811438  0.87179571  1
  V  V20  1  0.61848704  0.12401945  -0.00691196  1
  V  V21  1  0.74455109  0.13761588  0.37431789  1
  V  V22  1  0.37085316  -0.00166107  0.36662697  1
  V  V23  1  -0.01923502  0.73962691  0.23895859  1
  V  V24  1  0.24831648  0.75695790  0.00317229  1
  V  V25  1  -0.05585242  0.55047192  0.05060542  1
  V  V26  1  -0.00091683  0.25049791  0.24477555  1
  V  V27  1  0.11950713  0.62495537  0.49640778  1
  V  V28  1  0.24481429  0.74800302  0.49825771  1
  V  V29  1  0.62737770  -0.00282603  0.62280951  1
  V  V30  1  0.37277012  0.74840683  0.62385868  1
  V  V31  1  0.12411868  0.75120283  0.87679834  1
  V  V32  1  0.25021058  -0.00023169  0.74914080  1
  V  V33  1  0.62340417  0.50085175  0.62320975  1
  V  V34  1  0.62520517  0.87301049  0.25376216  1
  V  V35  1  0.75364063  0.49726622  0.76375472  1
  V  V36  1  0.24297833  0.24943434  0.00085544  1
  V  V37  1  0.87261225  0.25413156  0.12162656  1
  V  V38  1  0.38134025  0.12150468  0.74361997  1
  V  V39  1  0.74456905  0.25065614  -0.00194169  1
  V  V40  1  0.75703892  0.58841458  0.34777464  1
  V  V41  1  0.50008530  0.62033312  0.61722171  1
  V  V42  1  0.61873746  -0.00302266  0.11811685  1
  V  V43  1  0.62437785  0.37025494  0.76094128  1
  V  V44  1  0.87479983  0.37843095  0.49844611  1
  V  V45  1  0.12527864  0.00418217  0.13803404  1
  V  V46  1  0.37335774  0.87516335  0.49959913  1
  V  V47  1  0.62043055  0.13047530  0.50128400  1
  V  V48  1  0.62628731  0.74561182  0.87588704  1
  V  V49  1  0.24736282  0.87228505  0.62305582  1
  V  V50  1  0.24633438  0.61354534  0.37200158  1
  V  V51  1  0.01877677  0.38507530  0.86829048  1
  V  V52  1  0.12607496  0.25169452  0.37159447  1
  V  V53  1  0.87805938  0.87686132  0.00386918  1
  V  V54  1  0.01942649  0.25140121  0.75467448  1
  V  V55  1  0.50084621  0.74619245  0.25694843  1
  V  V56  1  0.49652426  0.12339104  0.12009000  1
  V  V57  1  0.87615816  0.25249268  0.62840499  1
  V  V58  1  0.37340688  0.62223872  0.75005280  1
  V  V59  1  0.37246917  0.61957855  0.25024814  1
  V  V60  1  0.24776327  0.12080128  0.36305668  1
  V  V61  1  0.50167028  0.87728565  0.87712355  1
  V  V62  1  0.38190770  0.87538096  0.00243639  1
  V  V63  1  -0.00340502  0.62550935  0.62388014  1
  V  V64  1  0.49990293  0.75025958  0.74821211  1
  V  V65  1  0.50595970  0.87377079  0.37882015  1
  V  V66  1  0.24737472  0.37572944  0.62865383  1
  V  V67  1  0.12040623  0.75151100  0.36372810  1
  V  V68  1  0.12627734  0.12462610  0.49710569  1
  V  V69  1  0.24529832  0.88101623  0.14237475  1
  V  V70  1  0.12167307  0.62267816  0.00720954  1
  V  V71  1  0.13997830  0.38002741  0.24682263  1
  V  V72  1  0.74621967  0.25201352  0.50016942  1
  V  V73  1  0.74918217  0.37761165  0.62763707  1
  V  V74  1  0.00101596  0.12722639  0.62267121  1
  V  V75  1  0.75135061  -0.00456907  0.74414685  1
  V  V76  1  0.74057523  0.75149115  0.48464356  1
  V  V77  1  0.87543000  0.62068150  0.75744969  1
  V  V78  1  0.38214747  0.49823067  0.37785209  1
  V  V79  1  0.37188492  0.37585316  0.01243018  1
  V  V80  1  0.88485235  0.37070348  -0.01665301  1
  V  V81  1  0.86049284  0.75755157  0.62580914  1
  V  V82  1  -0.00771874  0.50234491  0.49520541  1
  V  V83  1  -0.00202125  0.37995701  0.37164800  1
  V  V84  1  0.37530728  0.00045725  0.87944720  1
  Zn  Zn85  1  0.37186540  0.25484005  0.12964362  1
  Zn  Zn86  1  0.00093889  0.87789868  0.87652582  1
  Zn  Zn87  1  0.50194287  0.62143699  0.12590628  1
  Zn  Zn88  1  0.12371886  0.12203173  -0.00940019  1
  Zn  Zn89  1  0.37161205  0.75050264  0.12910508  1
  Zn  Zn90  1  0.50858948  0.49852368  0.01591818  1
  Zn  Zn91  1  0.75538500  0.62515743  0.87956291  1
  Zn  Zn92  1  0.00578024  0.00171893  0.00092286  1
  Zn  Zn93  1  0.12025074  0.49308282  0.62889189  1
  Zn  Zn94  1  0.49967274  0.36752133  0.88009007  1
  Zn  Zn95  1  0.24679364  0.13547584  0.86885467  1
  Zn  Zn96  1  0.62954214  0.87387990  0.74479734  1
  Zn  Zn97  1  0.62588774  0.62492539  0.48767007  1
  Zn  Zn98  1  0.87595929  0.12687220  0.74932178  1
  Zn  Zn99  1  0.00004615  0.12653465  0.11885233  1
  Zn  Zn100  1  0.24349064  0.48984248  0.75737228  1
  Zn  Zn101  1  0.37214313  0.12236224  0.24590763  1
  Zn  Zn102  1  0.65468165  0.58839757  0.04993113  1
  Zn  Zn103  1  0.25184624  0.24979212  0.49770855  1
  Zn  Zn104  1  0.87136994  0.13307994  0.24693051  1
  Zn  Zn105  1  0.86759488  0.87838706  0.50411165  1
  Zn  Zn106  1  0.12353751  -0.00098978  0.62252252  1
  Zn  Zn107  1  0.18828312  0.19186646  0.18193893  1
  Zn  Zn108  1  0.19441285  0.18588655  0.68236264  1
  Zn  Zn109  1  0.18651998  0.68660833  0.18788440  1
  Zn  Zn110  1  0.18316059  0.67898992  0.68814874  1
  Zn  Zn111  1  0.68684227  0.19362730  0.18334329  1
  Zn  Zn112  1  0.68533626  0.18334989  0.68385041  1
  Zn  Zn113  1  0.69351773  0.69519656  0.19555488  1
  Zn  Zn114  1  0.68528918  0.68288496  0.69247111  1
  Zn  Zn115  1  0.31749056  0.30838912  0.31428727  1
  Zn  Zn116  1  0.31464011  0.31116695  0.81426544  1
  Zn  Zn117  1  0.31389918  0.80610598  0.31806566  1
  Zn  Zn118  1  0.31183966  0.81255498  0.81383704  1
  Zn  Zn119  1  0.81190486  0.39557482  0.30030768  1
  Zn  Zn120  1  0.81302563  0.30976391  0.81344382  1
  Zn  Zn121  1  0.81436308  0.81589401  0.31339516  1
  Zn  Zn122  1  0.81429342  0.81575463  0.81292692  1
  Zn  Zn123  1  0.18564879  0.43696136  0.44325900  1
  Zn  Zn124  1  0.19376641  0.43881623  0.94160275  1
  Zn  Zn125  1  0.18441369  0.93648273  0.43192454  1
  Zn  Zn126  1  0.18693335  0.94366171  0.93849904  1
  Zn  Zn127  1  0.68595385  0.44028621  0.44096988  1
  Zn  Zn128  1  0.71140972  0.45039154  0.99290181  1
  Zn  Zn129  1  0.68994770  0.93746504  0.44137968  1
  Zn  Zn130  1  0.68721411  0.93727441  0.93579851  1
  Zn  Zn131  1  0.30793603  0.06135645  0.06133441  1
  Zn  Zn132  1  0.31024475  0.06170678  0.56040442  1
  Zn  Zn133  1  0.31881705  0.56577808  0.06112735  1
  Zn  Zn134  1  0.31188460  0.55938593  0.55887314  1
  Zn  Zn135  1  0.81222075  0.06559740  0.06200769  1
  Zn  Zn136  1  0.81135832  0.06571460  0.56199152  1
  Zn  Zn137  1  0.79757404  0.52985261  0.16758352  1
  Zn  Zn138  1  0.80937621  0.56700931  0.56564463  1
  Zn  Zn139  1  0.44395827  0.44075097  0.19238528  1
  Zn  Zn140  1  0.43794502  0.43701159  0.69036915  1
  Zn  Zn141  1  0.43896406  0.93427501  0.18610825  1
  Zn  Zn142  1  0.43886496  0.93616266  0.68571067  1
  Zn  Zn143  1  0.94743132  0.42767830  0.17955410  1
  Zn  Zn144  1  0.94000164  0.43692606  0.69151528  1
  Zn  Zn145  1  0.93935754  0.93901436  0.19099809  1
  Zn  Zn146  1  0.93760993  0.93943938  0.68722388  1
  Zn  Zn147  1  0.06010036  0.06381398  0.30896183  1
  Zn  Zn148  1  0.06286878  0.06512715  0.81134190  1
  Zn  Zn149  1  0.05743620  0.56220498  0.30501270  1
  Zn  Zn150  1  0.06661151  0.56227758  0.81223886  1
  Zn  Zn151  1  0.56260292  0.06085669  0.31545368  1
  Zn  Zn152  1  0.56098579  0.06016934  0.81062022  1
  Zn  Zn153  1  0.56819519  0.55531462  0.30656082  1
  Zn  Zn154  1  0.59691174  0.53119202  0.85729724  1
  Zn  Zn155  1  0.43529167  0.18647686  0.43549671  1
  Zn  Zn156  1  0.43111763  0.18825345  0.93699545  1
  Zn  Zn157  1  0.43691258  0.68740735  0.43708823  1
  Zn  Zn158  1  0.44057065  0.68686720  0.94107142  1
  Zn  Zn159  1  0.93574744  0.19202617  0.43452224  1
  Zn  Zn160  1  0.94210405  0.18593947  0.93403174  1
  Zn  Zn161  1  0.92548137  0.68755640  0.43290792  1
  Zn  Zn162  1  0.93713130  0.69727033  0.93744269  1
  Zn  Zn163  1  0.06481612  0.31767917  0.06150449  1
  Zn  Zn164  1  0.06331425  0.31156827  0.55979019  1
  Zn  Zn165  1  0.06265349  0.81741761  0.06837124  1
  Zn  Zn166  1  0.05707617  0.81163811  0.55797234  1
  Zn  Zn167  1  0.55561884  0.30677251  0.05916880  1
  Zn  Zn168  1  0.56104534  0.31369332  0.56713575  1
  Zn  Zn169  1  0.57800297  0.77851080  0.08013683  1
  Zn  Zn170  1  0.56541671  0.81231362  0.56248265  1
  O  O171  1  0.12676303  0.11204574  0.12380173  1
  O  O172  1  0.12070886  0.12453532  0.61372199  1
  O  O173  1  0.12782177  0.61693730  0.11534616  1
  O  O174  1  0.10742872  0.63310165  0.61372994  1
  O  O175  1  0.61488489  0.11705704  0.11639382  1
  O  O176  1  0.62611263  0.11339397  0.61056416  1
  O  O177  1  0.61329255  0.66663245  0.11947556  1
  O  O178  1  0.61370889  0.61671520  0.63219875  1
  O  O179  1  0.38202963  0.38086801  0.38118787  1
  O  O180  1  0.37630041  0.38342343  0.88238105  1
  O  O181  1  0.38112167  0.88034211  0.38140669  1
  O  O182  1  0.38115574  0.87926026  0.88076489  1
  O  O183  1  0.89138927  0.36839813  0.38311817  1
  O  O184  1  0.88893312  0.36717702  0.87898135  1
  O  O185  1  0.87821069  0.88980618  0.37829334  1
  O  O186  1  0.87569693  0.88591748  0.88239656  1
  O  O187  1  0.25867078  0.00683198  0.37992783  1
  O  O188  1  0.26222240  -0.00791406  0.86185690  1
  O  O189  1  0.25491260  0.50990364  0.38215952  1
  O  O190  1  0.26176442  0.50861628  0.87508784  1
  O  O191  1  0.75622360  0.00835293  0.37187640  1
  O  O192  1  0.75760720  0.00828512  0.86845775  1
  O  O193  1  0.76051576  0.48610180  0.36671103  1
  O  O194  1  0.74851207  0.50312409  0.86582907  1
  O  O195  1  0.24056298  0.50409347  0.12506918  1
  O  O196  1  0.25230541  0.48365453  0.62227577  1
  O  O197  1  0.24286260  0.98866680  0.12643573  1
  O  O198  1  0.24811729  0.99056582  0.63086879  1
  O  O199  1  0.72613305  0.50818012  0.08846825  1
  O  O200  1  0.74348509  0.49514514  0.63555701  1
  O  O201  1  0.73926710  0.99602856  0.13043700  1
  O  O202  1  0.74229885  1.00504348  0.63184172  1
  O  O203  1  0.01195400  0.36621920  0.25688044  1
  O  O204  1  0.00264868  0.36319079  0.75637022  1
  O  O205  1  -0.00673635  0.86602388  0.26356675  1
  O  O206  1  0.00925106  0.87048979  0.74928406  1
  O  O207  1  0.50914113  0.36285224  0.25741557  1
  O  O208  1  0.50744827  0.36454270  0.74974138  1
  O  O209  1  0.50580448  0.87215431  0.26098382  1
  O  O210  1  0.49646874  0.86342996  0.75674878  1
  O  O211  1  0.49980910  0.13155878  0.24586343  1
  O  O212  1  0.48925060  0.12789792  0.74905312  1
  O  O213  1  0.49483870  0.63265648  0.25742412  1
  O  O214  1  0.48495035  0.63939970  0.74001183  1
  O  O215  1  0.99700163  0.14089807  0.25020981  1
  O  O216  1  0.99969760  0.13675493  0.74113267  1
  O  O217  1  0.99356310  0.64043668  0.25570622  1
  O  O218  1  0.99367958  0.63112728  0.74149473  1
  O  O219  1  0.37275004  0.26284667  0.00464937  1
  O  O220  1  0.37428801  0.25542450  0.50652311  1
  O  O221  1  0.36454824  0.75812434  0.00273026  1
  O  O222  1  0.36692315  0.75492741  0.50437808  1
  O  O223  1  0.87044635  0.25342470  -0.00114775  1
  O  O224  1  0.87082802  0.25660759  0.51044688  1
  O  O225  1  0.86734041  0.76873534  -0.00522322  1
  O  O226  1  0.86265807  0.75136524  0.51212305  1
  O  O227  1  0.12564630  0.24124313  0.49037558  1
  O  O228  1  0.14025814  0.25093592  1.00438064  1
  O  O229  1  0.12449499  0.74266596  0.48919688  1
  O  O230  1  0.12896450  0.74624201  0.99806285  1
  O  O231  1  0.63193959  0.24183005  0.50954410  1
  O  O232  1  0.63400820  0.23875188  1.00229022  1
  O  O233  1  0.63621565  0.74705901  0.50167796  1
  O  O234  1  0.63779824  0.76803377  0.98538407  1
  O  O235  1  0.49373693  0.23851559  0.13382019  1
  O  O236  1  0.48688163  0.25302261  0.63433279  1
  O  O237  1  0.48818963  0.75985233  0.14860066  1
  O  O238  1  0.49374247  0.74684991  0.63122818  1
  O  O239  1  0.99881244  0.24931979  0.13054631  1
  O  O240  1  0.99503777  0.24917745  0.63185529  1
  O  O241  1  1.00218538  0.75475497  0.14126781  1
  O  O242  1  0.98906986  0.74386726  0.62745530  1
  O  O243  1  0.00705794  0.25769801  0.36782211  1
  O  O244  1  0.00184314  0.25290347  0.85690646  1
  O  O245  1  0.00093056  0.75646930  0.37244725  1
  O  O246  1  0.00752610  0.75523687  0.86546109  1
  O  O247  1  0.49438014  0.25531667  0.36290768  1
  O  O248  1  0.49293900  0.24852224  0.85872447  1
  O  O249  1  0.49650531  0.76131656  0.36956693  1
  O  O250  1  0.50482483  0.75798144  0.86834448  1
  O  O251  1  0.23699087  0.12401421  0.49260291  1
  O  O252  1  0.25319562  0.13845992  0.99663023  1
  O  O253  1  0.24165678  0.62923766  0.49374417  1
  O  O254  1  0.24368977  0.63837003  0.99871731  1
  O  O255  1  0.74152241  0.13112646  0.49450142  1
  O  O256  1  0.74217043  0.13123867  0.99125355  1
  O  O257  1  0.74519235  0.64380609  0.50962057  1
  O  O258  1  0.75238020  0.64822810  0.99630823  1
  O  O259  1  0.26340782  0.36576590  -0.00090804  1
  O  O260  1  0.26260330  0.37226751  0.50624448  1
  O  O261  1  0.25626543  0.86609412  0.00197493  1
  O  O262  1  0.25216015  0.86856646  0.50336018  1
  O  O263  1  0.76853625  0.35713251  -0.01951098  1
  O  O264  1  0.75490472  0.37076916  0.50734807  1
  O  O265  1  0.75732291  0.87587135  0.00801947  1
  O  O266  1  0.75026846  0.85963994  0.50006326  1
  O  O267  1  0.12079503  0.49477089  0.23473440  1
  O  O268  1  0.13812971  0.52459345  0.73652048  1
  O  O269  1  0.12520522  1.00026231  0.23854428  1
  O  O270  1  0.13030282  0.98941953  0.74473432  1
  O  O271  1  0.62806871  0.47627362  0.25041302  1
  O  O272  1  0.63475433  0.49052704  0.74837183  1
  O  O273  1  0.62855575  0.99167233  0.24418613  1
  O  O274  1  0.63148444  1.00144090  0.73950446  1
  O  O275  1  0.38110870  -0.00023661  0.26393328  1
  O  O276  1  0.37161186  0.00432887  0.75314161  1
  O  O277  1  0.37686662  0.50971394  0.26403317  1
  O  O278  1  0.36909396  0.50854272  0.75525679  1
  O  O279  1  0.86696886  0.00662345  0.25742004  1
  O  O280  1  0.86844498  0.00398750  0.75452846  1
  O  O281  1  0.86427487  0.47257751  0.23653480  1
  O  O282  1  0.86718369  0.50979890  0.74329548  1
  O  O283  1  0.11764131  0.37241916  0.37086865  1
  O  O284  1  0.11861469  0.38114513  0.87464880  1
  O  O285  1  0.11316899  0.86402568  0.37875996  1
  O  O286  1  0.12629819  0.87108990  0.86361200  1
  O  O287  1  0.61169562  0.37341672  0.38513168  1
  O  O288  1  0.62053277  0.37499357  0.86096635  1
  O  O289  1  0.61332918  0.88608172  0.36930210  1
  O  O290  1  0.61534069  0.87193287  0.86865765  1
  O  O291  1  0.38820503  0.11532871  0.12604401  1
  O  O292  1  0.37019513  0.13297180  0.63005737  1
  O  O293  1  0.37221256  0.63000730  0.13967586  1
  O  O294  1  0.37901794  0.62771697  0.62874318  1
  O  O295  1  0.87751183  0.13755727  0.12499375  1
  O  O296  1  0.88315681  0.13536941  0.62337514  1
  O  O297  1  0.88274579  0.60058062  0.10760914  1
  O  O298  1  0.88173128  0.63611014  0.63278515  1
  O  O299  1  0.25800167  0.24664477  0.11044382  1
  O  O300  1  0.26166896  0.25929800  0.62083085  1
  O  O301  1  0.24825034  0.76320540  0.12045332  1
  O  O302  1  0.25245579  0.75227628  0.61806818  1
  O  O303  1  0.75956353  0.24502296  0.10952033  1
  O  O304  1  0.75824129  0.25501112  0.62044597  1
  O  O305  1  0.74830662  0.76845085  0.11811437  1
  O  O306  1  0.75970649  0.75078051  0.63153600  1
  O  O307  1  0.24443494  0.23948245  0.37749831  1
  O  O308  1  0.26041205  0.24995317  0.89255295  1
  O  O309  1  0.23902351  0.74230112  0.38096068  1
  O  O310  1  0.24391560  0.74628876  0.88373682  1
  O  O311  1  0.75581314  0.23805445  0.38619453  1
  O  O312  1  0.75152532  0.23390615  0.87688765  1
  O  O313  1  0.74838951  0.75245280  0.38466147  1
  O  O314  1  0.74246161  0.75599628  0.88010688  1
  O  O315  1  0.00458172  0.12074692  0.00132498  1
  O  O316  1  0.00906185  0.12191851  0.50027940  1
  O  O317  1  0.00370939  0.62176617  -0.00395731  1
  O  O318  1  -0.00368668  0.62019623  0.50277568  1
  O  O319  1  0.50720625  0.13067218  0.00596760  1
  O  O320  1  0.50713843  0.11650013  0.49259726  1
  O  O321  1  0.49076585  0.61710588  0.00877501  1
  O  O322  1  0.50482875  0.63237096  0.51296950  1
  O  O323  1  0.48802068  0.36821441  0.49389062  1
  O  O324  1  0.48713414  0.37686241  0.99717719  1
  O  O325  1  0.49503497  0.88026631  0.49412897  1
  O  O326  1  0.48535671  0.86732830  0.99215180  1
  O  O327  1  0.99728015  0.38318265  0.49304030  1
  O  O328  1  0.99602378  0.36220969  0.97834807  1
  O  O329  1  0.99408219  0.88268069  0.48928533  1
  O  O330  1  0.99232992  0.87965289  0.99863906  1
  O  O331  1  0.49343583  0.48853238  0.37182457  1
  O  O332  1  0.48566041  0.49768778  0.86736299  1
  O  O333  1  0.49176780  0.99311878  0.38537389  1
  O  O334  1  0.49071283  0.98536597  0.86783886  1
  O  O335  1  1.00366629  0.49242266  0.38264993  1
  O  O336  1  1.00140578  0.48393489  0.86451956  1
  O  O337  1  0.99205284  0.99561599  0.37670986  1
  O  O338  1  0.98565193  0.99907108  0.87097754  1
  O  O339  1  0.01375925  0.00104370  0.12778540  1
  O  O340  1  -0.00015221  0.00830698  0.61624599  1
  O  O341  1  0.00959839  0.49965019  0.11236982  1
  O  O342  1  -0.00070522  0.50954324  0.61883653  1
  O  O343  1  0.51211357  0.00403098  0.12982206  1
  O  O344  1  0.50295987  -0.00148508  0.61154132  1
  O  O345  1  0.50747677  0.50657558  0.13103784  1
  O  O346  1  0.50796323  0.51015700  0.63364084  1
  O  O347  1  0.23850402  0.37186371  0.25926389  1
  O  O348  1  0.25809558  0.37313603  0.73305996  1
  O  O349  1  0.25622762  0.87057947  0.24009494  1
  O  O350  1  0.24289198  0.87741524  0.74304629  1
  O  O351  1  0.72304339  0.34620394  0.25229803  1
  O  O352  1  0.74546038  0.37835046  0.74656808  1
  O  O353  1  0.74325596  0.88203413  0.24513032  1
  O  O354  1  0.74882622  0.89123593  0.75392416  1
  O  O355  1  0.25066218  0.12801250  0.25983821  1
  O  O356  1  0.26209917  0.11689939  0.74740651  1
  O  O357  1  0.25853549  0.63116395  0.26220709  1
  O  O358  1  0.26414346  0.63373483  0.75613456  1
  O  O359  1  0.74684990  0.12392415  0.25788720  1
  O  O360  1  0.74957546  0.11627970  0.75596503  1
  O  O361  1  0.75350042  0.61265903  0.24607423  1
  O  O362  1  0.75932343  0.61554893  0.75147887  1
  O  O363  1  0.36432826  0.11533212  0.37527037  1
  O  O364  1  0.37301670  0.11378308  0.86575692  1
  O  O365  1  0.36744503  0.61665159  0.37468819  1
  O  O366  1  0.37053152  0.62186425  0.86692700  1
  O  O367  1  0.86722569  0.11784330  0.37390640  1
  O  O368  1  0.86613206  0.11782945  0.87175126  1
  O  O369  1  0.84549882  0.62306351  0.38147398  1
  O  O370  1  0.87575962  0.63388651  0.86087972  1
  O  O371  1  0.12593250  0.38906574  0.13073117  1
  O  O372  1  0.14318888  0.37342099  0.61589185  1
  O  O373  1  0.13895900  0.88465162  0.12653764  1
  O  O374  1  0.12777497  0.87206764  0.63272589  1
  O  O375  1  0.62344286  0.36946776  0.12647447  1
  O  O376  1  0.62980491  0.38318361  0.63279110  1
  O  O377  1  0.62999693  0.88055887  0.13321741  1
  O  O378  1  0.61867683  0.89125618  0.62649597  1
  O  O379  1  0.12047341  0.25823610  0.25233965  1
  O  O380  1  0.11746399  0.24744305  0.74345283  1
  O  O381  1  0.11762909  0.74500808  0.26171419  1
  O  O382  1  0.12059349  0.75572842  0.75440938  1
  O  O383  1  0.60648796  0.25102457  0.24283323  1
  O  O384  1  0.61500652  0.25549985  0.73946166  1
  O  O385  1  0.61894778  0.76592809  0.25516898  1
  O  O386  1  0.61532781  0.75493660  0.75312263  1
  O  O387  1  0.38687890  0.24530181  0.24729811  1
  O  O388  1  0.37961545  0.24009178  0.74233126  1
  O  O389  1  0.38223231  0.73617397  0.25763881  1
  O  O390  1  0.37958817  0.74661685  0.74339720  1
  O  O391  1  0.88548382  0.25619983  0.23514513  1
  O  O392  1  0.87937119  0.24931569  0.73708541  1
  O  O393  1  0.88075247  0.75207036  0.24800843  1
  O  O394  1  0.87832101  0.74653219  0.74092118  1
  O  O395  1  0.37534870  0.49246279  0.48838294  1
  O  O396  1  0.37249472  0.48884083  0.99340782  1
  O  O397  1  0.38084059  0.99466091  0.49409067  1
  O  O398  1  0.36827969  0.99132774  0.98741430  1
  O  O399  1  0.88480849  0.49550341  0.50750594  1
  O  O400  1  0.88596876  0.47914673  0.99790283  1
  O  O401  1  0.87992089  1.00163219  0.49226733  1
  O  O402  1  0.87446221  0.99390192  0.99155854  1
  O  O403  1  0.12566907  -0.00094098  0.01492982  1
  O  O404  1  0.11602923  0.00702180  0.49856359  1
  O  O405  1  0.13166876  0.50913734  0.01137126  1
  O  O406  1  0.11164710  0.50742360  0.50487215  1
  O  O407  1  0.62931897  0.00805821  0.00862704  1
  O  O408  1  0.61719576  0.00546241  0.50462100  1
  O  O409  1  0.61736902  0.50937602  -0.02999211  1
  O  O410  1  0.63094853  0.50499762  0.51908211  1
  O  O411  1  0.37754309  0.37892726  0.11506595  1
  O  O412  1  0.37064082  0.36977825  0.61747696  1
  O  O413  1  0.36278941  0.87795874  0.11796824  1
  O  O414  1  0.36854950  0.86836771  0.61849895  1
  O  O415  1  0.88906731  0.35913299  0.10063501  1
  O  O416  1  0.87104807  0.36937331  0.62032535  1
  O  O417  1  0.86511540  0.88877045  0.11724189  1
  O  O418  1  0.87921485  0.86080419  0.62439431  1
  O  O419  1  0.12977382  0.12832775  0.37855353  1
  O  O420  1  0.13713402  0.11169061  0.87698721  1
  O  O421  1  0.12988462  0.62759466  0.37776727  1
  O  O422  1  0.13025159  0.63038644  0.88834989  1
  O  O423  1  0.63324211  0.11941601  0.38765768  1
  O  O424  1  0.63017824  0.11509608  0.88524119  1
  O  O425  1  0.65302755  0.60589257  0.37366948  1
  O  O426  1  0.63047584  0.64322024  0.86466411  1
