# generated using pymatgen
data_V85Zn86O256
_symmetry_space_group_name_H-M   'P 1'
_cell_length_a   16.94314397
_cell_length_b   16.95076247
_cell_length_c   16.92929997
_cell_angle_alpha   89.99751216
_cell_angle_beta   89.91973745
_cell_angle_gamma   90.04752397
_symmetry_Int_Tables_number   1
_chemical_formula_structural   V85Zn86O256
_chemical_formula_sum   'V85 Zn86 O256'
_cell_volume   4862.07511033
_cell_formula_units_Z   1
loop_
 _symmetry_equiv_pos_site_id
 _symmetry_equiv_pos_as_xyz
  1  'x, y, z'
loop_
 _atom_site_type_symbol
 _atom_site_label
 _atom_site_symmetry_multiplicity
 _atom_site_fract_x
 _atom_site_fract_y
 _atom_site_fract_z
 _atom_site_occupancy
  V  V0  1  0.75188820  0.37143732  0.61524607  1
  V  V1  1  0.62309830  0.74603278  0.37805439  1
  V  V2  1  0.37046504  0.25061007  0.62393682  1
  V  V3  1  0.12993536  0.86986834  0.74432718  1
  V  V4  1  0.24392520  0.12818543  0.37914183  1
  V  V5  1  0.00080718  0.75138075  0.25417867  1
  V  V6  1  0.37467266  0.12614072  0.25445660  1
  V  V7  1  0.88066721  0.62150370  0.74721932  1
  V  V8  1  0.74519793  0.62195834  0.37802634  1
  V  V9  1  0.11804301  0.25889698  0.37536576  1
  V  V10  1  0.01073216  0.49865678  0.00041087  1
  V  V11  1  0.62797528  0.36882139  0.74574468  1
  V  V12  1  0.87434781  0.87742009  0.49932352  1
  V  V13  1  -0.00261285  0.88573130  0.37705803  1
  V  V14  1  0.00685907  0.74356367  0.75127649  1
  V  V15  1  0.49517361  0.62570741  0.12195964  1
  V  V16  1  0.24727755  0.24987359  -0.00066445  1
  V  V17  1  0.62576992  0.00546942  0.12421270  1
  V  V18  1  0.25007138  0.87461779  0.11624670  1
  V  V19  1  0.49958531  0.49794945  -0.00376687  1
  V  V20  1  0.74798897  0.12632047  0.86963904  1
  V  V21  1  0.74819531  -0.00201317  0.75199376  1
  V  V22  1  0.62283124  -0.00188476  0.62298885  1
  V  V23  1  0.37790566  0.25200209  0.12571078  1
  V  V24  1  0.62003322  0.87285437  0.75349923  1
  V  V25  1  0.37564258  0.37781305  -0.00355898  1
  V  V26  1  0.75612438  0.00072875  0.26647811  1
  V  V27  1  0.37571528  0.49637368  0.36992032  1
  V  V28  1  0.11702113  0.49773631  0.63715709  1
  V  V29  1  0.61797084  0.37450918  0.25560251  1
  V  V30  1  0.75000503  0.50083185  0.24629814  1
  V  V31  1  0.74463086  0.74473159  0.50318661  1
  V  V32  1  0.12479177  0.87602436  0.25157710  1
  V  V33  1  0.49738013  0.25419598  0.26528924  1
  V  V34  1  0.50042695  0.24992046  0.74902199  1
  V  V35  1  0.36804400  0.62379084  0.24357936  1
  V  V36  1  0.87421284  0.12559719  0.26363090  1
  V  V37  1  0.25598709  0.76135343  0.50053431  1
  V  V38  1  0.49078870  0.87503292  0.38161272  1
  V  V39  1  0.62618983  0.50674220  0.61843882  1
  V  V40  1  0.37841302  -0.00593018  0.88946507  1
  V  V41  1  0.87464893  0.75199639  0.12561509  1
  V  V42  1  0.49931628  0.37886463  0.87310462  1
  V  V43  1  0.88251213  0.74534240  0.62435883  1
  V  V44  1  0.49712358  0.12105772  0.62156618  1
  V  V45  1  0.00451476  0.27005229  0.75350501  1
  V  V46  1  0.75282045  0.49719229  0.74892931  1
  V  V47  1  0.62569351  0.87650015  0.25303368  1
  V  V48  1  0.75354720  0.62263145  0.87433251  1
  V  V49  1  0.88013515  0.48560451  0.88275809  1
  V  V50  1  0.76143081  0.24867121  0.00354720  1
  V  V51  1  0.76016157  0.36887214  0.12136026  1
  V  V52  1  0.24571116  0.62709970  0.86541473  1
  V  V53  1  0.13041135  0.37927449  0.24655409  1
  V  V54  1  0.61878932  0.12403297  0.00074919  1
  V  V55  1  0.88012675  0.37215782  0.49057659  1
  V  V56  1  0.36690321  0.75283593  0.63241586  1
  V  V57  1  0.27020156  0.49540381  0.75252512  1
  V  V58  1  0.49506809  0.73898853  0.75173130  1
  V  V59  1  0.37658627  0.37723276  0.49810048  1
  V  V60  1  0.13491238  0.51049784  0.12804347  1
  V  V61  1  0.12259180  0.62591292  0.50619027  1
  V  V62  1  -0.00320214  0.25903422  0.24352244  1
  V  V63  1  0.25299257  -0.00646785  0.74417672  1
  V  V64  1  0.49505643  0.74935824  0.24845732  1
  V  V65  1  0.00666726  0.86961965  0.87472202  1
  V  V66  1  0.87611307  -0.00127784  0.87466426  1
  V  V67  1  -0.01150548  0.13382775  0.12306330  1
  V  V68  1  0.75402141  0.75019982  -0.00151707  1
  V  V69  1  0.37268460  0.12183011  0.75279590  1
  V  V70  1  0.62502965  0.49736682  0.12296736  1
  V  V71  1  0.88254144  0.24605833  0.62046480  1
  V  V72  1  0.24837296  0.00048768  0.25062688  1
  V  V73  1  0.22903032  0.74228217  -0.00140082  1
  V  V74  1  0.24812127  0.61977747  0.37525745  1
  V  V75  1  -0.00142348  0.00105564  -0.00093726  1
  V  V76  1  0.62483188  0.62215895  -0.00094921  1
  V  V77  1  0.87662570  0.62394162  0.25063047  1
  V  V78  1  0.62291636  0.74800136  0.87454148  1
  V  V79  1  0.88953936  0.12292668  0.74601052  1
  V  V80  1  0.50237915  0.50651336  0.49370695  1
  V  V81  1  0.12295150  0.00532739  0.12363590  1
  V  V82  1  0.41598104  0.80891569  0.06438170  1
  V  V83  1  0.00319469  0.50218530  0.49244682  1
  V  V84  1  0.11645322  0.00611646  0.62527289  1
  Zn  Zn85  1  0.63485298  0.12859328  0.48741567  1
  Zn  Zn86  1  0.88094765  0.49648785  0.36968509  1
  Zn  Zn87  1  0.24501700  0.37504031  0.62903356  1
  Zn  Zn88  1  0.12520736  0.75019518  0.37947210  1
  Zn  Zn89  1  0.87536724  0.87548124  -0.00144447  1
  Zn  Zn90  1  0.74893558  0.86939466  0.62821409  1
  Zn  Zn91  1  0.24777054  0.12417179  0.87721966  1
  Zn  Zn92  1  0.11565204  0.13502731  0.50706311  1
  Zn  Zn93  1  0.62669249  0.25087441  0.87776679  1
  Zn  Zn94  1  0.24660618  0.25491586  0.49989279  1
  Zn  Zn95  1  -0.00861913  0.01088687  0.50308041  1
  Zn  Zn96  1  0.00735231  0.63173639  0.11733039  1
  Zn  Zn97  1  0.36596271  -0.00630796  0.38295109  1
  Zn  Zn98  1  0.25358794  0.38221474  0.12564732  1
  Zn  Zn99  1  0.65348618  0.25017788  0.39113825  1
  Zn  Zn100  1  0.48903676  -0.00899246  0.50679354  1
  Zn  Zn101  1  0.49311371  0.62273458  0.62438317  1
  Zn  Zn102  1  0.12598901  0.25860869  0.86458762  1
  Zn  Zn103  1  0.50144136  0.12297108  0.12599594  1
  Zn  Zn104  1  0.49441581  0.87354825  0.88788817  1
  Zn  Zn105  1  0.75299218  0.87762855  0.12695496  1
  Zn  Zn106  1  0.12389186  0.12738327  -0.00471531  1
  Zn  Zn107  1  0.18672554  0.19154246  0.18552455  1
  Zn  Zn108  1  0.18671967  0.18640920  0.69088705  1
  Zn  Zn109  1  0.19147999  0.69224482  0.18661041  1
  Zn  Zn110  1  0.18922168  0.68250354  0.68559029  1
  Zn  Zn111  1  0.70026444  0.19973217  0.21829655  1
  Zn  Zn112  1  0.70048083  0.17578802  0.64966197  1
  Zn  Zn113  1  0.68656221  0.68756201  0.18762503  1
  Zn  Zn114  1  0.68946857  0.68559117  0.68848070  1
  Zn  Zn115  1  0.30774779  0.31429244  0.31270330  1
  Zn  Zn116  1  0.31269882  0.31416892  0.81372492  1
  Zn  Zn117  1  0.30972324  0.80643205  0.30868102  1
  Zn  Zn118  1  0.31091567  0.81086428  0.81871361  1
  Zn  Zn119  1  0.81730093  0.31598691  0.30529600  1
  Zn  Zn120  1  0.81354366  0.30721953  0.80750550  1
  Zn  Zn121  1  0.81225873  0.81301221  0.31679538  1
  Zn  Zn122  1  0.81548602  0.81165338  0.81212574  1
  Zn  Zn123  1  0.18924652  0.43736012  0.43826584  1
  Zn  Zn124  1  0.18755750  0.43693774  0.92959501  1
  Zn  Zn125  1  0.18251461  0.93953227  0.43827851  1
  Zn  Zn126  1  0.18877350  0.93858893  0.93423242  1
  Zn  Zn127  1  0.68965500  0.43740690  0.43582254  1
  Zn  Zn128  1  0.69115392  0.43319258  0.93618963  1
  Zn  Zn129  1  0.68415140  0.93320890  0.44171977  1
  Zn  Zn130  1  0.68500194  0.93743357  0.93842643  1
  Zn  Zn131  1  0.31205480  0.06649009  0.06542923  1
  Zn  Zn132  1  0.30774736  0.05784806  0.56101396  1
  Zn  Zn133  1  0.31398419  0.56633704  0.05177673  1
  Zn  Zn134  1  0.31019708  0.56667984  0.56591097  1
  Zn  Zn135  1  0.80826692  0.06259778  0.06428945  1
  Zn  Zn136  1  0.81152267  0.05893970  0.56363645  1
  Zn  Zn137  1  0.81520420  0.56403111  0.06323508  1
  Zn  Zn138  1  0.81600710  0.55992756  0.56135891  1
  Zn  Zn139  1  0.43749136  0.43916481  0.18639536  1
  Zn  Zn140  1  0.44085250  0.43583789  0.68134104  1
  Zn  Zn141  1  0.44084094  0.94488204  0.19586819  1
  Zn  Zn142  1  0.43561078  0.92980441  0.68989082  1
  Zn  Zn143  1  0.94503871  0.43987253  0.17793021  1
  Zn  Zn144  1  0.93872363  0.44073931  0.68049372  1
  Zn  Zn145  1  0.93554777  0.93995356  0.18814675  1
  Zn  Zn146  1  0.93760532  0.93178995  0.68809367  1
  Zn  Zn147  1  0.06088205  0.06799665  0.31285445  1
  Zn  Zn148  1  0.06871188  0.06345568  0.81565034  1
  Zn  Zn149  1  0.06549633  0.56380419  0.31099715  1
  Zn  Zn150  1  0.06464982  0.56419091  0.82172113  1
  Zn  Zn151  1  0.56397044  0.06338055  0.31514735  1
  Zn  Zn152  1  0.55827924  0.06040147  0.81377331  1
  Zn  Zn153  1  0.55956303  0.56163988  0.31094758  1
  Zn  Zn154  1  0.56549020  0.55781822  0.80926670  1
  Zn  Zn155  1  0.43911654  0.18413402  0.43987523  1
  Zn  Zn156  1  0.43743610  0.18904508  0.93539854  1
  Zn  Zn157  1  0.43331536  0.68514509  0.43858866  1
  Zn  Zn158  1  0.43078628  0.67799677  0.92759434  1
  Zn  Zn159  1  0.94148914  0.18989856  0.43580303  1
  Zn  Zn160  1  0.93877591  0.18748633  0.93266916  1
  Zn  Zn161  1  0.93756408  0.68754962  0.43671582  1
  Zn  Zn162  1  0.94189382  0.68308587  0.93495767  1
  Zn  Zn163  1  0.07683577  0.33460166  0.03175178  1
  Zn  Zn164  1  0.05965689  0.31722838  0.56334556  1
  Zn  Zn165  1  0.06021677  0.81770494  0.06566592  1
  Zn  Zn166  1  0.06385190  0.81392945  0.56473119  1
  Zn  Zn167  1  0.56730224  0.30744299  0.06575211  1
  Zn  Zn168  1  0.55903528  0.31436062  0.55478280  1
  Zn  Zn169  1  0.57933651  0.81224919  0.06581154  1
  Zn  Zn170  1  0.55941133  0.80763902  0.56667353  1
  O  O171  1  0.11730217  0.11271596  0.12944404  1
  O  O172  1  0.12867186  0.10987321  0.62684630  1
  O  O173  1  0.12504114  0.61483972  0.13376924  1
  O  O174  1  0.12916985  0.61158940  0.61568914  1
  O  O175  1  0.62760843  0.11871706  0.11744632  1
  O  O176  1  0.60666140  0.10858903  0.64616103  1
  O  O177  1  0.61797807  0.61964745  0.11850107  1
  O  O178  1  0.62737141  0.60903939  0.62897784  1
  O  O179  1  0.36635201  0.38890543  0.38020899  1
  O  O180  1  0.38765429  0.36961966  0.88398970  1
  O  O181  1  0.38837495  0.87162630  0.36650902  1
  O  O182  1  0.37561304  0.88890108  0.87474437  1
  O  O183  1  0.87066424  0.37705457  0.38638944  1
  O  O184  1  0.86929381  0.38816512  0.87075564  1
  O  O185  1  0.88397687  0.86748500  0.38754473  1
  O  O186  1  0.88646412  0.88126011  0.87341714  1
  O  O187  1  0.24442505  0.00849653  0.36777516  1
  O  O188  1  0.26005079  0.00143171  0.86482562  1
  O  O189  1  0.25751133  0.51313843  0.37915244  1
  O  O190  1  0.24520663  0.50427151  0.85742313  1
  O  O191  1  0.74372704  -0.00206380  0.36538032  1
  O  O192  1  0.75480299  0.00515129  0.87076955  1
  O  O193  1  0.75403520  0.50797451  0.36642600  1
  O  O194  1  0.75898739  0.50295564  0.86864975  1
  O  O195  1  0.23786557  0.50346385  0.11760413  1
  O  O196  1  0.24225385  0.50283045  0.64069768  1
  O  O197  1  0.24255790  0.99513938  0.12941817  1
  O  O198  1  0.24134675  1.00065941  0.63869199  1
  O  O199  1  0.74292562  0.49520203  0.12570465  1
  O  O200  1  0.74659965  0.49103463  0.62876144  1
  O  O201  1  0.74012196  0.99459936  0.13280967  1
  O  O202  1  0.73916362  0.98990375  0.63727307  1
  O  O203  1  0.01019433  0.36626839  0.23926644  1
  O  O204  1  -0.00406383  0.36835792  0.75014491  1
  O  O205  1  0.00228177  0.87009300  0.25666547  1
  O  O206  1  0.00560105  0.86317091  0.75606546  1
  O  O207  1  0.50676248  0.36939401  0.24652777  1
  O  O208  1  0.50707332  0.37146779  0.75424202  1
  O  O209  1  0.50750121  0.86833600  0.25771098  1
  O  O210  1  0.50999339  0.86165185  0.75405068  1
  O  O211  1  0.48871779  0.13417798  0.25061697  1
  O  O212  1  0.48755528  0.12889400  0.74604144  1
  O  O213  1  0.49509299  0.63140860  0.24038024  1
  O  O214  1  0.50480542  0.63540985  0.75131018  1
  O  O215  1  0.99141777  0.12958117  0.24266611  1
  O  O216  1  0.99021621  0.12259068  0.75157067  1
  O  O217  1  0.99176038  0.63511315  0.25062747  1
  O  O218  1  0.99455756  0.63456834  0.75773870  1
  O  O219  1  0.37021059  0.25636514  0.00644328  1
  O  O220  1  0.37420537  0.25740455  0.50729370  1
  O  O221  1  0.36481674  0.74941867  -0.00031887  1
  O  O222  1  0.36084566  0.74777489  0.50549056  1
  O  O223  1  0.86097310  0.24097677  -0.00180081  1
  O  O224  1  0.88157898  0.26326695  0.50547206  1
  O  O225  1  0.87006209  0.74875810  0.00739873  1
  O  O226  1  0.86889482  0.75310045  0.50822440  1
  O  O227  1  0.12529756  0.25578937  0.49083855  1
  O  O228  1  0.14571082  0.24207376  1.02595295  1
  O  O229  1  0.13472985  0.74315093  0.50386872  1
  O  O230  1  0.13045809  0.75349534  1.00116493  1
  O  O231  1  0.62773529  0.24905170  0.50110389  1
  O  O232  1  0.63621646  0.23982956  0.99916088  1
  O  O233  1  0.63809657  0.75114823  0.49900967  1
  O  O234  1  0.63450448  0.74200374  0.99428492  1
  O  O235  1  0.48711676  0.24713138  0.12770855  1
  O  O236  1  0.48838890  0.24268039  0.63069752  1
  O  O237  1  0.49095193  0.74985352  0.12414661  1
  O  O238  1  0.49324386  0.74296309  0.63425990  1
  O  O239  1  1.00779585  0.23665243  0.13066092  1
  O  O240  1  0.98920173  0.25736029  0.63551475  1
  O  O241  1  0.99284676  0.75051270  0.13514718  1
  O  O242  1  0.98939680  0.75128916  0.63339457  1
  O  O243  1  0.01207621  0.25007262  0.36070569  1
  O  O244  1  -0.00371359  0.24856326  0.85564088  1
  O  O245  1  0.00031998  0.75681543  0.36444648  1
  O  O246  1  -0.00428703  0.75867143  0.86581557  1
  O  O247  1  0.49062151  0.25590145  0.36518721  1
  O  O248  1  0.50453239  0.25915941  0.86666790  1
  O  O249  1  0.50456316  0.75524910  0.37168995  1
  O  O250  1  0.50238739  0.74875420  0.87003394  1
  O  O251  1  0.24235900  0.12851923  0.48796772  1
  O  O252  1  0.25119745  0.13478211  0.99817504  1
  O  O253  1  0.23997326  0.63071388  0.49357575  1
  O  O254  1  0.24158987  0.64082917  1.00499629  1
  O  O255  1  0.73055097  0.12945809  0.54641353  1
  O  O256  1  0.74374715  0.12886661  0.98876997  1
  O  O257  1  0.75776621  0.63085987  0.48890879  1
  O  O258  1  0.74709324  0.63443438  0.99624983  1
  O  O259  1  0.26298119  0.36945464  0.00201386  1
  O  O260  1  0.26272021  0.37620394  0.50557592  1
  O  O261  1  0.24483879  0.86822416  0.00933734  1
  O  O262  1  0.24542594  0.85923720  0.49301450  1
  O  O263  1  0.74467593  0.36513002  0.01228774  1
  O  O264  1  0.76482624  0.38244060  0.50583107  1
  O  O265  1  0.75111298  0.86094008  -0.00044218  1
  O  O266  1  0.75695480  0.86307172  0.50145423  1
  O  O267  1  0.12028389  0.49439768  0.23695498  1
  O  O268  1  0.11920980  0.50352131  0.73807169  1
  O  O269  1  0.12845568  0.99540224  0.24334176  1
  O  O270  1  0.13172439  0.99339282  0.74295757  1
  O  O271  1  0.62792068  0.49438050  0.24231644  1
  O  O272  1  0.63086686  0.48766438  0.74093159  1
  O  O273  1  0.63512237  0.99338226  0.24829063  1
  O  O274  1  0.62642776  0.98853137  0.74855810  1
  O  O275  1  0.36672054  0.01016143  0.25701914  1
  O  O276  1  0.36906945  0.00452489  0.75178617  1
  O  O277  1  0.38017728  0.51086272  0.25770323  1
  O  O278  1  0.36865883  0.50054863  0.74599125  1
  O  O279  1  0.86315209  0.00187685  0.25275472  1
  O  O280  1  0.86874456  0.00437030  0.75211909  1
  O  O281  1  0.87302232  0.50933686  0.24821019  1
  O  O282  1  0.87529285  0.50561955  0.75683117  1
  O  O283  1  0.13004015  0.37009109  0.36351062  1
  O  O284  1  0.11297248  0.35640840  0.92055251  1
  O  O285  1  0.11640712  0.87105085  0.36927187  1
  O  O286  1  0.11304152  0.88185330  0.86276672  1
  O  O287  1  0.63343379  0.37230102  0.35861574  1
  O  O288  1  0.62099421  0.37258682  0.86404437  1
  O  O289  1  0.61797223  0.86733045  0.36697326  1
  O  O290  1  0.61806802  0.86675602  0.87258813  1
  O  O291  1  0.37658819  0.13059891  0.13826420  1
  O  O292  1  0.37889850  0.12997254  0.63228687  1
  O  O293  1  0.38097699  0.61785598  0.13269207  1
  O  O294  1  0.37672095  0.64316594  0.61986525  1
  O  O295  1  0.88533433  0.11649379  0.13358396  1
  O  O296  1  0.87183754  0.13550337  0.63439210  1
  O  O297  1  0.87373153  0.63664394  0.13603983  1
  O  O298  1  0.87183451  0.62874348  0.63847888  1
  O  O299  1  0.26587728  0.25112446  0.12223232  1
  O  O300  1  0.25989026  0.25023120  0.62497732  1
  O  O301  1  0.24755823  0.76102786  0.11174566  1
  O  O302  1  0.25784011  0.74852658  0.61565699  1
  O  O303  1  0.74694969  0.26271564  0.12143040  1
  O  O304  1  0.76807108  0.26777638  0.63618335  1
  O  O305  1  0.75662809  0.75182029  0.11752517  1
  O  O306  1  0.75933380  0.74741510  0.61889106  1
  O  O307  1  0.23825358  0.24431350  0.37506274  1
  O  O308  1  0.24991340  0.24921985  0.88574262  1
  O  O309  1  0.25039845  0.74056454  0.38635770  1
  O  O310  1  0.24871183  0.74018136  0.88651797  1
  O  O311  1  0.74086654  0.23926924  0.32145021  1
  O  O312  1  0.74888452  0.24130105  0.87958547  1
  O  O313  1  0.74368150  0.74252091  0.38257067  1
  O  O314  1  0.74731272  0.74345177  0.88144983  1
  O  O315  1  0.00028459  0.11995854  0.00698086  1
  O  O316  1  0.00398399  0.12204179  0.49683203  1
  O  O317  1  -0.01033268  0.60779214  0.00372473  1
  O  O318  1  0.01328752  0.62192442  0.49512717  1
  O  O319  1  0.51483679  0.13102376  0.00043982  1
  O  O320  1  0.50162832  0.12249448  0.51559758  1
  O  O321  1  0.50372318  0.61896977  0.00231313  1
  O  O322  1  0.49826651  0.61133857  0.49982243  1
  O  O323  1  0.48426289  0.38806058  0.50547638  1
  O  O324  1  0.49854839  0.37596665  0.99155415  1
  O  O325  1  0.50532059  0.87019234  0.48442861  1
  O  O326  1  0.48962102  0.85938309  1.00869769  1
  O  O327  1  0.98753546  0.38513845  0.50084211  1
  O  O328  1  0.98409994  0.40224191  1.01839947  1
  O  O329  1  0.99256868  0.87374580  0.49283636  1
  O  O330  1  0.99857748  0.88112878  0.99145041  1
  O  O331  1  0.48960395  0.50274237  0.38077077  1
  O  O332  1  0.50653264  0.48683746  0.87905631  1
  O  O333  1  0.49988834  0.98151638  0.37306707  1
  O  O334  1  0.48362934  0.99532519  0.87324763  1
  O  O335  1  0.99931294  0.50585276  0.38667225  1
  O  O336  1  0.99023017  0.50133708  0.88697202  1
  O  O337  1  1.00473797  0.98824707  0.37713119  1
  O  O338  1  0.99594081  0.99413338  0.88043878  1
  O  O339  1  0.00609829  0.00352800  0.11815622  1
  O  O340  1  0.01325564  -0.00421466  0.62820247  1
  O  O341  1  0.01171140  0.51139762  0.11801230  1
  O  O342  1  0.01130240  0.50140797  0.61366817  1
  O  O343  1  0.51856723  0.00332879  0.13575779  1
  O  O344  1  0.50336424  0.00329796  0.62831388  1
  O  O345  1  0.50835625  0.50453969  0.11652598  1
  O  O346  1  0.50947034  0.50306441  0.61721727  1
  O  O347  1  0.23609652  0.37241914  0.24352205  1
  O  O348  1  0.25461531  0.38989972  0.74860724  1
  O  O349  1  0.24499743  0.87737518  0.23955933  1
  O  O350  1  0.24079452  0.87991598  0.75638587  1
  O  O351  1  0.74273977  0.38491408  0.23607074  1
  O  O352  1  0.74473244  0.37982114  0.74298759  1
  O  O353  1  0.74420716  0.88325497  0.25287599  1
  O  O354  1  0.73654466  0.87618053  0.75411050  1
  O  O355  1  0.25427859  0.12238349  0.25803428  1
  O  O356  1  0.26124266  0.11805747  0.75199091  1
  O  O357  1  0.25878915  0.63280761  0.25947980  1
  O  O358  1  0.25062581  0.61667882  0.75853025  1
  O  O359  1  0.76197676  0.10522603  0.24013052  1
  O  O360  1  0.75423681  0.12003213  0.75898737  1
  O  O361  1  0.75642214  0.62037041  0.25395122  1
  O  O362  1  0.75813402  0.61684979  0.75495865  1
  O  O363  1  0.36440980  0.12923430  0.36606687  1
  O  O364  1  0.37528957  0.11472812  0.86787703  1
  O  O365  1  0.36815479  0.61610608  0.36820361  1
  O  O366  1  0.34526006  0.61388608  0.89429582  1
  O  O367  1  0.87709295  0.12612317  0.36323681  1
  O  O368  1  0.86733631  0.11762589  0.86591757  1
  O  O369  1  0.86543469  0.62757157  0.36312974  1
  O  O370  1  0.86991439  0.61896091  0.86325524  1
  O  O371  1  0.12903579  0.39074272  0.12838263  1
  O  O372  1  0.12827298  0.39406765  0.61827628  1
  O  O373  1  0.13079506  0.88684516  0.13022983  1
  O  O374  1  0.12189475  0.88420703  0.63841870  1
  O  O375  1  0.63068349  0.38323445  0.13043589  1
  O  O376  1  0.63404940  0.38202814  0.62794240  1
  O  O377  1  0.62962558  0.88052074  0.14001086  1
  O  O378  1  0.62313242  0.87955098  0.63586668  1
  O  O379  1  0.11768391  0.25894747  0.25203905  1
  O  O380  1  0.10945792  0.25241597  0.74513390  1
  O  O381  1  0.11596352  0.75764603  0.25011893  1
  O  O382  1  0.11719577  0.75483849  0.74193302  1
  O  O383  1  0.60506830  0.26238212  0.23560177  1
  O  O384  1  0.62120326  0.26179997  0.74404639  1
  O  O385  1  0.61876530  0.75767283  0.25382886  1
  O  O386  1  0.61947970  0.75344850  0.75572014  1
  O  O387  1  0.37873506  0.24734906  0.24460110  1
  O  O388  1  0.37827432  0.24215568  0.74433441  1
  O  O389  1  0.38192595  0.73543309  0.25277232  1
  O  O390  1  0.37997512  0.75154009  0.74324482  1
  O  O391  1  0.89040310  0.24242617  0.24806739  1
  O  O392  1  0.88579407  0.24238791  0.74265966  1
  O  O393  1  0.87945601  0.74621640  0.24426897  1
  O  O394  1  0.88164122  0.74152136  0.74361053  1
  O  O395  1  0.37959954  0.49629721  0.49380258  1
  O  O396  1  0.38395078  0.48549510  1.00588371  1
  O  O397  1  0.37698841  1.00350528  0.49430801  1
  O  O398  1  0.37077426  1.00331361  0.98813928  1
  O  O399  1  0.88507780  0.49290005  0.49745839  1
  O  O400  1  0.87126231  0.50330421  0.98405957  1
  O  O401  1  0.87502539  0.98232294  0.51163131  1
  O  O402  1  0.87944470  0.99780077  0.99386436  1
  O  O403  1  0.11946021  0.00268797  0.00748537  1
  O  O404  1  0.12462305  -0.00327576  0.51871827  1
  O  O405  1  0.11689011  0.50113108  0.01044092  1
  O  O406  1  0.12024510  0.50733137  0.50436951  1
  O  O407  1  0.63109546  0.00904279  0.01047080  1
  O  O408  1  0.61939517  -0.00328957  0.51511140  1
  O  O409  1  0.62167789  0.50433896  0.00281542  1
  O  O410  1  0.61601097  0.49160582  0.50614201  1
  O  O411  1  0.37535919  0.36843622  0.11737011  1
  O  O412  1  0.37288039  0.36561104  0.61867741  1
  O  O413  1  0.36747614  0.87940967  0.12846169  1
  O  O414  1  0.38369357  0.85289482  0.62262182  1
  O  O415  1  0.85796369  0.38108760  0.12915886  1
  O  O416  1  0.87020189  0.37240270  0.61342910  1
  O  O417  1  0.87403397  0.86314562  0.12344927  1
  O  O418  1  0.87178937  0.86153743  0.62123362  1
  O  O419  1  0.13126889  0.13704524  0.37236490  1
  O  O420  1  0.12897739  0.13615469  0.87794601  1
  O  O421  1  0.13349861  0.62860455  0.38047959  1
  O  O422  1  0.14407262  0.61914192  0.88098012  1
  O  O423  1  0.61386931  0.13817895  0.37752776  1
  O  O424  1  0.63212282  0.12417296  0.87955380  1
  O  O425  1  0.63739147  0.62994565  0.36705138  1
  O  O426  1  0.63324428  0.62774841  0.87942742  1
