# generated using pymatgen
data_V85Zn86O256
_symmetry_space_group_name_H-M   'P 1'
_cell_length_a   16.96554725
_cell_length_b   16.97201964
_cell_length_c   16.94969213
_cell_angle_alpha   89.92775342
_cell_angle_beta   90.05484143
_cell_angle_gamma   89.97695065
_symmetry_Int_Tables_number   1
_chemical_formula_structural   V85Zn86O256
_chemical_formula_sum   'V85 Zn86 O256'
_cell_volume   4880.48107865
_cell_formula_units_Z   1
loop_
 _symmetry_equiv_pos_site_id
 _symmetry_equiv_pos_as_xyz
  1  'x, y, z'
loop_
 _atom_site_type_symbol
 _atom_site_label
 _atom_site_symmetry_multiplicity
 _atom_site_fract_x
 _atom_site_fract_y
 _atom_site_fract_z
 _atom_site_occupancy
  V  V0  1  0.12588529  0.49626954  0.12478051  1
  V  V1  1  0.75257878  0.74941287  0.49575134  1
  V  V2  1  0.87663165  0.87299763  0.00654674  1
  V  V3  1  0.37587491  0.13062853  0.23775634  1
  V  V4  1  0.74143245  0.87002753  0.62684958  1
  V  V5  1  0.49814455  0.37514177  0.88167054  1
  V  V6  1  0.75464816  0.62803538  0.37351257  1
  V  V7  1  0.62249605  0.62192115  -0.00458786  1
  V  V8  1  -0.00276410  0.50356180  0.00584658  1
  V  V9  1  0.49581198  0.62850116  0.62967259  1
  V  V10  1  0.37556700  0.24869490  0.62424929  1
  V  V11  1  0.74232146  -0.00260284  0.74914913  1
  V  V12  1  0.75030309  0.11644216  0.38442170  1
  V  V13  1  0.11625316  0.49851261  0.62617131  1
  V  V14  1  -0.00171162  0.74800735  0.23755349  1
  V  V15  1  0.10540428  0.12640417  0.50519724  1
  V  V16  1  0.24869198  0.37306537  0.62587688  1
  V  V17  1  0.60255130  0.64581805  0.47429423  1
  V  V18  1  0.86934145  0.37306755  0.00245192  1
  V  V19  1  0.25299384  0.74969205  0.00605538  1
  V  V20  1  0.62860050  0.24905028  0.88254022  1
  V  V21  1  0.37634261  0.12497096  0.75164105  1
  V  V22  1  0.24928624  0.00163499  0.74415363  1
  V  V23  1  0.87917913  0.88605775  0.49672794  1
  V  V24  1  0.24637721  0.13984599  0.87823007  1
  V  V25  1  0.37883561  0.87414680  -0.00233064  1
  V  V26  1  0.00168202  0.12891751  0.13578513  1
  V  V27  1  0.87766767  0.12237483  0.74574990  1
  V  V28  1  0.62660051  0.75332965  0.86722218  1
  V  V29  1  0.49604499  0.50149652  0.00747429  1
  V  V30  1  0.50286713  0.24875850  0.75336453  1
  V  V31  1  0.87828399  0.25487849  0.13835810  1
  V  V32  1  0.62474914  0.37746913  0.75131653  1
  V  V33  1  -0.00175376  0.50546257  0.50103202  1
  V  V34  1  0.52416843  0.12801645  0.12079511  1
  V  V35  1  0.75043603  0.62591269  0.87132493  1
  V  V36  1  -0.00219648  0.75031817  0.75084204  1
  V  V37  1  0.74960229  0.37465705  0.62161565  1
  V  V38  1  0.63303605  0.49055947  0.12340625  1
  V  V39  1  0.75359880  0.74939399  0.00498302  1
  V  V40  1  0.00250128  0.24520520  0.75748226  1
  V  V41  1  0.25275985  0.50235428  0.75029855  1
  V  V42  1  0.50710372  0.12407895  0.62505127  1
  V  V43  1  0.37183069  0.49635725  0.37376388  1
  V  V44  1  0.12571880  0.14434197  -0.00236542  1
  V  V45  1  0.62374382  0.50585565  0.62305828  1
  V  V46  1  0.33099852  0.68509518  0.69278749  1
  V  V47  1  0.10991758  0.00628629  0.62565640  1
  V  V48  1  0.87654274  -0.00025779  0.87599495  1
  V  V49  1  0.50046586  0.74538967  0.74730994  1
  V  V50  1  0.12072830  0.62726928  0.00531889  1
  V  V51  1  0.12094038  0.24768417  0.36710269  1
  V  V52  1  0.24730824  0.49037444  0.24446134  1
  V  V53  1  0.25248147  0.12596904  0.38171733  1
  V  V54  1  0.50185030  0.87714785  0.86549381  1
  V  V55  1  0.37567396  0.50074657  0.87533024  1
  V  V56  1  0.12441180  0.37012645  0.75833994  1
  V  V57  1  0.25514144  0.62805651  0.87708267  1
  V  V58  1  0.35983702  0.86855491  0.50352974  1
  V  V59  1  0.49860490  0.49691277  0.50137622  1
  V  V60  1  0.25297630  0.87391196  0.12385114  1
  V  V61  1  0.88384431  0.62274871  0.74676788  1
  V  V62  1  0.73955168  0.88241671  0.12898218  1
  V  V63  1  0.35982039  0.36029305  0.01795519  1
  V  V64  1  0.75191471  0.24180715  0.00631580  1
  V  V65  1  0.43237509  0.80443146  0.18032254  1
  V  V66  1  0.37320911  0.00277391  0.87560126  1
  V  V67  1  0.87688309  0.49825801  0.87520339  1
  V  V68  1  0.88025932  0.25014698  0.62575370  1
  V  V69  1  0.63319000  0.36940847  0.25333189  1
  V  V70  1  0.25383463  0.00257661  0.24776353  1
  V  V71  1  0.87965382  0.62951150  0.23663649  1
  V  V72  1  0.87599525  0.50089060  0.37227128  1
  V  V73  1  0.12653367  0.00186257  0.11782093  1
  V  V74  1  0.37067946  0.62144319  0.24116080  1
  V  V75  1  0.12232235  0.87823900  0.75115306  1
  V  V76  1  0.37769745  -0.00265188  0.37372351  1
  V  V77  1  0.12774722  0.63138726  0.50237999  1
  V  V78  1  -0.00037755  0.37070421  0.36864561  1
  V  V79  1  0.87865192  0.74471206  0.62112045  1
  V  V80  1  0.49595250  -0.00139537  0.49784964  1
  V  V81  1  0.75058623  0.50196654  0.74911324  1
  V  V82  1  0.62819328  0.00026991  0.61105593  1
  V  V83  1  0.12371701  0.87482042  0.25040838  1
  V  V84  1  0.52282116  0.64324649  0.15550481  1
  Zn  Zn85  1  0.24587461  0.24966454  0.50202662  1
  Zn  Zn86  1  0.12328758  0.75126638  0.87716453  1
  Zn  Zn87  1  0.87803339  0.11489717  0.26045704  1
  Zn  Zn88  1  0.12687456  0.74767902  0.37550893  1
  Zn  Zn89  1  0.52166905  0.00185450  0.01003742  1
  Zn  Zn90  1  0.12445491  0.36407134  0.24131416  1
  Zn  Zn91  1  0.49504435  0.25555101  0.24861245  1
  Zn  Zn92  1  0.74795700  0.00733538  0.24548011  1
  Zn  Zn93  1  0.24708055  0.86187236  0.62178777  1
  Zn  Zn94  1  0.75604346  0.49707404  0.24263703  1
  Zn  Zn95  1  0.87525244  0.37522544  0.49869903  1
  Zn  Zn96  1  0.62253447  0.24266069  0.39130170  1
  Zn  Zn97  1  0.57441865  0.77655721  0.31051886  1
  Zn  Zn98  1  0.37268628  0.37222441  0.49818311  1
  Zn  Zn99  1  0.50047920  0.37015406  0.37417442  1
  Zn  Zn100  1  -0.00954862  0.87996067  0.37275001  1
  Zn  Zn101  1  0.00388121  0.37095038  0.87992494  1
  Zn  Zn102  1  0.74927893  0.12294750  0.87876518  1
  Zn  Zn103  1  0.24827135  0.62428600  0.37609425  1
  Zn  Zn104  1  -0.00029787  0.87439126  0.87864417  1
  Zn  Zn105  1  0.00017563  0.00131490  -0.00020158  1
  Zn  Zn106  1  0.74647336  0.24254116  0.50384647  1
  Zn  Zn107  1  0.19928460  0.19459238  0.18288139  1
  Zn  Zn108  1  0.18567412  0.18667651  0.68824386  1
  Zn  Zn109  1  0.18722919  0.68528520  0.18764988  1
  Zn  Zn110  1  0.16640908  0.68391334  0.68587568  1
  Zn  Zn111  1  0.69701966  0.19141223  0.19477338  1
  Zn  Zn112  1  0.68895171  0.18637976  0.68929663  1
  Zn  Zn113  1  0.69546659  0.68481360  0.18497478  1
  Zn  Zn114  1  0.68530720  0.68676234  0.68243883  1
  Zn  Zn115  1  0.30931468  0.31094235  0.31175615  1
  Zn  Zn116  1  0.31688003  0.31724645  0.81395232  1
  Zn  Zn117  1  0.30156419  0.81413956  0.32250524  1
  Zn  Zn118  1  0.30622851  0.81833030  0.81779582  1
  Zn  Zn119  1  0.80680138  0.30895341  0.31864234  1
  Zn  Zn120  1  0.81346538  0.31245954  0.81340591  1
  Zn  Zn121  1  0.81396052  0.81381078  0.31190215  1
  Zn  Zn122  1  0.81409408  0.81500125  0.81300679  1
  Zn  Zn123  1  0.18525340  0.43640966  0.43685528  1
  Zn  Zn124  1  0.18813741  0.43976421  0.93948624  1
  Zn  Zn125  1  0.15988551  0.95228188  0.42691354  1
  Zn  Zn126  1  0.18984470  0.94040552  0.93467482  1
  Zn  Zn127  1  0.68607206  0.44189222  0.43705976  1
  Zn  Zn128  1  0.68916067  0.43371534  0.93920205  1
  Zn  Zn129  1  0.65989064  0.94885329  0.37956319  1
  Zn  Zn130  1  0.69125143  0.93479248  0.93658805  1
  Zn  Zn131  1  0.31143582  0.06433056  0.05764101  1
  Zn  Zn132  1  0.31062109  0.06141433  0.56262490  1
  Zn  Zn133  1  0.31484753  0.56147344  0.06680788  1
  Zn  Zn134  1  0.30613563  0.55376637  0.55813098  1
  Zn  Zn135  1  0.81632009  0.06222190  0.06957938  1
  Zn  Zn136  1  0.81516730  0.06336295  0.56307224  1
  Zn  Zn137  1  0.81165939  0.56390242  0.05973371  1
  Zn  Zn138  1  0.81162888  0.56475024  0.55963131  1
  Zn  Zn139  1  0.44440093  0.43840666  0.18749961  1
  Zn  Zn140  1  0.43606628  0.43768033  0.69018464  1
  Zn  Zn141  1  0.56798971  0.94455291  0.18869212  1
  Zn  Zn142  1  0.43676682  0.93324748  0.68235962  1
  Zn  Zn143  1  0.94045845  0.43823475  0.18737690  1
  Zn  Zn144  1  0.93876250  0.43261910  0.68927954  1
  Zn  Zn145  1  0.93637876  0.93871708  0.18565415  1
  Zn  Zn146  1  0.93152232  0.93296021  0.68578768  1
  Zn  Zn147  1  0.06196169  0.05756107  0.31320695  1
  Zn  Zn148  1  0.06065955  0.06509294  0.81583417  1
  Zn  Zn149  1  0.06099807  0.56380654  0.31218768  1
  Zn  Zn150  1  0.06448508  0.56066409  0.81879600  1
  Zn  Zn151  1  0.56257353  0.07366108  0.31267504  1
  Zn  Zn152  1  0.57833023  0.04912084  0.83668690  1
  Zn  Zn153  1  0.56511398  0.54994948  0.31358851  1
  Zn  Zn154  1  0.55927913  0.56317737  0.81194790  1
  Zn  Zn155  1  0.44053043  0.18659869  0.43805220  1
  Zn  Zn156  1  0.43984453  0.18729277  0.94468618  1
  Zn  Zn157  1  0.42645937  0.68406522  0.43503012  1
  Zn  Zn158  1  0.43813304  0.68778618  0.93949103  1
  Zn  Zn159  1  0.93003821  0.19073553  0.43670318  1
  Zn  Zn160  1  0.93806583  0.18526514  0.93873600  1
  Zn  Zn161  1  0.94535750  0.69120664  0.42936707  1
  Zn  Zn162  1  0.93698512  0.68798044  0.93685923  1
  Zn  Zn163  1  0.05799066  0.31525473  0.06395954  1
  Zn  Zn164  1  0.05863422  0.31349350  0.56058169  1
  Zn  Zn165  1  0.06296000  0.81321311  0.06398365  1
  Zn  Zn166  1  0.05919880  0.81433219  0.56871541  1
  Zn  Zn167  1  0.55932089  0.30949276  0.06723793  1
  Zn  Zn168  1  0.56247042  0.31400954  0.56411876  1
  Zn  Zn169  1  0.56755452  0.81309718  0.04866982  1
  Zn  Zn170  1  0.56334046  0.81886420  0.47647513  1
  O  O171  1  0.12186363  0.12140533  0.11479900  1
  O  O172  1  0.12369597  0.12248593  0.61417151  1
  O  O173  1  0.12880087  0.61605499  0.11064797  1
  O  O174  1  0.12057186  0.61032710  0.61506137  1
  O  O175  1  0.62303622  0.13060102  0.12716081  1
  O  O176  1  0.61688367  0.11457220  0.63155589  1
  O  O177  1  0.62474677  0.61521848  0.11286054  1
  O  O178  1  0.61162701  0.62002828  0.62121423  1
  O  O179  1  0.37510264  0.38482854  0.37610072  1
  O  O180  1  0.38172741  0.38270784  0.88409417  1
  O  O181  1  0.36643696  0.89211330  0.38111357  1
  O  O182  1  0.37986905  0.88237388  0.88051539  1
  O  O183  1  0.88081982  0.38296267  0.37551694  1
  O  O184  1  0.87657635  0.38339315  0.88204035  1
  O  O185  1  0.87234328  0.87336743  0.39148299  1
  O  O186  1  0.87483517  0.88250043  0.88540885  1
  O  O187  1  0.25102017  0.01121516  0.36746194  1
  O  O188  1  0.25908134  0.00620065  0.86528511  1
  O  O189  1  0.25569732  0.50228620  0.36833874  1
  O  O190  1  0.25381418  0.51007097  0.86966506  1
  O  O191  1  0.75183443  0.01180860  0.37759516  1
  O  O192  1  0.76286639  -0.00131082  0.86511123  1
  O  O193  1  0.76492125  0.50754675  0.37618213  1
  O  O194  1  0.75577499  0.50488385  0.86921353  1
  O  O195  1  0.23975530  0.50322737  0.13208454  1
  O  O196  1  0.24057118  0.49107547  0.63225591  1
  O  O197  1  0.24588143  0.99494859  0.12707438  1
  O  O198  1  0.24088268  1.00535919  0.63833519  1
  O  O199  1  0.73702846  0.50228428  0.12092781  1
  O  O200  1  0.74441883  0.49770265  0.63065607  1
  O  O201  1  0.74293260  0.98565061  0.11804957  1
  O  O202  1  0.74421080  0.99415873  0.62861720  1
  O  O203  1  0.00632997  0.38246064  0.26456895  1
  O  O204  1  0.00878694  0.36793980  0.75498163  1
  O  O205  1  0.00821801  0.86811795  0.24639388  1
  O  O206  1  0.00470214  0.86750968  0.75246105  1
  O  O207  1  0.51306330  0.37584401  0.25317554  1
  O  O208  1  0.50409990  0.36942456  0.75944062  1
  O  O209  1  0.49818664  0.85650285  0.23676576  1
  O  O210  1  0.49286098  0.86327014  0.75816591  1
  O  O211  1  0.48901779  0.12625038  0.23840596  1
  O  O212  1  0.49378302  0.13085756  0.74206914  1
  O  O213  1  0.48727092  0.60841714  0.24944772  1
  O  O214  1  0.49394762  0.63108160  0.74508962  1
  O  O215  1  1.00191352  0.12127420  0.23953835  1
  O  O216  1  0.99200561  0.13269662  0.75251858  1
  O  O217  1  0.99500216  0.63871082  0.25240828  1
  O  O218  1  0.98993525  0.62926348  0.75625560  1
  O  O219  1  0.37500728  0.26307703  -0.00172521  1
  O  O220  1  0.37410549  0.25148394  0.51415678  1
  O  O221  1  0.36722186  0.76463366  -0.00867015  1
  O  O222  1  0.37470599  0.77034952  0.48878571  1
  O  O223  1  0.87053286  0.25748428  0.00413946  1
  O  O224  1  0.87062636  0.25616143  0.51312754  1
  O  O225  1  0.86332134  0.75775023  -0.00917579  1
  O  O226  1  0.87015115  0.74217686  0.50775427  1
  O  O227  1  0.12421268  0.23859238  0.49781912  1
  O  O228  1  0.12114882  0.24255819  0.99860429  1
  O  O229  1  0.11726735  0.73336098  0.50832847  1
  O  O230  1  0.13136166  0.74365782  0.99858617  1
  O  O231  1  0.63348571  0.25691811  0.50535169  1
  O  O232  1  0.63875587  0.26216700  0.99377263  1
  O  O233  1  0.63975102  0.73885443  0.51718680  1
  O  O234  1  0.63295864  0.74235392  0.98622732  1
  O  O235  1  0.50168306  0.23403309  0.13026534  1
  O  O236  1  0.49386896  0.24389032  0.63169488  1
  O  O237  1  0.48856444  0.74779881  0.11175128  1
  O  O238  1  0.48877191  0.73289521  0.63524573  1
  O  O239  1  0.98926453  0.24274209  0.12203816  1
  O  O240  1  0.98577972  0.25994103  0.63668854  1
  O  O241  1  0.99902057  0.75230025  0.13779567  1
  O  O242  1  0.99176190  0.74998176  0.64031228  1
  O  O243  1  0.00711125  0.25973089  0.38196957  1
  O  O244  1  -0.00509201  0.25238730  0.86216257  1
  O  O245  1  0.00992712  0.75984012  0.36330338  1
  O  O246  1  0.00113869  0.75200047  0.86380421  1
  O  O247  1  0.50527485  0.25172919  0.37223749  1
  O  O248  1  0.50768806  0.25549015  0.87455704  1
  O  O249  1  0.53229520  0.71823784  0.40980344  1
  O  O250  1  0.50628730  0.75471379  0.86865548  1
  O  O251  1  0.24863273  0.12792239  0.48977398  1
  O  O252  1  0.23535721  0.12229197  0.99239768  1
  O  O253  1  0.23127655  0.61778572  0.50120018  1
  O  O254  1  0.24705164  0.63238811  0.99617561  1
  O  O255  1  0.75446068  0.12451203  0.49113816  1
  O  O256  1  0.75782962  0.13823140  0.99815902  1
  O  O257  1  0.74505153  0.63312115  0.49078582  1
  O  O258  1  0.74537302  0.63214735  0.99078336  1
  O  O259  1  0.26331491  0.38216099  -0.00101365  1
  O  O260  1  0.24901135  0.37369003  0.51470376  1
  O  O261  1  0.25772325  0.86959282  0.00319772  1
  O  O262  1  0.25741935  0.88279378  0.50145655  1
  O  O263  1  0.76463528  0.36989276  -0.00094026  1
  O  O264  1  0.75133934  0.38485038  0.51561226  1
  O  O265  1  0.75293276  0.86717291  0.00485381  1
  O  O266  1  0.76415470  0.85787809  0.50953748  1
  O  O267  1  0.13068087  0.50432838  0.24014279  1
  O  O268  1  0.12921805  0.49552885  0.74310750  1
  O  O269  1  0.13409409  0.99521618  0.23454963  1
  O  O270  1  0.12930085  0.99657636  0.74706034  1
  O  O271  1  0.63100149  0.49220401  0.23917700  1
  O  O272  1  0.62971484  0.49723662  0.74520999  1
  O  O273  1  0.63108224  0.99108378  0.26867363  1
  O  O274  1  0.63955662  1.00211504  0.74500568  1
  O  O275  1  0.36748306  0.01567614  0.26047348  1
  O  O276  1  0.36513372  0.00459218  0.75180486  1
  O  O277  1  0.36624983  0.50280940  0.25350563  1
  O  O278  1  0.36552221  0.49414406  0.76218754  1
  O  O279  1  0.86355648  0.00380606  0.23514645  1
  O  O280  1  0.87017036  0.00610942  0.75381157  1
  O  O281  1  0.87647933  0.50832540  0.25568483  1
  O  O282  1  0.87308589  0.50700087  0.75316294  1
  O  O283  1  0.11819309  0.36385908  0.37592494  1
  O  O284  1  0.12612673  0.38173067  0.86167873  1
  O  O285  1  0.14743034  0.86611029  0.35133021  1
  O  O286  1  0.12367994  0.87622005  0.86285273  1
  O  O287  1  0.62315633  0.38200126  0.36208948  1
  O  O288  1  0.61877901  0.36967941  0.87055937  1
  O  O289  1  0.61764447  0.84996910  0.38213295  1
  O  O290  1  0.61662972  0.85959343  0.87158407  1
  O  O291  1  0.36852558  0.12232333  0.13801840  1
  O  O292  1  0.37842136  0.13203405  0.63296500  1
  O  O293  1  0.38839238  0.62347697  0.13808320  1
  O  O294  1  0.37681357  0.61615788  0.62693559  1
  O  O295  1  0.88716153  0.13785417  0.12394962  1
  O  O296  1  0.87102135  0.13417609  0.63762967  1
  O  O297  1  0.86927036  0.62371327  0.13740372  1
  O  O298  1  0.87006697  0.63447453  0.63417538  1
  O  O299  1  0.25132615  0.26010916  0.11323164  1
  O  O300  1  0.25787932  0.25638345  0.62714121  1
  O  O301  1  0.24829685  0.75448353  0.11282279  1
  O  O302  1  0.25801891  0.74230494  0.64218285  1
  O  O303  1  0.76796912  0.24835708  0.11908102  1
  O  O304  1  0.75963080  0.26029019  0.63061243  1
  O  O305  1  0.74410752  0.75753989  0.10918271  1
  O  O306  1  0.75842255  0.75326149  0.62199564  1
  O  O307  1  0.24082503  0.24355643  0.37985739  1
  O  O308  1  0.25329636  0.23825487  0.86673626  1
  O  O309  1  0.24037826  0.73588266  0.36812963  1
  O  O310  1  0.24653075  0.74435318  0.88590880  1
  O  O311  1  0.74460593  0.24211036  0.38301835  1
  O  O312  1  0.74465517  0.25293778  0.88480794  1
  O  O313  1  0.75553476  0.73843845  0.38208982  1
  O  O314  1  0.74196434  0.74650612  0.87597071  1
  O  O315  1  0.01387965  0.12364410  0.00537236  1
  O  O316  1  0.00755586  0.12695165  0.49936743  1
  O  O317  1  0.00937393  0.61819879  -0.00716024  1
  O  O318  1  0.00732266  0.61161790  0.49650246  1
  O  O319  1  0.49780055  0.12250078  0.01759143  1
  O  O320  1  0.49045738  0.11437838  0.51813479  1
  O  O321  1  0.50711786  0.61809904  0.00295030  1
  O  O322  1  0.49580732  0.61368923  0.51084283  1
  O  O323  1  0.49537194  0.38849206  0.50479860  1
  O  O324  1  0.49451412  0.38409852  0.99824281  1
  O  O325  1  0.48287549  0.89234584  0.50647632  1
  O  O326  1  0.49457840  0.87938295  0.98465392  1
  O  O327  1  0.99921303  0.38778908  0.49010396  1
  O  O328  1  0.98936813  0.38360360  0.99724670  1
  O  O329  1  0.98089548  0.86438110  0.50340344  1
  O  O330  1  0.99090887  0.87585245  0.99907529  1
  O  O331  1  0.49057475  0.49723725  0.38579673  1
  O  O332  1  0.49535386  0.49645747  0.88474422  1
  O  O333  1  0.48891692  1.01229754  0.38626102  1
  O  O334  1  0.47997952  0.99084734  0.85710769  1
  O  O335  1  0.99085774  0.49626307  0.38055458  1
  O  O336  1  0.99364265  0.49843005  0.88641949  1
  O  O337  1  1.04780668  0.97603961  0.38470545  1
  O  O338  1  0.98794677  0.99741949  0.87639295  1
  O  O339  1  0.01054552  0.00934013  0.12089829  1
  O  O340  1  0.01138667  -0.00384460  0.63268245  1
  O  O341  1  0.00465419  0.50193429  0.11236965  1
  O  O342  1  0.00873116  0.49128877  0.61791306  1
  O  O343  1  0.50838189  0.01701168  0.12370475  1
  O  O344  1  0.50873151  0.00606931  0.62422321  1
  O  O345  1  0.51273659  0.51164584  0.12014948  1
  O  O346  1  0.50226891  0.50700716  0.62226751  1
  O  O347  1  0.24282717  0.38656118  0.25504006  1
  O  O348  1  0.24349152  0.37842086  0.74220720  1
  O  O349  1  0.25022336  0.88231405  0.23808632  1
  O  O350  1  0.24092604  0.88403310  0.74795853  1
  O  O351  1  0.73821104  0.37946222  0.25267625  1
  O  O352  1  0.74669886  0.38303595  0.74189244  1
  O  O353  1  0.75106884  0.86586082  0.22953729  1
  O  O354  1  0.76037582  0.88481727  0.73848804  1
  O  O355  1  0.25694609  0.12301572  0.25842973  1
  O  O356  1  0.25390430  0.11920133  0.75780321  1
  O  O357  1  0.25707574  0.61306078  0.24656819  1
  O  O358  1  0.25467025  0.62678775  0.75459570  1
  O  O359  1  0.75651197  0.12535008  0.26243044  1
  O  O360  1  0.75957627  0.11547279  0.75245791  1
  O  O361  1  0.76100486  0.62389133  0.25761810  1
  O  O362  1  0.75908957  0.62084776  0.75287810  1
  O  O363  1  0.36653090  0.11856381  0.37290437  1
  O  O364  1  0.36943271  0.11951489  0.87316327  1
  O  O365  1  0.37260816  0.61199498  0.36371207  1
  O  O366  1  0.36252453  0.61869886  0.88332344  1
  O  O367  1  0.86099120  0.13055047  0.37394523  1
  O  O368  1  0.87332652  0.11690919  0.86650852  1
  O  O369  1  0.87143469  0.61863782  0.36797466  1
  O  O370  1  0.86886640  0.61863866  0.86692933  1
  O  O371  1  0.11665256  0.39044719  0.12590402  1
  O  O372  1  0.13037455  0.38001102  0.63347763  1
  O  O373  1  0.13185727  0.88275790  0.13023694  1
  O  O374  1  0.12824588  0.88233770  0.63503123  1
  O  O375  1  0.62060780  0.38206379  0.13636905  1
  O  O376  1  0.63092931  0.38560221  0.63302193  1
  O  O377  1  0.63325269  0.87500162  0.11822255  1
  O  O378  1  0.64058655  0.88314615  0.62299530  1
  O  O379  1  0.12780507  0.24521192  0.26338124  1
  O  O380  1  0.11517312  0.25842060  0.74392059  1
  O  O381  1  0.11468653  0.75654488  0.24228313  1
  O  O382  1  0.11474920  0.75885098  0.75296318  1
  O  O383  1  0.62567979  0.26529175  0.25009755  1
  O  O384  1  0.62116517  0.26046503  0.75463286  1
  O  O385  1  0.59164503  0.71081386  0.22105417  1
  O  O386  1  0.61079061  0.74254662  0.75384992  1
  O  O387  1  0.37458174  0.23423654  0.25705348  1
  O  O388  1  0.38228664  0.24727428  0.74220237  1
  O  O389  1  0.37847205  0.74652868  0.24712715  1
  O  O390  1  0.38196446  0.74893283  0.75988999  1
  O  O391  1  0.87465948  0.25331716  0.23890450  1
  O  O392  1  0.88008543  0.24183184  0.74712523  1
  O  O393  1  0.88922016  0.74434943  0.25435525  1
  O  O394  1  0.87984036  0.74235768  0.74534178  1
  O  O395  1  0.37926802  0.49745078  0.49065737  1
  O  O396  1  0.38570389  0.49887505  0.99756701  1
  O  O397  1  0.37754104  0.99705885  0.49333414  1
  O  O398  1  0.37385645  0.98967250  0.99019405  1
  O  O399  1  0.88236322  0.50073541  0.49300913  1
  O  O400  1  0.88009937  0.49517126  0.99711089  1
  O  O401  1  0.87716654  0.98351903  0.51107102  1
  O  O402  1  0.87532034  0.99353231  0.99235590  1
  O  O403  1  0.12592080  -0.00014995  0.00990267  1
  O  O404  1  0.13204552  0.01965504  0.51466300  1
  O  O405  1  0.11730972  0.50665308  0.00429754  1
  O  O406  1  0.11760467  0.50325495  0.50840434  1
  O  O407  1  0.61026738  0.00773158  -0.05771260  1
  O  O408  1  0.61396601  -0.00499174  0.50888458  1
  O  O409  1  0.61561918  0.49963541  0.00390065  1
  O  O410  1  0.61361970  0.51260870  0.50258925  1
  O  O411  1  0.37855058  0.37986918  0.11542939  1
  O  O412  1  0.36588397  0.36718787  0.62702309  1
  O  O413  1  0.37623340  0.86964004  0.11951005  1
  O  O414  1  0.36502412  0.87986691  0.61027470  1
  O  O415  1  0.88336064  0.36284823  0.11892067  1
  O  O416  1  0.86547766  0.36925398  0.62686219  1
  O  O417  1  0.86161782  0.87709591  0.10987052  1
  O  O418  1  0.86782646  0.86084729  0.61887218  1
  O  O419  1  0.12993575  0.13151366  0.38740885  1
  O  O420  1  0.13171845  0.12135398  0.88953854  1
  O  O421  1  0.12245146  0.62105767  0.39213217  1
  O  O422  1  0.13832330  0.62480657  0.88542747  1
  O  O423  1  0.64159081  0.12774441  0.37380912  1
  O  O424  1  0.63112719  0.14772099  0.86430848  1
  O  O425  1  0.64068899  0.61197814  0.37746715  1
  O  O426  1  0.62999866  0.63220583  0.87635692  1
