# generated using pymatgen
data_V85Zn86O256
_symmetry_space_group_name_H-M   'P 1'
_cell_length_a   16.91532156
_cell_length_b   16.91350718
_cell_length_c   16.91180075
_cell_angle_alpha   90.03914468
_cell_angle_beta   89.96798449
_cell_angle_gamma   90.02270264
_symmetry_Int_Tables_number   1
_chemical_formula_structural   V85Zn86O256
_chemical_formula_sum   'V85 Zn86 O256'
_cell_volume   4838.42017515
_cell_formula_units_Z   1
loop_
 _symmetry_equiv_pos_site_id
 _symmetry_equiv_pos_as_xyz
  1  'x, y, z'
loop_
 _atom_site_type_symbol
 _atom_site_label
 _atom_site_symmetry_multiplicity
 _atom_site_fract_x
 _atom_site_fract_y
 _atom_site_fract_z
 _atom_site_occupancy
  V  V0  1  0.48706528  0.74659430  0.74327848  1
  V  V1  1  0.62455275  -0.00166203  0.12335263  1
  V  V2  1  0.87505802  0.37554315  -0.00143538  1
  V  V3  1  0.37472227  0.62446349  0.23772470  1
  V  V4  1  0.62269791  0.13111948  -0.00435466  1
  V  V5  1  0.87746677  0.50511214  0.36705624  1
  V  V6  1  -0.00110888  0.25030119  0.24969351  1
  V  V7  1  0.74177033  0.25127248  -0.00567491  1
  V  V8  1  0.74809689  0.50250028  0.74728938  1
  V  V9  1  0.62713552  0.37230061  0.75704434  1
  V  V10  1  0.62410235  0.74922785  0.37470752  1
  V  V11  1  0.74909444  0.87071791  0.11808306  1
  V  V12  1  0.24849788  0.12319185  0.37456458  1
  V  V13  1  0.12551827  0.00443983  0.62059581  1
  V  V14  1  0.00251017  0.00416200  -0.00068198  1
  V  V15  1  0.11860929  0.75387867  0.37712122  1
  V  V16  1  0.74616440  0.62868174  0.88309459  1
  V  V17  1  0.00156705  0.25386408  0.75023280  1
  V  V18  1  0.87656203  0.74594565  0.12978973  1
  V  V19  1  0.87493415  0.24925786  0.12447002  1
  V  V20  1  0.87468829  -0.00134619  0.87400585  1
  V  V21  1  0.49753997  0.74573831  0.24196761  1
  V  V22  1  0.24874693  0.49996247  0.25002842  1
  V  V23  1  0.13733462  -0.00491654  0.12428911  1
  V  V24  1  0.75175625  -0.00108879  0.25064031  1
  V  V25  1  0.37863666  0.25231492  0.62660881  1
  V  V26  1  0.88747031  0.74699660  0.62354580  1
  V  V27  1  0.74349987  0.37637501  0.12602428  1
  V  V28  1  0.50832146  0.24646478  0.76063543  1
  V  V29  1  0.37127608  0.37776156  -0.00475648  1
  V  V30  1  0.75293736  0.87136547  0.62190240  1
  V  V31  1  0.26679896  0.75135423  0.50321218  1
  V  V32  1  0.87623640  0.12554403  0.74686279  1
  V  V33  1  0.13171541  0.49909674  0.63301357  1
  V  V34  1  0.25256121  0.61269859  0.87623750  1
  V  V35  1  0.24766754  0.76331613  -0.00453818  1
  V  V36  1  0.87227103  0.37727318  0.50077636  1
  V  V37  1  0.49689015  0.12353577  0.13055770  1
  V  V38  1  0.62477404  0.12245475  0.49527271  1
  V  V39  1  0.75259720  0.62693980  0.37050410  1
  V  V40  1  0.88408529  -0.00245136  0.37266861  1
  V  V41  1  0.25012510  0.62397656  0.37521551  1
  V  V42  1  0.62121255  0.26431215  0.36916208  1
  V  V43  1  0.24707099  0.23449858  -0.00422333  1
  V  V44  1  0.74998760  -0.00110145  0.75011882  1
  V  V45  1  0.25014440  0.25041092  0.50351688  1
  V  V46  1  0.12790807  0.86889443  0.75019593  1
  V  V47  1  0.26322098  0.87313563  0.62272351  1
  V  V48  1  0.49122585  0.87133154  0.37941297  1
  V  V49  1  0.87965968  0.62486620  0.74602382  1
  V  V50  1  0.12441444  0.37576341  0.25075965  1
  V  V51  1  0.36867750  0.12637828  0.75815011  1
  V  V52  1  0.62081026  0.62004495  0.50417898  1
  V  V53  1  0.61929612  0.51853233  0.12045290  1
  V  V54  1  0.36800818  0.76631408  0.11937976  1
  V  V55  1  0.62548341  -0.00429484  0.62330247  1
  V  V56  1  0.50102570  0.12303786  0.62780263  1
  V  V57  1  0.87165019  0.86960727  -0.00268513  1
  V  V58  1  -0.00067415  0.50561105  0.50854446  1
  V  V59  1  0.37179104  0.25047210  0.12579028  1
  V  V60  1  0.12773810  0.23673694  0.87796531  1
  V  V61  1  0.00503727  0.12299784  0.12323774  1
  V  V62  1  0.88698488  0.87505400  0.49549262  1
  V  V63  1  0.12520576  0.63151354  -0.00338404  1
  V  V64  1  0.12491258  0.50225540  0.12528552  1
  V  V65  1  0.12333476  0.24480762  0.38273985  1
  V  V66  1  0.74914123  0.24917500  0.50026704  1
  V  V67  1  0.49396095  0.87111956  0.87856082  1
  V  V68  1  0.62452617  0.74485146  0.88496995  1
  V  V69  1  0.74591914  0.49814925  0.24857275  1
  V  V70  1  0.50483863  0.37077215  0.88636638  1
  V  V71  1  0.62448811  0.86873552  0.74990477  1
  V  V72  1  0.36783787  0.00032400  0.87859435  1
  V  V73  1  0.36924593  0.60561622  0.74959458  1
  V  V74  1  0.00131661  0.37669470  0.37640508  1
  V  V75  1  0.39049225  0.49518575  0.37823190  1
  V  V76  1  0.62215060  0.87403421  0.24963439  1
  V  V77  1  0.49047920  -0.00597130  0.50206549  1
  V  V78  1  0.49962979  0.51696828  -0.00417761  1
  V  V79  1  -0.00043449  0.50308630  -0.00010171  1
  V  V80  1  0.37064166  -0.00096527  0.36972455  1
  V  V81  1  0.49576519  -0.00599710  0.00087941  1
  V  V82  1  0.12398033  0.62813510  0.50783746  1
  V  V83  1  0.13120338  0.88216764  0.25667459  1
  V  V84  1  0.00550429  0.86577913  0.87449357  1
  Zn  Zn85  1  0.48344742  0.62134757  0.61450018  1
  Zn  Zn86  1  0.74803687  0.37459600  0.62669545  1
  Zn  Zn87  1  0.00846081  0.00610753  0.49192235  1
  Zn  Zn88  1  0.61423486  0.49171732  0.62044433  1
  Zn  Zn89  1  0.25824351  0.37982809  0.63015780  1
  Zn  Zn90  1  0.87752229  0.24923778  0.62253239  1
  Zn  Zn91  1  -0.00086730  0.75118644  0.25582955  1
  Zn  Zn92  1  0.00767492  0.74289352  0.75105941  1
  Zn  Zn93  1  0.74984577  0.12376218  0.37224329  1
  Zn  Zn94  1  0.36953442  0.12542650  0.25060475  1
  Zn  Zn95  1  0.87472425  0.12362910  0.24896998  1
  Zn  Zn96  1  0.38972261  0.37619538  0.49510736  1
  Zn  Zn97  1  0.24837232  0.00227238  0.75274362  1
  Zn  Zn98  1  0.24619944  0.37310549  0.12079430  1
  Zn  Zn99  1  0.13706062  0.37867456  0.75838405  1
  Zn  Zn100  1  0.00894496  0.13049790  0.61720320  1
  Zn  Zn101  1  0.75155192  0.74994673  0.49839850  1
  Zn  Zn102  1  0.87494507  0.50191116  0.87371987  1
  Zn  Zn103  1  0.00240321  0.37531430  0.87550927  1
  Zn  Zn104  1  -0.00180082  0.62625403  0.13416426  1
  Zn  Zn105  1  0.74477434  0.12768498  0.87188654  1
  Zn  Zn106  1  0.49289372  0.26989459  0.26257254  1
  Zn  Zn107  1  0.18591355  0.18464458  0.18921819  1
  Zn  Zn108  1  0.18973079  0.19144857  0.69159984  1
  Zn  Zn109  1  0.18612849  0.69196776  0.18601340  1
  Zn  Zn110  1  0.19394091  0.68814987  0.68776943  1
  Zn  Zn111  1  0.68583751  0.18678726  0.18481250  1
  Zn  Zn112  1  0.68804894  0.18722291  0.68450340  1
  Zn  Zn113  1  0.69297952  0.68864922  0.18844683  1
  Zn  Zn114  1  0.68832445  0.68939750  0.69057972  1
  Zn  Zn115  1  0.30882603  0.31309968  0.31135375  1
  Zn  Zn116  1  0.31302698  0.31594877  0.81394873  1
  Zn  Zn117  1  0.30760343  0.81280057  0.31039700  1
  Zn  Zn118  1  0.30832009  0.81301213  0.81620775  1
  Zn  Zn119  1  0.80968230  0.31420585  0.31341918  1
  Zn  Zn120  1  0.81345510  0.31225470  0.81512638  1
  Zn  Zn121  1  0.81231478  0.81607587  0.31116991  1
  Zn  Zn122  1  0.81339784  0.80843004  0.81124482  1
  Zn  Zn123  1  0.19232089  0.43511015  0.44311833  1
  Zn  Zn124  1  0.18392133  0.43199501  0.93736767  1
  Zn  Zn125  1  0.19199680  0.93467505  0.44105163  1
  Zn  Zn126  1  0.18298988  0.94155149  0.93766425  1
  Zn  Zn127  1  0.68391711  0.43821228  0.43693763  1
  Zn  Zn128  1  0.68470768  0.44286278  0.93774002  1
  Zn  Zn129  1  0.68821123  0.93515638  0.43652765  1
  Zn  Zn130  1  0.68381326  0.93681885  0.93583996  1
  Zn  Zn131  1  0.31492098  0.06089137  0.06103110  1
  Zn  Zn132  1  0.30952107  0.06618659  0.56261295  1
  Zn  Zn133  1  0.31199744  0.56192695  0.05960689  1
  Zn  Zn134  1  0.31349091  0.56273033  0.56046572  1
  Zn  Zn135  1  0.81424405  0.06166852  0.06212678  1
  Zn  Zn136  1  0.81657906  0.06122521  0.56036853  1
  Zn  Zn137  1  0.81104164  0.56372793  0.06137522  1
  Zn  Zn138  1  0.80719593  0.56408419  0.56204713  1
  Zn  Zn139  1  0.43725960  0.43979227  0.18523956  1
  Zn  Zn140  1  0.44419143  0.43612023  0.68926620  1
  Zn  Zn141  1  0.43481523  0.93630990  0.19075518  1
  Zn  Zn142  1  0.43795193  0.93776206  0.69365657  1
  Zn  Zn143  1  0.93647771  0.43907250  0.18553735  1
  Zn  Zn144  1  0.93816767  0.43760241  0.68658403  1
  Zn  Zn145  1  0.94356379  0.93051108  0.18960474  1
  Zn  Zn146  1  0.94162866  0.93598922  0.68679286  1
  Zn  Zn147  1  0.06459613  0.06451562  0.30888052  1
  Zn  Zn148  1  0.06147710  0.05925695  0.80656537  1
  Zn  Zn149  1  0.06039907  0.56938763  0.31355755  1
  Zn  Zn150  1  0.06372613  0.56583058  0.81755037  1
  Zn  Zn151  1  0.56036138  0.06202525  0.31278678  1
  Zn  Zn152  1  0.56145028  0.05899885  0.81496413  1
  Zn  Zn153  1  0.56641047  0.56470618  0.30598929  1
  Zn  Zn154  1  0.55925134  0.56043860  0.81063938  1
  Zn  Zn155  1  0.43913780  0.18854692  0.43981557  1
  Zn  Zn156  1  0.43739809  0.18740537  0.94211736  1
  Zn  Zn157  1  0.43873934  0.68051621  0.42961291  1
  Zn  Zn158  1  0.42765035  0.69186773  0.93305676  1
  Zn  Zn159  1  0.93608227  0.18276980  0.43760303  1
  Zn  Zn160  1  0.93657541  0.18684647  0.93489330  1
  Zn  Zn161  1  0.93807357  0.68603394  0.43887617  1
  Zn  Zn162  1  0.93282993  0.68692144  0.93927844  1
  Zn  Zn163  1  0.06451677  0.31222893  0.05907801  1
  Zn  Zn164  1  0.06188476  0.31604648  0.56422997  1
  Zn  Zn165  1  0.06309044  0.81733339  0.06457025  1
  Zn  Zn166  1  0.06944582  0.81661422  0.56332231  1
  Zn  Zn167  1  0.54771676  0.32883174  0.09487221  1
  Zn  Zn168  1  0.55936588  0.31566158  0.56521481  1
  Zn  Zn169  1  0.55862712  0.80776386  0.06256216  1
  Zn  Zn170  1  0.56093021  0.80607631  0.56180927  1
  O  O171  1  0.11271349  0.11308326  0.13153964  1
  O  O172  1  0.13061978  0.10817395  0.63390670  1
  O  O173  1  0.12580700  0.61911898  0.11385995  1
  O  O174  1  0.13085702  0.61731493  0.61549635  1
  O  O175  1  0.61720119  0.11756482  0.11764752  1
  O  O176  1  0.62114782  0.11762390  0.61472152  1
  O  O177  1  0.63254567  0.61714008  0.12083705  1
  O  O178  1  0.63192175  0.62952595  0.60783689  1
  O  O179  1  0.37104826  0.39259176  0.36869897  1
  O  O180  1  0.38574860  0.36950699  0.88870782  1
  O  O181  1  0.38370004  0.87992764  0.37135734  1
  O  O182  1  0.38726659  0.88271234  0.86924946  1
  O  O183  1  0.87817953  0.38365261  0.38421591  1
  O  O184  1  0.87716867  0.37752864  0.88808318  1
  O  O185  1  0.87107165  0.88211595  0.38437033  1
  O  O186  1  0.87937519  0.87881982  0.88006938  1
  O  O187  1  0.25939064  0.00887315  0.38554823  1
  O  O188  1  0.26396346  -0.00454972  0.87586694  1
  O  O189  1  0.24981635  0.51149506  0.37007324  1
  O  O190  1  0.24604352  0.51378281  0.88245178  1
  O  O191  1  0.75615929  -0.00203009  0.36426376  1
  O  O192  1  0.75588562  0.00018229  0.86769832  1
  O  O193  1  0.75516104  0.50462102  0.36714260  1
  O  O194  1  0.75029768  0.51066451  0.86540217  1
  O  O195  1  0.24243612  0.49912903  0.13113384  1
  O  O196  1  0.23530998  0.49935053  0.61827138  1
  O  O197  1  0.23562390  1.00636916  0.12218307  1
  O  O198  1  0.24472137  0.99105376  0.62552854  1
  O  O199  1  0.74533394  0.49850040  0.13023362  1
  O  O200  1  0.74482345  0.49775906  0.63670883  1
  O  O201  1  0.74639613  0.98994165  0.12963627  1
  O  O202  1  0.74674526  0.98851612  0.62856180  1
  O  O203  1  0.00456418  0.37175224  0.25599253  1
  O  O204  1  -0.00175865  0.36322556  0.75259573  1
  O  O205  1  0.02057277  0.86665878  0.24504393  1
  O  O206  1  0.00793368  0.87264086  0.75854412  1
  O  O207  1  0.51287432  0.36148558  0.20292460  1
  O  O208  1  0.50656090  0.36606118  0.76461176  1
  O  O209  1  0.50326641  0.86546203  0.25650427  1
  O  O210  1  0.50328895  0.86245525  0.75497567  1
  O  O211  1  0.50060577  0.12658715  0.23692771  1
  O  O212  1  0.49778602  0.12972889  0.74753177  1
  O  O213  1  0.49094638  0.63847176  0.25288599  1
  O  O214  1  0.48235890  0.63319418  0.75912730  1
  O  O215  1  0.99720640  0.13283607  0.24122488  1
  O  O216  1  0.99230015  0.13473173  0.74610756  1
  O  O217  1  1.00276304  0.63647494  0.24746367  1
  O  O218  1  0.98489808  0.62591360  0.75821747  1
  O  O219  1  0.36477014  0.25510185  0.00442335  1
  O  O220  1  0.37075374  0.24820808  0.51109426  1
  O  O221  1  0.36479849  0.74973637  0.01157277  1
  O  O222  1  0.36600100  0.74045629  0.49594705  1
  O  O223  1  0.86874934  0.25679613  0.00573720  1
  O  O224  1  0.86589525  0.25939534  0.49620763  1
  O  O225  1  0.87496372  0.76387908  0.00716972  1
  O  O226  1  0.87355134  0.75700470  0.50570790  1
  O  O227  1  0.13399869  0.25881746  0.49231572  1
  O  O228  1  0.13124463  0.24955373  0.98861481  1
  O  O229  1  0.13393975  0.74469070  0.49642134  1
  O  O230  1  0.13753671  0.74457044  1.00909362  1
  O  O231  1  0.63173062  0.24045303  0.49164379  1
  O  O232  1  0.63265047  0.24121291  1.01367762  1
  O  O233  1  0.62912140  0.74231332  0.49073211  1
  O  O234  1  0.62040914  0.75183812  0.98482309  1
  O  O235  1  0.48158681  0.23426058  0.11084070  1
  O  O236  1  0.49703787  0.24091927  0.63619695  1
  O  O237  1  0.48372215  0.75345873  0.13036440  1
  O  O238  1  0.50224889  0.74157520  0.63966475  1
  O  O239  1  0.99708824  0.24206287  0.12681749  1
  O  O240  1  0.99904980  0.24935098  0.63403783  1
  O  O241  1  0.98451771  0.75162679  0.11979397  1
  O  O242  1  0.99045225  0.75487308  0.62564375  1
  O  O243  1  0.00624198  0.25569526  0.37182319  1
  O  O244  1  0.00866051  0.25008995  0.86991765  1
  O  O245  1  0.01535302  0.74959441  0.38117951  1
  O  O246  1  -0.00423692  0.76265155  0.87608197  1
  O  O247  1  0.51559748  0.24227902  0.37288351  1
  O  O248  1  0.50051996  0.25634706  0.87196814  1
  O  O249  1  0.50212263  0.75628615  0.36637631  1
  O  O250  1  0.50284940  0.75489422  0.86840451  1
  O  O251  1  0.25381081  0.13980754  0.49048411  1
  O  O252  1  0.25366133  0.13508955  0.99810572  1
  O  O253  1  0.24433327  0.63101477  0.49346407  1
  O  O254  1  0.24501096  0.63073752  0.99182256  1
  O  O255  1  0.74296465  0.13097969  0.49943145  1
  O  O256  1  0.74130078  0.13294112  1.00304666  1
  O  O257  1  0.74199112  0.62776455  0.48715398  1
  O  O258  1  0.75150819  0.62193648  0.98193398  1
  O  O259  1  0.25754663  0.36740540  0.00022743  1
  O  O260  1  0.26316301  0.36404708  0.50459215  1
  O  O261  1  0.24570693  0.86229773  -0.00490459  1
  O  O262  1  0.25187039  0.86628869  0.51331323  1
  O  O263  1  0.75576354  0.37073750  0.00377537  1
  O  O264  1  0.75517122  0.36909200  0.50020583  1
  O  O265  1  0.75734379  0.88162702  0.00716907  1
  O  O266  1  0.75740850  0.87279362  0.50797021  1
  O  O267  1  0.12828286  0.49623351  0.24602801  1
  O  O268  1  0.11631993  0.50270653  0.73554874  1
  O  O269  1  0.12280751  0.99127933  0.24048458  1
  O  O270  1  0.12949589  0.98946551  0.74219699  1
  O  O271  1  0.63229800  0.50468619  0.23324310  1
  O  O272  1  0.63255670  0.49079455  0.75186719  1
  O  O273  1  0.62950299  0.99398384  0.24362701  1
  O  O274  1  0.62822214  0.99122946  0.74304747  1
  O  O275  1  0.37963947  0.00351563  0.26531298  1
  O  O276  1  0.37660252  0.00925252  0.76047908  1
  O  O277  1  0.36947938  0.50661142  0.25206847  1
  O  O278  1  0.37514965  0.50775701  0.75546161  1
  O  O279  1  0.86785430  -0.00573410  0.25477325  1
  O  O280  1  0.87171547  0.00526542  0.75344749  1
  O  O281  1  0.86962453  0.49727948  0.26161426  1
  O  O282  1  0.86807187  0.50594013  0.75048394  1
  O  O283  1  0.12130152  0.36804385  0.37154969  1
  O  O284  1  0.11932519  0.36320574  0.87421717  1
  O  O285  1  0.13032609  0.86986076  0.36721693  1
  O  O286  1  0.11646798  0.88075941  0.86519976  1
  O  O287  1  0.62731053  0.36322973  0.37151174  1
  O  O288  1  0.61977661  0.37514002  0.86748098  1
  O  O289  1  0.61509684  0.86934060  0.36925089  1
  O  O290  1  0.61492863  0.86856903  0.86813865  1
  O  O291  1  0.37970230  0.12827962  0.12941553  1
  O  O292  1  0.38182591  0.13261161  0.63370507  1
  O  O293  1  0.36966604  0.63123796  0.13538045  1
  O  O294  1  0.36720211  0.62234753  0.64383600  1
  O  O295  1  0.88535885  0.12987196  0.12624155  1
  O  O296  1  0.87352112  0.12570056  0.63771192  1
  O  O297  1  0.87106800  0.64339411  0.11862306  1
  O  O298  1  0.86856702  0.63551521  0.63121564  1
  O  O299  1  0.25666772  0.24705190  0.11830397  1
  O  O300  1  0.26022260  0.24772474  0.61876936  1
  O  O301  1  0.26088861  0.74663077  0.11351979  1
  O  O302  1  0.24929506  0.76360279  0.61796420  1
  O  O303  1  0.75452081  0.25881414  0.11998469  1
  O  O304  1  0.75207297  0.25187727  0.61156440  1
  O  O305  1  0.75901649  0.76272953  0.12848782  1
  O  O306  1  0.75784393  0.76145771  0.62619663  1
  O  O307  1  0.24267609  0.24688944  0.38287612  1
  O  O308  1  0.23654608  0.24963399  0.88086653  1
  O  O309  1  0.24585275  0.74040547  0.38212913  1
  O  O310  1  0.25518553  0.74210392  0.89131966  1
  O  O311  1  0.74072566  0.24765932  0.38362244  1
  O  O312  1  0.75189452  0.24747985  0.89029564  1
  O  O313  1  0.74396860  0.74286206  0.37092360  1
  O  O314  1  0.74053097  0.73793825  0.86826123  1
  O  O315  1  -0.00705231  0.11189955  0.00560215  1
  O  O316  1  -0.00532481  0.11836348  0.50567890  1
  O  O317  1  0.00715223  0.62051266  0.00165816  1
  O  O318  1  0.01104171  0.61709005  0.49665965  1
  O  O319  1  0.50563094  0.11577664  0.00877680  1
  O  O320  1  0.50762958  0.11556116  0.50635068  1
  O  O321  1  0.49342420  0.61520981  -0.00970822  1
  O  O322  1  0.51574735  0.63110318  0.49913498  1
  O  O323  1  0.50090596  0.36937691  0.49225091  1
  O  O324  1  0.49571578  0.37576568  0.99588258  1
  O  O325  1  0.50445086  0.88092978  0.49165274  1
  O  O326  1  0.50371546  0.88202307  0.99112863  1
  O  O327  1  0.99194208  0.38282185  0.49415951  1
  O  O328  1  0.99093230  0.38364495  1.00257207  1
  O  O329  1  0.98978633  0.88090844  0.50409326  1
  O  O330  1  0.99386197  0.88446336  0.99367973  1
  O  O331  1  0.48835505  0.50459380  0.36539278  1
  O  O332  1  0.50652256  0.49015958  0.89030168  1
  O  O333  1  0.49431234  0.99132223  0.38243753  1
  O  O334  1  0.49501796  0.99014676  0.88263804  1
  O  O335  1  0.99337362  0.49692240  0.38335267  1
  O  O336  1  0.99786326  0.49936486  0.88830179  1
  O  O337  1  0.98830238  1.00219873  0.37067052  1
  O  O338  1  0.99437627  0.99347379  0.88123041  1
  O  O339  1  0.00316975  0.00588728  0.11783526  1
  O  O340  1  0.01700958  0.00018532  0.62708044  1
  O  O341  1  0.00374275  0.50437414  0.11583174  1
  O  O342  1  0.00777710  0.49817466  0.61310552  1
  O  O343  1  0.50180335  0.00258575  0.11929921  1
  O  O344  1  0.50473088  0.00097647  0.61943600  1
  O  O345  1  0.51243355  0.50653880  0.11351205  1
  O  O346  1  0.50479313  0.51257514  0.63686425  1
  O  O347  1  0.23972677  0.38086250  0.24661520  1
  O  O348  1  0.24918954  0.37055276  0.74328868  1
  O  O349  1  0.23247471  0.87164297  0.24753086  1
  O  O350  1  0.24562467  0.87609068  0.74122036  1
  O  O351  1  0.75496107  0.38852764  0.24159579  1
  O  O352  1  0.74427188  0.38139034  0.75297796  1
  O  O353  1  0.74208881  0.88333704  0.24189401  1
  O  O354  1  0.74625343  0.87912407  0.74288860  1
  O  O355  1  0.25009445  0.13101873  0.26851256  1
  O  O356  1  0.26548114  0.12458564  0.75041459  1
  O  O357  1  0.25497016  0.62235744  0.25672711  1
  O  O358  1  0.25827076  0.62910948  0.76414860  1
  O  O359  1  0.75068398  0.10951091  0.24491656  1
  O  O360  1  0.75472906  0.11812518  0.75077683  1
  O  O361  1  0.74742236  0.61493578  0.26132717  1
  O  O362  1  0.75823816  0.61881404  0.75433204  1
  O  O363  1  0.36891652  0.11780805  0.37485585  1
  O  O364  1  0.38587709  0.11401111  0.86860499  1
  O  O365  1  0.36791042  0.61556040  0.36269314  1
  O  O366  1  0.36075703  0.62402012  0.86737603  1
  O  O367  1  0.86836554  0.11419333  0.36875136  1
  O  O368  1  0.87196007  0.11810498  0.86354250  1
  O  O369  1  0.86598107  0.61614904  0.38143324  1
  O  O370  1  0.86243704  0.62667378  0.86724852  1
  O  O371  1  0.12358280  0.38340528  0.13134616  1
  O  O372  1  0.12576557  0.39137929  0.62533918  1
  O  O373  1  0.12529246  0.88921656  0.13171625  1
  O  O374  1  0.13503447  0.88425749  0.63208908  1
  O  O375  1  0.64271982  0.39204187  0.11340750  1
  O  O376  1  0.62698809  0.37206935  0.64219925  1
  O  O377  1  0.63077169  0.87744032  0.12762616  1
  O  O378  1  0.63254577  0.87536274  0.62863669  1
  O  O379  1  0.11859549  0.25707566  0.25773978  1
  O  O380  1  0.11760922  0.25044530  0.75961401  1
  O  O381  1  0.12827221  0.75762830  0.26164076  1
  O  O382  1  0.12413070  0.76235534  0.74335086  1
  O  O383  1  0.62903888  0.24239842  0.26808834  1
  O  O384  1  0.61600691  0.25247403  0.75020911  1
  O  O385  1  0.61584783  0.75289516  0.25230528  1
  O  O386  1  0.61401521  0.75242500  0.75730109  1
  O  O387  1  0.37631597  0.24915756  0.24099105  1
  O  O388  1  0.38798235  0.24271102  0.74879421  1
  O  O389  1  0.37719153  0.74560862  0.23987638  1
  O  O390  1  0.38578496  0.74826500  0.75572249  1
  O  O391  1  0.88029237  0.25141051  0.24332699  1
  O  O392  1  0.88095153  0.24263124  0.75000831  1
  O  O393  1  0.87685528  0.76079338  0.23360283  1
  O  O394  1  0.87799049  0.74294491  0.74033629  1
  O  O395  1  0.37409509  0.50281524  0.48192324  1
  O  O396  1  0.39057394  0.49155337  1.00872169  1
  O  O397  1  0.38694236  1.00493952  0.49406439  1
  O  O398  1  0.38745376  1.00208293  0.99431390  1
  O  O399  1  0.88010009  0.49636981  0.49424519  1
  O  O400  1  0.88162230  0.49383874  1.00023282  1
  O  O401  1  0.87382078  0.99102435  0.48920842  1
  O  O402  1  0.88110293  0.99063084  0.99476991  1
  O  O403  1  0.11585065  -0.00298867  0.01313880  1
  O  O404  1  0.12601406  -0.00659604  0.51583358  1
  O  O405  1  0.11764879  0.50629371  0.00595843  1
  O  O406  1  0.11846709  0.50729869  0.50613802  1
  O  O407  1  0.61510520  0.00470671  0.00572608  1
  O  O408  1  0.61783812  0.00349632  0.50483579  1
  O  O409  1  0.61325033  0.50280525  0.00851655  1
  O  O410  1  0.63098884  0.51546796  0.50174737  1
  O  O411  1  0.36984823  0.36564724  0.11285580  1
  O  O412  1  0.38091753  0.36023609  0.62809199  1
  O  O413  1  0.37022011  0.86511180  0.12796409  1
  O  O414  1  0.36208886  0.88061833  0.62954920  1
  O  O415  1  0.86624357  0.37264592  0.11529395  1
  O  O416  1  0.87279824  0.37460848  0.61128908  1
  O  O417  1  0.86791918  0.87081042  0.11655518  1
  O  O418  1  0.87005367  0.86984492  0.61836872  1
  O  O419  1  0.12960502  0.13722970  0.37320085  1
  O  O420  1  0.12023128  0.13704585  0.87084097  1
  O  O421  1  0.13369127  0.63184364  0.38583926  1
  O  O422  1  0.13476522  0.62605326  0.88727814  1
  O  O423  1  0.62820475  0.12089178  0.38701700  1
  O  O424  1  0.62512855  0.11884965  0.89102103  1
  O  O425  1  0.63104030  0.62915434  0.38133931  1
  O  O426  1  0.63697654  0.63080808  0.86641930  1
