# generated using pymatgen
data_V85Zn86O256
_symmetry_space_group_name_H-M   'P 1'
_cell_length_a   16.93692140
_cell_length_b   16.92717340
_cell_length_c   16.93352730
_cell_angle_alpha   90.02418707
_cell_angle_beta   90.03702845
_cell_angle_gamma   90.02497704
_symmetry_Int_Tables_number   1
_chemical_formula_structural   V85Zn86O256
_chemical_formula_sum   'V85 Zn86 O256'
_cell_volume   4854.74224861
_cell_formula_units_Z   1
loop_
 _symmetry_equiv_pos_site_id
 _symmetry_equiv_pos_as_xyz
  1  'x, y, z'
loop_
 _atom_site_type_symbol
 _atom_site_label
 _atom_site_symmetry_multiplicity
 _atom_site_fract_x
 _atom_site_fract_y
 _atom_site_fract_z
 _atom_site_occupancy
  V  V0  1  0.74504978  0.62805835  0.87593369  1
  V  V1  1  0.12001090  0.86763752  0.25011420  1
  V  V2  1  0.62477317  0.12593758  0.50031464  1
  V  V3  1  0.76331166  0.87888933  0.11740371  1
  V  V4  1  0.62812437  0.75303430  0.37639371  1
  V  V5  1  -0.00099190  0.26594807  0.25516239  1
  V  V6  1  0.50120600  0.62595238  0.62733622  1
  V  V7  1  0.12391742  0.12475063  0.00188753  1
  V  V8  1  0.75572278  0.37866968  0.11951822  1
  V  V9  1  0.49106175  0.74827303  0.74774361  1
  V  V10  1  0.11558880  0.24819743  0.86191492  1
  V  V11  1  0.62681022  0.25003404  0.37479060  1
  V  V12  1  0.49653529  -0.00114975  0.50004957  1
  V  V13  1  0.74170494  0.50187089  0.74480776  1
  V  V14  1  0.75080748  0.12525209  0.37495875  1
  V  V15  1  0.49884685  0.00234373  -0.00248291  1
  V  V16  1  0.14519406  0.37693821  0.24900608  1
  V  V17  1  0.37550643  0.51277424  0.86698650  1
  V  V18  1  0.62335700  0.37384657  0.74919486  1
  V  V19  1  0.87871230  0.37520178  0.49208478  1
  V  V20  1  0.24633168  0.25178813  0.00678602  1
  V  V21  1  0.12888300  0.00034162  0.13374569  1
  V  V22  1  0.75227690  0.00490599  0.74974889  1
  V  V23  1  0.86582970  0.49341686  0.89081059  1
  V  V24  1  0.11969038  0.73888026  0.88596462  1
  V  V25  1  0.00993222  0.49186547  0.49816003  1
  V  V26  1  0.37139108  0.36847219  0.50785473  1
  V  V27  1  0.36758991  -0.00128761  0.36615601  1
  V  V28  1  0.13457738  0.62439712  0.50483739  1
  V  V29  1  0.35879177  0.87419268  0.49992556  1
  V  V30  1  0.36877185  0.12897794  0.74439338  1
  V  V31  1  0.75332391  0.75222630  0.50070585  1
  V  V32  1  0.37066132  0.37656001  0.00401363  1
  V  V33  1  0.50019734  0.37260694  0.87611127  1
  V  V34  1  0.87269013  0.00136153  0.88009082  1
  V  V35  1  0.37543251  0.49981366  0.37480940  1
  V  V36  1  0.62412998  0.00280250  0.62451767  1
  V  V37  1  0.62613610  0.13686321  -0.00930783  1
  V  V38  1  0.87210645  0.62197462  0.74926235  1
  V  V39  1  0.24416768  0.12361021  0.37464205  1
  V  V40  1  0.87762186  0.73255565  0.13075563  1
  V  V41  1  0.50379301  0.50542368  0.01200727  1
  V  V42  1  0.11908619  -0.00920885  0.61538692  1
  V  V43  1  0.01677151  0.62305831  0.13377121  1
  V  V44  1  0.38223492  0.74827586  0.12390912  1
  V  V45  1  0.13166485  0.87213378  0.74977658  1
  V  V46  1  0.62343422  0.75012601  0.87525398  1
  V  V47  1  0.37287517  0.87629111  -0.00026526  1
  V  V48  1  0.62380550  0.87659206  0.75028918  1
  V  V49  1  0.00660792  0.61616532  0.62466078  1
  V  V50  1  0.49217137  0.13082431  0.62271010  1
  V  V51  1  0.62663091  0.00150966  0.12313620  1
  V  V52  1  0.88938774  0.24941954  0.62865981  1
  V  V53  1  0.63042307  0.62135221  0.50310214  1
  V  V54  1  0.49287117  0.87639710  0.87339993  1
  V  V55  1  0.75248099  0.87691841  0.62403071  1
  V  V56  1  0.00130920  0.74668301  0.75214018  1
  V  V57  1  0.11779027  0.74435097  0.37288761  1
  V  V58  1  0.50249250  0.37542034  0.37566285  1
  V  V59  1  0.25584304  0.63477590  0.37613701  1
  V  V60  1  0.62181006  0.62801122  0.01465652  1
  V  V61  1  0.25100705  0.87754484  0.12977958  1
  V  V62  1  0.50063279  0.87612882  0.37573581  1
  V  V63  1  -0.00517292  0.87293349  0.87918207  1
  V  V64  1  0.88107688  0.50919893  0.37170299  1
  V  V65  1  0.50087931  0.25056351  0.75024887  1
  V  V66  1  0.87675358  0.12841137  0.24920384  1
  V  V67  1  0.62495486  0.38184240  0.24247758  1
  V  V68  1  -0.00270560  -0.00546268  0.00404756  1
  V  V69  1  -0.00038143  0.12738898  0.12711239  1
  V  V70  1  0.89116792  0.12757412  0.74678955  1
  V  V71  1  0.88693073  0.00214468  0.37989107  1
  V  V72  1  0.49827295  0.12700296  0.12430792  1
  V  V73  1  0.24869160  0.12196485  0.87405457  1
  V  V74  1  0.01464290  0.49783337  0.00183544  1
  V  V75  1  0.88757649  0.87780855  0.50185022  1
  V  V76  1  0.50623394  0.49865642  0.50570347  1
  V  V77  1  0.74978197  0.50778924  0.25067385  1
  V  V78  1  0.62867623  0.87719445  0.24848112  1
  V  V79  1  0.38536176  0.62596883  0.24536741  1
  V  V80  1  0.36580587  0.75232770  0.61635943  1
  V  V81  1  0.74707239  0.37631889  0.62274828  1
  V  V82  1  0.49794328  0.24863841  0.25000694  1
  V  V83  1  0.10850239  0.12668508  0.50676445  1
  V  V84  1  0.24589785  0.74138413  -0.00311647  1
  Zn  Zn85  1  0.00062853  0.87098611  0.37323639  1
  Zn  Zn86  1  0.14263292  0.49280477  0.11509632  1
  Zn  Zn87  1  0.87768230  0.74915334  0.62493232  1
  Zn  Zn88  1  0.75580409  0.62940709  0.37181501  1
  Zn  Zn89  1  0.74728867  0.13702162  0.86903417  1
  Zn  Zn90  1  0.36891339  0.25416516  0.12873597  1
  Zn  Zn91  1  0.87734866  0.25794217  0.11776923  1
  Zn  Zn92  1  0.24392191  0.37906453  0.63811426  1
  Zn  Zn93  1  0.75270719  0.00269160  0.24821848  1
  Zn  Zn94  1  0.12817387  0.39896691  0.74655672  1
  Zn  Zn95  1  0.76039997  0.75679297  -0.00387626  1
  Zn  Zn96  1  0.75640670  0.26513578  -0.01591034  1
  Zn  Zn97  1  0.37038919  -0.00005123  0.87152714  1
  Zn  Zn98  1  0.25962803  0.50087839  0.23838401  1
  Zn  Zn99  1  0.12257321  0.25734921  0.38094926  1
  Zn  Zn100  1  -0.00872202  0.36611916  0.87577481  1
  Zn  Zn101  1  0.25035187  -0.00570481  0.74255930  1
  Zn  Zn102  1  0.21246661  0.58862039  0.84767671  1
  Zn  Zn103  1  0.36536176  0.12162184  0.24660562  1
  Zn  Zn104  1  0.25185662  0.24401316  0.50656732  1
  Zn  Zn105  1  0.50690480  0.74708990  0.24423153  1
  Zn  Zn106  1  0.75216798  0.24989821  0.50310419  1
  Zn  Zn107  1  0.18413322  0.18956542  0.19166786  1
  Zn  Zn108  1  0.18974063  0.19332151  0.67953838  1
  Zn  Zn109  1  0.19628118  0.68662070  0.18894727  1
  Zn  Zn110  1  0.20339747  0.56461235  0.68735471  1
  Zn  Zn111  1  0.68659197  0.19228658  0.18460547  1
  Zn  Zn112  1  0.68775213  0.19179021  0.68806167  1
  Zn  Zn113  1  0.69395378  0.69423773  0.18772891  1
  Zn  Zn114  1  0.68392283  0.69077582  0.68555600  1
  Zn  Zn115  1  0.31385642  0.30606471  0.32216668  1
  Zn  Zn116  1  0.31195032  0.31130684  0.81549800  1
  Zn  Zn117  1  0.31075632  0.81236097  0.30978501  1
  Zn  Zn118  1  0.27300363  0.75135856  0.77188664  1
  Zn  Zn119  1  0.81201987  0.31525725  0.30966426  1
  Zn  Zn120  1  0.81146452  0.31121491  0.80944304  1
  Zn  Zn121  1  0.81550493  0.81460375  0.30984100  1
  Zn  Zn122  1  0.81422906  0.81422293  0.81247948  1
  Zn  Zn123  1  0.19081851  0.43864416  0.43134798  1
  Zn  Zn124  1  0.19179815  0.42838732  0.92577406  1
  Zn  Zn125  1  0.18362766  0.93926186  0.43565809  1
  Zn  Zn126  1  0.18425848  0.93370219  0.93903694  1
  Zn  Zn127  1  0.69120928  0.43850287  0.43417332  1
  Zn  Zn128  1  0.68070127  0.44003325  0.93509468  1
  Zn  Zn129  1  0.69284808  0.94087187  0.43784834  1
  Zn  Zn130  1  0.68488998  0.94110574  0.93744316  1
  Zn  Zn131  1  0.31182375  0.06267973  0.06195938  1
  Zn  Zn132  1  0.30313623  0.05764631  0.56128816  1
  Zn  Zn133  1  0.31579352  0.56356089  0.05827753  1
  Zn  Zn134  1  0.32076731  0.56201705  0.55977752  1
  Zn  Zn135  1  0.81111714  0.06914658  0.06074985  1
  Zn  Zn136  1  0.81707238  0.06501666  0.56217933  1
  Zn  Zn137  1  0.80127351  0.56588303  0.06757795  1
  Zn  Zn138  1  0.81707784  0.56022642  0.56210161  1
  Zn  Zn139  1  0.43729520  0.43719268  0.18584168  1
  Zn  Zn140  1  0.43119497  0.44181812  0.68606438  1
  Zn  Zn141  1  0.44083346  0.93614364  0.18727561  1
  Zn  Zn142  1  0.43189619  0.93872558  0.68616461  1
  Zn  Zn143  1  0.93613165  0.44628457  0.18539294  1
  Zn  Zn144  1  0.93884973  0.43281187  0.68733416  1
  Zn  Zn145  1  0.93916187  0.93985241  0.19343153  1
  Zn  Zn146  1  0.94164681  0.93828932  0.68819607  1
  Zn  Zn147  1  0.06405411  0.06477307  0.31268542  1
  Zn  Zn148  1  0.06649568  0.05670709  0.81161873  1
  Zn  Zn149  1  0.06759794  0.55482703  0.31290378  1
  Zn  Zn150  1  0.04019858  0.53443068  0.80168256  1
  Zn  Zn151  1  0.56095894  0.06125824  0.31143760  1
  Zn  Zn152  1  0.55953608  0.06292494  0.81052477  1
  Zn  Zn153  1  0.56500001  0.56444210  0.31693877  1
  Zn  Zn154  1  0.55906118  0.56147500  0.81460167  1
  Zn  Zn155  1  0.43522618  0.18490629  0.43360566  1
  Zn  Zn156  1  0.43394234  0.19088320  0.93474123  1
  Zn  Zn157  1  0.44205323  0.68910162  0.43815503  1
  Zn  Zn158  1  0.43760796  0.68858441  0.94026925  1
  Zn  Zn159  1  0.93852137  0.19274028  0.43752013  1
  Zn  Zn160  1  0.93380057  0.18471914  0.93896550  1
  Zn  Zn161  1  0.94124973  0.68572150  0.44095160  1
  Zn  Zn162  1  0.93561227  0.68056367  0.94737066  1
  Zn  Zn163  1  0.06105369  0.31630916  0.06430873  1
  Zn  Zn164  1  0.07230040  0.31586415  0.57065753  1
  Zn  Zn165  1  0.05679022  0.80979087  0.06687296  1
  Zn  Zn166  1  0.06925102  0.80316807  0.56506708  1
  Zn  Zn167  1  0.56113721  0.31515558  0.06377205  1
  Zn  Zn168  1  0.56297372  0.31206646  0.56485269  1
  Zn  Zn169  1  0.56592052  0.81503527  0.06048183  1
  Zn  Zn170  1  0.56206455  0.81425954  0.56151616  1
  O  O171  1  0.12039197  0.11691752  0.12328087  1
  O  O172  1  0.12485831  0.11621409  0.61076306  1
  O  O173  1  0.11954625  0.62220990  0.12818341  1
  O  O174  1  0.11858281  0.61840620  0.61572661  1
  O  O175  1  0.61524153  0.12254140  0.11792538  1
  O  O176  1  0.61773851  0.12113453  0.61974093  1
  O  O177  1  0.62601869  0.63741253  0.11389664  1
  O  O178  1  0.61710522  0.63058779  0.61104570  1
  O  O179  1  0.38455248  0.38320033  0.37896304  1
  O  O180  1  0.38317524  0.37912548  0.88661487  1
  O  O181  1  0.37844192  0.88009194  0.37961618  1
  O  O182  1  0.38753815  0.87675738  0.87957597  1
  O  O183  1  0.86946506  0.37948990  0.38871929  1
  O  O184  1  0.87237670  0.39132844  0.87026154  1
  O  O185  1  0.87641224  0.88447914  0.38233297  1
  O  O186  1  0.88547949  0.88617435  0.87027861  1
  O  O187  1  0.25795295  0.00615134  0.37695271  1
  O  O188  1  0.24584394  0.01094290  0.87308732  1
  O  O189  1  0.26699908  0.50787613  0.37059691  1
  O  O190  1  0.27210294  0.50322072  0.89508882  1
  O  O191  1  0.75757446  0.01369630  0.37279582  1
  O  O192  1  0.75717938  0.00141445  0.86731222  1
  O  O193  1  0.76024757  0.50340821  0.36857465  1
  O  O194  1  0.75355469  0.50548165  0.86780898  1
  O  O195  1  0.25467252  0.50089029  0.12486646  1
  O  O196  1  0.26805034  0.49429588  0.62814578  1
  O  O197  1  0.24051700  0.99131720  0.11968559  1
  O  O198  1  0.22972250  1.00014988  0.62843937  1
  O  O199  1  0.74802687  0.48986488  0.13655753  1
  O  O200  1  0.75752517  0.48771406  0.63259270  1
  O  O201  1  0.74386643  0.99553434  0.12519571  1
  O  O202  1  0.74570227  0.99685970  0.63089525  1
  O  O203  1  -0.00285428  0.36624022  0.24756283  1
  O  O204  1  0.01121661  0.41459367  0.76974734  1
  O  O205  1  0.01524628  0.87553929  0.25049308  1
  O  O206  1  0.00111725  0.86340782  0.75871359  1
  O  O207  1  0.50645636  0.36973276  0.25505932  1
  O  O208  1  0.50325274  0.36941349  0.75185692  1
  O  O209  1  0.51399447  0.87508741  0.25576551  1
  O  O210  1  0.50333209  0.87147113  0.75594310  1
  O  O211  1  0.50008088  0.13278626  0.24150780  1
  O  O212  1  0.49388926  0.13136035  0.74287836  1
  O  O213  1  0.49048789  0.62915176  0.25707390  1
  O  O214  1  0.50826338  0.63440657  0.73833188  1
  O  O215  1  0.99352162  0.13238285  0.24602164  1
  O  O216  1  0.98937183  0.11844467  0.75298211  1
  O  O217  1  1.00206462  0.60893217  0.23207243  1
  O  O218  1  0.99032013  0.62542614  0.74492565  1
  O  O219  1  0.36551718  0.25758971  -0.00000056  1
  O  O220  1  0.37961752  0.26643667  0.49212789  1
  O  O221  1  0.36970678  0.75809797  0.00470167  1
  O  O222  1  0.38199438  0.76065546  0.50732791  1
  O  O223  1  0.86414785  0.23496476  0.00803613  1
  O  O224  1  0.87449724  0.25741944  0.50953972  1
  O  O225  1  0.87600203  0.74840025  0.02074016  1
  O  O226  1  0.86829749  0.75731963  0.50076738  1
  O  O227  1  0.11969481  0.23709043  0.49896080  1
  O  O228  1  0.12875828  0.24261782  0.99852547  1
  O  O229  1  0.12480550  0.73300553  0.49159012  1
  O  O230  1  0.13238644  0.75897798  0.99683360  1
  O  O231  1  0.62630827  0.24350956  0.49296260  1
  O  O232  1  0.62533304  0.23824571  1.00445191  1
  O  O233  1  0.63472429  0.74717462  0.49557201  1
  O  O234  1  0.62145166  0.74384539  0.98933171  1
  O  O235  1  0.49849100  0.24294809  0.13250182  1
  O  O236  1  0.50118026  0.23739710  0.63091974  1
  O  O237  1  0.48639034  0.76096164  0.12466353  1
  O  O238  1  0.50155352  0.74457661  0.63156008  1
  O  O239  1  0.99824981  0.24428016  0.13563227  1
  O  O240  1  0.98740229  0.25397379  0.62434750  1
  O  O241  1  0.99321429  0.73092493  0.12376861  1
  O  O242  1  1.00055184  0.73627465  0.63639715  1
  O  O243  1  0.00163113  0.24799761  0.35861933  1
  O  O244  1  0.01090932  0.24743962  0.87960149  1
  O  O245  1  0.01357551  0.74757516  0.37489062  1
  O  O246  1  -0.00242530  0.75591519  0.87664988  1
  O  O247  1  0.50564616  0.25280712  0.36704839  1
  O  O248  1  0.49742754  0.26371434  0.86784915  1
  O  O249  1  0.51170694  0.75921492  0.37476978  1
  O  O250  1  0.50216443  0.75650853  0.86634926  1
  O  O251  1  0.23963564  0.12313452  0.49006478  1
  O  O252  1  0.24336939  0.12773401  0.99256756  1
  O  O253  1  0.24511009  0.61760412  0.48942506  1
  O  O254  1  0.25652297  0.64162618  0.99627209  1
  O  O255  1  0.74455302  0.12716530  0.49204121  1
  O  O256  1  0.73111496  0.12254260  0.99758514  1
  O  O257  1  0.74566179  0.63243588  0.50204094  1
  O  O258  1  0.73806243  0.63025299  0.99406676  1
  O  O259  1  0.25837002  0.36332178  -0.00398327  1
  O  O260  1  0.26784189  0.37811797  0.49361638  1
  O  O261  1  0.25585289  0.87124725  0.00931828  1
  O  O262  1  0.25980807  0.87561848  0.49584813  1
  O  O263  1  0.73566342  0.37941248  0.01639573  1
  O  O264  1  0.75747748  0.37522599  0.50766483  1
  O  O265  1  0.74093022  0.87430485  0.01234731  1
  O  O266  1  0.75808222  0.87055448  0.50553590  1
  O  O267  1  0.13614357  0.48583131  0.25002065  1
  O  O268  1  0.14649479  0.51517885  0.77772009  1
  O  O269  1  0.12199512  0.99350651  0.23840091  1
  O  O270  1  0.12802939  0.98672620  0.74506085  1
  O  O271  1  0.63327890  0.49063914  0.26137041  1
  O  O272  1  0.63577009  0.49668872  0.75074395  1
  O  O273  1  0.62755680  0.99482215  0.24240947  1
  O  O274  1  0.63193225  0.99632126  0.74557546  1
  O  O275  1  0.38050119  0.00007165  0.26250710  1
  O  O276  1  0.37007150  0.01163163  0.75114691  1
  O  O277  1  0.38126205  0.50722141  0.25747672  1
  O  O278  1  0.37868363  0.49696542  0.76829663  1
  O  O279  1  0.87363956  0.01040907  0.26066904  1
  O  O280  1  0.86857992  0.00627696  0.75422423  1
  O  O281  1  0.86506580  0.49275713  0.26236987  1
  O  O282  1  0.86258334  0.51094167  0.75686828  1
  O  O283  1  0.12932624  0.37343822  0.35733569  1
  O  O284  1  0.12122506  0.35448323  0.87550319  1
  O  O285  1  0.12585215  0.86463328  0.36806094  1
  O  O286  1  0.10878650  0.87330259  0.86964673  1
  O  O287  1  0.62147415  0.36800721  0.36807803  1
  O  O288  1  0.61531271  0.38234889  0.85881296  1
  O  O289  1  0.62483687  0.87391401  0.36768806  1
  O  O290  1  0.61432864  0.87121120  0.87050880  1
  O  O291  1  0.38709230  0.12502857  0.12647027  1
  O  O292  1  0.38134659  0.11872094  0.63057317  1
  O  O293  1  0.37520554  0.63625265  0.13292830  1
  O  O294  1  0.39258606  0.64121791  0.61155031  1
  O  O295  1  0.87826670  0.12235418  0.13983709  1
  O  O296  1  0.87049806  0.14059812  0.63054893  1
  O  O297  1  0.87351899  0.63024174  0.13273680  1
  O  O298  1  0.88057870  0.62742284  0.63447963  1
  O  O299  1  0.25138034  0.23891032  0.11153487  1
  O  O300  1  0.24824329  0.26231942  0.61705309  1
  O  O301  1  0.26007987  0.75781289  0.11746515  1
  O  O302  1  0.27028485  0.74791379  0.62696246  1
  O  O303  1  0.75000443  0.26992342  0.12903897  1
  O  O304  1  0.75570685  0.26342880  0.62486336  1
  O  O305  1  0.76234496  0.76053099  0.12240027  1
  O  O306  1  0.75252155  0.75910732  0.61997254  1
  O  O307  1  0.24549611  0.23961553  0.38569418  1
  O  O308  1  0.23864644  0.23659706  0.88517918  1
  O  O309  1  0.24565499  0.73895499  0.37334308  1
  O  O310  1  0.23109913  0.75920281  0.88581560  1
  O  O311  1  0.74737005  0.23993978  0.37575596  1
  O  O312  1  0.74408619  0.25037496  0.87201177  1
  O  O313  1  0.74589572  0.75135505  0.38083086  1
  O  O314  1  0.74294467  0.74825772  0.87580125  1
  O  O315  1  0.00539129  0.11323338  0.00688826  1
  O  O316  1  0.00993499  0.12216276  0.49496844  1
  O  O317  1  -0.00896002  0.60688316  0.01865593  1
  O  O318  1  0.00893740  0.61758858  0.50854495  1
  O  O319  1  0.50622173  0.12430049  0.00461822  1
  O  O320  1  0.50215245  0.12034256  0.50622835  1
  O  O321  1  0.50606982  0.61403230  -0.00138174  1
  O  O322  1  0.51030463  0.61803903  0.50385309  1
  O  O323  1  0.49854369  0.38194074  0.49523728  1
  O  O324  1  0.49961150  0.38367793  0.99239704  1
  O  O325  1  0.49791274  0.88306194  0.49225429  1
  O  O326  1  0.49549331  0.88155111  0.99221620  1
  O  O327  1  0.99323984  0.38458105  0.50440977  1
  O  O328  1  0.99743600  0.39239043  0.99842463  1
  O  O329  1  0.98970455  0.86554342  0.49972985  1
  O  O330  1  1.00164815  0.88683564  0.99622796  1
  O  O331  1  0.49386633  0.49716406  0.38451804  1
  O  O332  1  0.49269439  0.49062111  0.88074723  1
  O  O333  1  0.49197248  0.99641163  0.38077075  1
  O  O334  1  0.49801080  0.99267911  0.87909930  1
  O  O335  1  0.99285436  0.50298155  0.38503221  1
  O  O336  1  0.97838211  0.51117151  0.89628635  1
  O  O337  1  0.98954469  0.99672220  0.37223042  1
  O  O338  1  0.99339991  0.99365682  0.88336495  1
  O  O339  1  0.00531744  0.00497571  0.12008458  1
  O  O340  1  0.01923524  0.00089494  0.63353764  1
  O  O341  1  0.00736162  0.50420433  0.11531229  1
  O  O342  1  -0.01015396  0.51070427  0.61339090  1
  O  O343  1  0.50543942  0.00776017  0.11908285  1
  O  O344  1  0.50457449  0.00999719  0.62120641  1
  O  O345  1  0.50331088  0.49696332  0.11072607  1
  O  O346  1  0.49576210  0.50960180  0.61395218  1
  O  O347  1  0.24725573  0.36947258  0.24916869  1
  O  O348  1  0.23956014  0.36633429  0.75540585  1
  O  O349  1  0.24150281  0.87165914  0.23628984  1
  O  O350  1  0.23318138  0.86402912  0.75584199  1
  O  O351  1  0.74187184  0.38327451  0.24493483  1
  O  O352  1  0.74178575  0.38291853  0.74327926  1
  O  O353  1  0.74090548  0.87948026  0.24193181  1
  O  O354  1  0.74671290  0.88640744  0.74526344  1
  O  O355  1  0.24822711  0.13055811  0.26652834  1
  O  O356  1  0.25540945  0.12642834  0.75596806  1
  O  O357  1  0.26728660  0.62442203  0.25893358  1
  O  O358  1  0.24822479  0.64432452  0.75720105  1
  O  O359  1  0.75797093  0.12809465  0.25610251  1
  O  O360  1  0.75207527  0.11392397  0.74787720  1
  O  O361  1  0.74281564  0.61241353  0.25181171  1
  O  O362  1  0.75233842  0.62084494  0.75194378  1
  O  O363  1  0.36579123  0.11450917  0.37453480  1
  O  O364  1  0.36475130  0.12320323  0.86779712  1
  O  O365  1  0.37329029  0.62055845  0.37214870  1
  O  O366  1  0.38527789  0.61287053  0.87377989  1
  O  O367  1  0.87012060  0.12192278  0.36943989  1
  O  O368  1  0.87154592  0.11545544  0.86340073  1
  O  O369  1  0.87385749  0.61385349  0.38071475  1
  O  O370  1  0.86386792  0.61850502  0.86998149  1
  O  O371  1  0.12089499  0.37599388  0.14390713  1
  O  O372  1  0.12551075  0.38937387  0.63071565  1
  O  O373  1  0.13023788  0.87918881  0.13083071  1
  O  O374  1  0.11948492  0.88033628  0.63309753  1
  O  O375  1  0.62904702  0.37328887  0.13886553  1
  O  O376  1  0.63227092  0.37340917  0.63609713  1
  O  O377  1  0.63105251  0.88071634  0.13235461  1
  O  O378  1  0.63003168  0.88353172  0.63047543  1
  O  O379  1  0.11449262  0.26122554  0.25186577  1
  O  O380  1  0.11997622  0.23708135  0.76355162  1
  O  O381  1  0.13256352  0.75585895  0.25871283  1
  O  O382  1  0.10741040  0.75548686  0.76566158  1
  O  O383  1  0.61479064  0.25621847  0.25501239  1
  O  O384  1  0.61019710  0.25722669  0.74637483  1
  O  O385  1  0.62678478  0.75963788  0.25673407  1
  O  O386  1  0.61555908  0.75845445  0.75524455  1
  O  O387  1  0.38694562  0.24798335  0.25008607  1
  O  O388  1  0.38616411  0.23681813  0.75620193  1
  O  O389  1  0.37908050  0.74515158  0.24143241  1
  O  O390  1  0.38800517  0.75796708  0.73448284  1
  O  O391  1  0.88435556  0.24614567  0.24761651  1
  O  O392  1  0.87529363  0.24394338  0.73756088  1
  O  O393  1  0.87612914  0.76198284  0.22858947  1
  O  O394  1  0.88334684  0.73857335  0.75305493  1
  O  O395  1  0.38821533  0.49136366  0.49093594  1
  O  O396  1  0.39080662  0.49535339  0.99505619  1
  O  O397  1  0.37849417  0.99140592  0.49309789  1
  O  O398  1  0.38152083  0.99425239  0.99683923  1
  O  O399  1  0.88350754  0.49286026  0.49241341  1
  O  O400  1  0.86090864  0.50112613  0.99073593  1
  O  O401  1  0.87094666  0.99100243  0.49255824  1
  O  O402  1  0.88136385  1.00865768  0.98867910  1
  O  O403  1  0.11669817  0.00373399  0.01017933  1
  O  O404  1  0.12149854  0.00410124  0.50877751  1
  O  O405  1  0.11646874  0.49673760  -0.00615966  1
  O  O406  1  0.11706666  0.50929618  0.48800398  1
  O  O407  1  0.61606520  0.00935500  0.00527637  1
  O  O408  1  0.61904556  0.00663546  0.50423541  1
  O  O409  1  0.61179745  0.51215257  -0.00639089  1
  O  O410  1  0.61879525  0.50880373  0.49407386  1
  O  O411  1  0.38380341  0.37135744  0.10887019  1
  O  O412  1  0.38314337  0.37332063  0.60830559  1
  O  O413  1  0.36750303  0.87256251  0.12178062  1
  O  O414  1  0.38288638  0.86409660  0.61267200  1
  O  O415  1  0.85939743  0.37827250  0.12701431  1
  O  O416  1  0.86981820  0.36611785  0.62010385  1
  O  O417  1  0.86409447  0.88446683  0.12578603  1
  O  O418  1  0.87176630  0.87411687  0.61907091  1
  O  O419  1  0.12928185  0.12229421  0.38686429  1
  O  O420  1  0.12834275  0.12942709  0.88168523  1
  O  O421  1  0.13599726  0.62892837  0.37694991  1
  O  O422  1  0.11094506  0.63906447  0.88530571  1
  O  O423  1  0.63220728  0.12849532  0.37864427  1
  O  O424  1  0.62153218  0.12181591  0.88809684  1
  O  O425  1  0.62869728  0.63486624  0.38761532  1
  O  O426  1  0.62819903  0.63316795  0.87742018  1
