# generated using pymatgen
data_V85Zn86O256
_symmetry_space_group_name_H-M   'P 1'
_cell_length_a   16.96026910
_cell_length_b   16.95491326
_cell_length_c   16.96226041
_cell_angle_alpha   90.03909873
_cell_angle_beta   89.98978263
_cell_angle_gamma   90.03901589
_symmetry_Int_Tables_number   1
_chemical_formula_structural   V85Zn86O256
_chemical_formula_sum   'V85 Zn86 O256'
_cell_volume   4877.66341515
_cell_formula_units_Z   1
loop_
 _symmetry_equiv_pos_site_id
 _symmetry_equiv_pos_as_xyz
  1  'x, y, z'
loop_
 _atom_site_type_symbol
 _atom_site_label
 _atom_site_symmetry_multiplicity
 _atom_site_fract_x
 _atom_site_fract_y
 _atom_site_fract_z
 _atom_site_occupancy
  V  V0  1  0.00039345  0.62618542  0.12195841  1
  V  V1  1  0.24582738  0.87461054  0.13192582  1
  V  V2  1  0.49779148  -0.00393347  0.50326322  1
  V  V3  1  0.75225021  0.75944455  -0.00093283  1
  V  V4  1  0.62396059  0.12667639  0.49603159  1
  V  V5  1  0.75281853  -0.00486594  0.74332889  1
  V  V6  1  0.12714969  0.62066735  -0.00012822  1
  V  V7  1  0.22686742  0.13035215  0.38047104  1
  V  V8  1  0.00472683  0.50109632  0.49611657  1
  V  V9  1  0.49883907  0.12949793  0.62683848  1
  V  V10  1  0.75054750  0.50049619  0.75158888  1
  V  V11  1  0.87677904  0.37126998  0.49168935  1
  V  V12  1  0.12707684  0.49170186  0.63999934  1
  V  V13  1  0.50566221  0.75635629  0.24903347  1
  V  V14  1  0.00258620  0.00333288  0.49936078  1
  V  V15  1  -0.00179037  0.25026076  0.25179947  1
  V  V16  1  0.37308148  0.87383627  0.00041016  1
  V  V17  1  0.49471649  0.49908736  0.50080675  1
  V  V18  1  0.50066814  0.87878190  0.37831860  1
  V  V19  1  0.06179437  0.31956388  0.41930888  1
  V  V20  1  0.38876067  0.49748651  0.87863490  1
  V  V21  1  0.87858841  0.49882980  0.37456704  1
  V  V22  1  0.62078079  0.74886499  0.87312173  1
  V  V23  1  0.87710801  0.24711872  0.63325551  1
  V  V24  1  0.35733459  0.86857952  0.50242552  1
  V  V25  1  0.75670636  0.26206535  -0.00265773  1
  V  V26  1  -0.00486634  0.12443040  0.12384594  1
  V  V27  1  0.86986218  -0.00612216  0.36737364  1
  V  V28  1  0.75138918  0.11977042  0.36925910  1
  V  V29  1  0.36479340  0.25327800  0.62411562  1
  V  V30  1  0.50159351  -0.00205453  -0.00145875  1
  V  V31  1  0.75179448  0.37541620  0.62624452  1
  V  V32  1  0.12915699  0.87247924  0.73885837  1
  V  V33  1  0.43047554  0.44765280  0.31624492  1
  V  V34  1  -0.00232193  -0.00459310  -0.00173897  1
  V  V35  1  0.24973484  0.37519919  0.11929679  1
  V  V36  1  0.13491074  0.75075784  0.37336597  1
  V  V37  1  0.74387900  0.49398854  0.23489949  1
  V  V38  1  0.00923695  0.12512695  0.62870341  1
  V  V39  1  0.63113046  -0.00031031  0.13511117  1
  V  V40  1  0.61677229  0.25061986  0.87294756  1
  V  V41  1  0.36693438  0.75377300  0.63056759  1
  V  V42  1  0.87552350  0.62727707  0.24848136  1
  V  V43  1  0.75306398  0.75181019  0.51574918  1
  V  V44  1  0.75189454  0.12509222  0.87274694  1
  V  V45  1  -0.00584287  0.36756480  0.85703875  1
  V  V46  1  -0.00229621  0.87163081  0.87725548  1
  V  V47  1  0.24745122  0.12091891  0.87513678  1
  V  V48  1  0.62607373  -0.00218365  0.62639486  1
  V  V49  1  -0.00185648  0.75044172  0.74429889  1
  V  V50  1  0.62578207  0.12123429  -0.00389199  1
  V  V51  1  0.62678504  0.87059081  0.74369878  1
  V  V52  1  0.87396427  -0.00626096  0.87833442  1
  V  V53  1  0.87569413  0.87077275  0.51343701  1
  V  V54  1  0.49737610  0.12527504  0.12994309  1
  V  V55  1  0.49735565  0.87141454  0.86581744  1
  V  V56  1  0.25260345  0.62139689  0.87368573  1
  V  V57  1  0.37213484  -0.00117791  0.87269681  1
  V  V58  1  0.37114664  0.00528443  0.37608974  1
  V  V59  1  0.11874194  0.37390768  0.24828739  1
  V  V60  1  0.37645821  0.62886282  0.25700444  1
  V  V61  1  0.36984384  0.37804675  0.50428540  1
  V  V62  1  0.00153341  0.87107375  0.36787273  1
  V  V63  1  0.12589573  0.74915371  0.87337110  1
  V  V64  1  0.25085363  -0.00359385  0.73950863  1
  V  V65  1  0.87565025  0.26664654  0.12049424  1
  V  V66  1  0.62371287  0.50281870  0.62467414  1
  V  V67  1  0.12193438  -0.00474637  0.13346699  1
  V  V68  1  0.12322424  0.12274946  -0.00039554  1
  V  V69  1  0.50225967  0.61787304  0.12263648  1
  V  V70  1  0.75090070  0.62516154  0.87706413  1
  V  V71  1  -0.00578426  0.48801920  0.00068216  1
  V  V72  1  0.61687997  0.37573359  0.75343513  1
  V  V73  1  0.87492824  0.62942610  0.74936341  1
  V  V74  1  0.87574852  0.75835987  0.11967423  1
  V  V75  1  0.74536399  0.24790396  0.50135792  1
  V  V76  1  0.24759102  0.25043117  0.00025074  1
  V  V77  1  0.38633814  0.37791816  -0.00347289  1
  V  V78  1  0.24661572  0.49945982  0.25296563  1
  V  V79  1  0.38315704  0.62626415  0.75106925  1
  V  V80  1  0.62232254  0.61592201  0.00450402  1
  V  V81  1  -0.00101625  0.62735393  0.62368326  1
  V  V82  1  0.75187567  0.63007959  0.37562305  1
  V  V83  1  0.11855769  0.25035925  0.86103425  1
  V  V84  1  0.37649199  0.75244732  0.12482044  1
  Zn  Zn85  1  0.37486813  0.13211636  0.25818235  1
  Zn  Zn86  1  0.12576763  0.50071542  0.12245940  1
  Zn  Zn87  1  0.38096160  0.25305386  0.12902618  1
  Zn  Zn88  1  0.25518566  0.62851223  0.37985467  1
  Zn  Zn89  1  0.62878999  0.75521010  0.37918874  1
  Zn  Zn90  1  0.86712034  0.12469521  0.24571925  1
  Zn  Zn91  1  0.13403849  0.63483937  0.50645621  1
  Zn  Zn92  1  0.55594706  0.32269840  0.33378853  1
  Zn  Zn93  1  0.37429869  0.12613749  0.74976072  1
  Zn  Zn94  1  0.50033398  0.63158169  0.62550698  1
  Zn  Zn95  1  0.62282627  0.62933412  0.50100888  1
  Zn  Zn96  1  0.24946999  0.74855994  0.00243142  1
  Zn  Zn97  1  0.75592736  0.88266716  0.12930593  1
  Zn  Zn98  1  0.25577173  0.48464503  0.74532601  1
  Zn  Zn99  1  0.00614834  0.75335182  0.24664943  1
  Zn  Zn100  1  0.63663343  0.88278060  0.25804034  1
  Zn  Zn101  1  0.49440537  0.25444631  0.75133931  1
  Zn  Zn102  1  0.88017333  0.12610997  0.75115861  1
  Zn  Zn103  1  0.24738997  0.00201672  0.25261537  1
  Zn  Zn104  1  0.87066447  0.49247187  0.88006270  1
  Zn  Zn105  1  0.23619615  0.25391475  0.49828647  1
  Zn  Zn106  1  0.13161363  -0.00154100  0.61540020  1
  Zn  Zn107  1  0.18694782  0.18627472  0.19177647  1
  Zn  Zn108  1  0.19012000  0.18337584  0.68625169  1
  Zn  Zn109  1  0.18741112  0.68953942  0.19080683  1
  Zn  Zn110  1  0.19004472  0.68138328  0.68796711  1
  Zn  Zn111  1  0.68921121  0.30429740  0.17379981  1
  Zn  Zn112  1  0.68736700  0.18609044  0.68753982  1
  Zn  Zn113  1  0.68870524  0.69128292  0.18692833  1
  Zn  Zn114  1  0.68650723  0.68675432  0.68972632  1
  Zn  Zn115  1  0.30576528  0.30428859  0.30900347  1
  Zn  Zn116  1  0.31172104  0.31083515  0.81195210  1
  Zn  Zn117  1  0.31427909  0.81551700  0.31163453  1
  Zn  Zn118  1  0.30973860  0.80965948  0.81084669  1
  Zn  Zn119  1  0.72185627  0.31672645  0.32845480  1
  Zn  Zn120  1  0.81008815  0.31437055  0.81390496  1
  Zn  Zn121  1  0.81350101  0.81232768  0.31138867  1
  Zn  Zn122  1  0.81169772  0.81133881  0.80982843  1
  Zn  Zn123  1  0.21122171  0.47332308  0.46062146  1
  Zn  Zn124  1  0.20008551  0.41894377  0.90216917  1
  Zn  Zn125  1  0.18326242  0.93710422  0.43137102  1
  Zn  Zn126  1  0.18550285  0.93479105  0.93855079  1
  Zn  Zn127  1  0.69254066  0.44955714  0.44363598  1
  Zn  Zn128  1  0.68253661  0.43638467  0.93873001  1
  Zn  Zn129  1  0.68868317  0.93589363  0.44210271  1
  Zn  Zn130  1  0.68725707  0.93523098  0.93420311  1
  Zn  Zn131  1  0.31125732  0.05932353  0.06241611  1
  Zn  Zn132  1  0.31176479  0.06773211  0.55654418  1
  Zn  Zn133  1  0.31608512  0.55991069  0.06583459  1
  Zn  Zn134  1  0.31238714  0.56603642  0.56918516  1
  Zn  Zn135  1  0.81202408  0.06531145  0.05792443  1
  Zn  Zn136  1  0.81658705  0.06057713  0.56146126  1
  Zn  Zn137  1  0.81408793  0.56884005  0.05931665  1
  Zn  Zn138  1  0.81631051  0.56407241  0.56324788  1
  Zn  Zn139  1  0.57092674  0.44611511  0.17284754  1
  Zn  Zn140  1  0.43618212  0.43949080  0.68567423  1
  Zn  Zn141  1  0.43726625  0.94222093  0.19110869  1
  Zn  Zn142  1  0.43570646  0.93472142  0.68454169  1
  Zn  Zn143  1  0.93729698  0.44120091  0.18920857  1
  Zn  Zn144  1  0.93433493  0.44294378  0.68472288  1
  Zn  Zn145  1  0.93548823  0.93835993  0.18887668  1
  Zn  Zn146  1  0.94177134  0.94058985  0.68996537  1
  Zn  Zn147  1  0.05427179  0.06096515  0.31130169  1
  Zn  Zn148  1  0.06459931  0.05910842  0.80889733  1
  Zn  Zn149  1  0.06561208  0.56566386  0.31307623  1
  Zn  Zn150  1  0.05751051  0.56067579  0.81782778  1
  Zn  Zn151  1  0.57859510  0.16722515  0.30143827  1
  Zn  Zn152  1  0.56190130  0.06082640  0.81034636  1
  Zn  Zn153  1  0.56891366  0.57272135  0.31322729  1
  Zn  Zn154  1  0.56292925  0.56371160  0.81360952  1
  Zn  Zn155  1  0.43581193  0.19086499  0.44043317  1
  Zn  Zn156  1  0.43356980  0.18586328  0.93979733  1
  Zn  Zn157  1  0.43891710  0.69184333  0.44153368  1
  Zn  Zn158  1  0.43900776  0.68773680  0.93861924  1
  Zn  Zn159  1  0.93160021  0.18262502  0.44182387  1
  Zn  Zn160  1  0.93695002  0.18711459  0.93630382  1
  Zn  Zn161  1  0.93985369  0.69002927  0.43833076  1
  Zn  Zn162  1  0.93651750  0.68637819  0.93677575  1
  Zn  Zn163  1  0.06626026  0.31018910  0.06042361  1
  Zn  Zn164  1  0.06016513  0.31450054  0.58652640  1
  Zn  Zn165  1  0.06403506  0.81059402  0.05984367  1
  Zn  Zn166  1  0.06225062  0.81090126  0.55689386  1
  Zn  Zn167  1  0.56275267  0.30454239  0.05389218  1
  Zn  Zn168  1  0.55850706  0.31606325  0.55745945  1
  Zn  Zn169  1  0.56446366  0.81319424  0.06056226  1
  Zn  Zn170  1  0.55745203  0.80844973  0.56409929  1
  O  O171  1  0.11308793  0.11786430  0.12013477  1
  O  O172  1  0.11258037  0.12261739  0.62390773  1
  O  O173  1  0.11781818  0.62599686  0.11730817  1
  O  O174  1  0.11351356  0.61799611  0.62414584  1
  O  O175  1  0.61104381  0.10974105  0.11111118  1
  O  O176  1  0.61854907  0.11887437  0.61879181  1
  O  O177  1  0.61585018  0.63503411  0.11563002  1
  O  O178  1  0.62224349  0.61439063  0.62723727  1
  O  O179  1  0.37671298  0.38124428  0.37288323  1
  O  O180  1  0.37348934  0.38222697  0.88875507  1
  O  O181  1  0.37607928  0.88157465  0.38654718  1
  O  O182  1  0.38137950  0.87633181  0.87859419  1
  O  O183  1  0.86713456  0.38260231  0.39080148  1
  O  O184  1  0.88872981  0.37354171  0.87348593  1
  O  O185  1  0.88122916  0.87907537  0.38255020  1
  O  O186  1  0.88494193  0.88137560  0.86853233  1
  O  O187  1  0.25282954  0.00895735  0.37456622  1
  O  O188  1  0.25345613  0.00276208  0.86914596  1
  O  O189  1  0.24790817  0.49947653  0.35463005  1
  O  O190  1  0.26157369  0.51632042  0.88342574  1
  O  O191  1  0.76047461  0.00639921  0.38708789  1
  O  O192  1  0.75673782  0.00385525  0.86806935  1
  O  O193  1  0.76018773  0.51604874  0.37225227  1
  O  O194  1  0.75034110  0.50660336  0.86978961  1
  O  O195  1  0.24840777  0.49154578  0.13283111  1
  O  O196  1  0.23256655  0.50333850  0.63112257  1
  O  O197  1  0.23882287  0.99407072  0.12529516  1
  O  O198  1  0.24979032  1.00710148  0.63580121  1
  O  O199  1  0.75442890  0.50906939  0.13766828  1
  O  O200  1  0.74375216  0.49667054  0.62951046  1
  O  O201  1  0.73513792  1.00158544  0.11469212  1
  O  O202  1  0.74614980  1.00452095  0.63733889  1
  O  O203  1  0.01037472  0.37065197  0.24478214  1
  O  O204  1  -0.00306908  0.37785443  0.75908284  1
  O  O205  1  -0.00518574  0.87426460  0.26381618  1
  O  O206  1  0.00755775  0.87015328  0.75793363  1
  O  O207  1  0.49561504  0.39487069  0.25760516  1
  O  O208  1  0.51348283  0.37469320  0.74506790  1
  O  O209  1  0.50095975  0.87092075  0.25948961  1
  O  O210  1  0.50662747  0.88012217  0.76060546  1
  O  O211  1  0.50095435  0.11533580  0.23141175  1
  O  O212  1  0.49910286  0.12543193  0.73720022  1
  O  O213  1  0.49499867  0.63604126  0.24514272  1
  O  O214  1  0.48719775  0.62409769  0.75079510  1
  O  O215  1  0.99658381  0.13308901  0.24132663  1
  O  O216  1  0.99741612  0.11531099  0.73372720  1
  O  O217  1  0.99393671  0.62176067  0.23533143  1
  O  O218  1  0.99248484  0.62950204  0.74681784  1
  O  O219  1  0.36490592  0.25906873  0.00024831  1
  O  O220  1  0.37447169  0.26063890  0.50806841  1
  O  O221  1  0.37418759  0.75770807  0.00699933  1
  O  O222  1  0.37016313  0.76334794  0.50368975  1
  O  O223  1  0.87058391  0.24391349  0.01113024  1
  O  O224  1  0.87015194  0.25585327  0.51208790  1
  O  O225  1  0.86552675  0.74313486  0.00783153  1
  O  O226  1  0.86808551  0.76179923  0.49954965  1
  O  O227  1  0.11724522  0.27055069  0.49451283  1
  O  O228  1  0.12894708  0.23937808  0.99324691  1
  O  O229  1  0.12107298  0.74809754  0.48295714  1
  O  O230  1  0.12454543  0.73710633  0.99158497  1
  O  O231  1  0.63394369  0.23954771  0.51069146  1
  O  O232  1  0.63569785  0.24011295  0.98897859  1
  O  O233  1  0.64004257  0.75090459  0.50212566  1
  O  O234  1  0.63195483  0.74729627  0.98864763  1
  O  O235  1  0.49931480  0.22831849  0.11298499  1
  O  O236  1  0.49210127  0.24304618  0.62534040  1
  O  O237  1  0.49475371  0.75078234  0.13316818  1
  O  O238  1  0.47828734  0.74528430  0.61567194  1
  O  O239  1  0.99290701  0.24220644  0.12479748  1
  O  O240  1  0.99182607  0.23419732  0.62427501  1
  O  O241  1  0.99459686  0.74319336  0.12411929  1
  O  O242  1  1.00476352  0.74099328  0.63247302  1
  O  O243  1  -0.00513028  0.25077648  0.36800614  1
  O  O244  1  0.00223314  0.25781735  0.87301146  1
  O  O245  1  0.00511414  0.75714931  0.37132517  1
  O  O246  1  0.00399820  0.75498582  0.86728934  1
  O  O247  1  0.50650916  0.22979510  0.36659341  1
  O  O248  1  0.51312261  0.24048903  0.87287657  1
  O  O249  1  0.49990335  0.76313679  0.36942945  1
  O  O250  1  0.50900273  0.75982889  0.87891845  1
  O  O251  1  0.24571226  0.12789036  0.48543786  1
  O  O252  1  0.24381882  0.12876694  0.99562922  1
  O  O253  1  0.23957950  0.58964020  0.48722328  1
  O  O254  1  0.24211644  0.62582428  0.99819778  1
  O  O255  1  0.74233930  0.13045608  0.50202675  1
  O  O256  1  0.74679038  0.12901714  0.98518658  1
  O  O257  1  0.75529740  0.63648625  0.49497624  1
  O  O258  1  0.74208609  0.63433628  0.99427716  1
  O  O259  1  0.24589196  0.36580652  0.00120976  1
  O  O260  1  0.26614434  0.37700486  0.49161936  1
  O  O261  1  0.25652321  0.87332668  0.00893164  1
  O  O262  1  0.25988742  0.88068752  0.49955729  1
  O  O263  1  0.75351342  0.36127077  -0.01148079  1
  O  O264  1  0.75858595  0.36827596  0.50962064  1
  O  O265  1  0.74695995  0.86267885  0.00143946  1
  O  O266  1  0.76261569  0.86249892  0.49923231  1
  O  O267  1  0.12924144  0.49346694  0.24418806  1
  O  O268  1  0.12349648  0.50909323  0.74128482  1
  O  O269  1  0.12112402  1.00118022  0.23612975  1
  O  O270  1  0.13384481  0.98911534  0.74703959  1
  O  O271  1  0.63928552  0.50726125  0.24857585  1
  O  O272  1  0.62986982  0.49471973  0.74582459  1
  O  O273  1  0.62453111  1.00212225  0.23282317  1
  O  O274  1  0.63245971  0.99129215  0.74615818  1
  O  O275  1  0.37152806  0.00548639  0.26271382  1
  O  O276  1  0.36709518  -0.00202710  0.75535336  1
  O  O277  1  0.37138456  0.50721781  0.25378292  1
  O  O278  1  0.37386330  0.50597371  0.75875154  1
  O  O279  1  0.87704394  0.00326602  0.26341514  1
  O  O280  1  0.86740761  -0.00088666  0.75925588  1
  O  O281  1  0.86781229  0.51069048  0.25251645  1
  O  O282  1  0.86773626  0.51039511  0.75296288  1
  O  O283  1  0.12474438  0.37868927  0.36363910  1
  O  O284  1  0.10158416  0.36053233  0.88585579  1
  O  O285  1  0.11539335  0.86288709  0.37654838  1
  O  O286  1  0.11832758  0.86761591  0.86715019  1
  O  O287  1  0.64050933  0.37414184  0.38393006  1
  O  O288  1  0.62902085  0.36373895  0.86532634  1
  O  O289  1  0.61527576  0.87555848  0.37622778  1
  O  O290  1  0.61716607  0.86888379  0.86571818  1
  O  O291  1  0.38966036  0.11862399  0.12111821  1
  O  O292  1  0.38290867  0.13337997  0.62424404  1
  O  O293  1  0.38154259  0.63410548  0.13302042  1
  O  O294  1  0.37686518  0.63208063  0.63523571  1
  O  O295  1  0.88637876  0.12272293  0.12501795  1
  O  O296  1  0.88207625  0.13146401  0.62759000  1
  O  O297  1  0.88279622  0.63389174  0.12956457  1
  O  O298  1  0.88890575  0.61844044  0.63496597  1
  O  O299  1  0.24367401  0.25333707  0.11133694  1
  O  O300  1  0.26016465  0.24380753  0.61828240  1
  O  O301  1  0.25612095  0.75793297  0.12450818  1
  O  O302  1  0.26611103  0.73940197  0.62198039  1
  O  O303  1  0.76819875  0.24676970  0.11340514  1
  O  O304  1  0.75616580  0.25316329  0.61822852  1
  O  O305  1  0.75928684  0.74894310  0.11468275  1
  O  O306  1  0.75323552  0.74387053  0.61445501  1
  O  O307  1  0.24484237  0.23502620  0.37910639  1
  O  O308  1  0.24083123  0.23999201  0.88581335  1
  O  O309  1  0.23936259  0.75038961  0.37022614  1
  O  O310  1  0.24577240  0.73841972  0.87873258  1
  O  O311  1  0.76392426  0.23550732  0.39643920  1
  O  O312  1  0.74488797  0.24052279  0.87696077  1
  O  O313  1  0.75396074  0.74016658  0.38334036  1
  O  O314  1  0.74423773  0.74506804  0.88129397  1
  O  O315  1  0.00352258  0.11687926  0.00537964  1
  O  O316  1  -0.00798285  0.11327375  0.51236767  1
  O  O317  1  0.00520107  0.62038551  0.00735056  1
  O  O318  1  -0.00100049  0.61723003  0.50882462  1
  O  O319  1  0.50186835  0.11058580  0.00003197  1
  O  O320  1  0.50653921  0.11801215  0.51099906  1
  O  O321  1  0.50984265  0.63454333  0.01089744  1
  O  O322  1  0.50084904  0.61393395  0.49954611  1
  O  O323  1  0.49168196  0.38919872  0.49781948  1
  O  O324  1  0.48388933  0.36973264  1.00166868  1
  O  O325  1  0.49240308  0.87868077  0.49485910  1
  O  O326  1  0.49580680  0.88322670  0.98992216  1
  O  O327  1  0.99662271  0.37611839  0.49450274  1
  O  O328  1  1.00045174  0.38780947  1.00391291  1
  O  O329  1  0.98808818  0.87744391  0.49200943  1
  O  O330  1  1.00545264  0.87823896  0.98464828  1
  O  O331  1  0.49226969  0.50578880  0.37625671  1
  O  O332  1  0.48819507  0.50517025  0.87702173  1
  O  O333  1  0.48796935  0.98738407  0.38424943  1
  O  O334  1  0.49339704  0.99272940  0.87918186  1
  O  O335  1  0.99334107  0.50696218  0.38456823  1
  O  O336  1  0.99799299  0.48609081  0.88471733  1
  O  O337  1  0.99147427  0.99229194  0.38182976  1
  O  O338  1  0.99321729  0.99125502  0.87598764  1
  O  O339  1  0.00338396  0.00321159  0.11907336  1
  O  O340  1  0.00100457  0.00906218  0.61747471  1
  O  O341  1  0.00081378  0.50739125  0.11475534  1
  O  O342  1  0.00695562  0.50706575  0.62052611  1
  O  O343  1  0.50570204  0.00238797  0.11456644  1
  O  O344  1  0.50422389  0.00657112  0.62153550  1
  O  O345  1  0.49517306  0.51885949  0.12950628  1
  O  O346  1  0.50799236  0.50335042  0.61749987  1
  O  O347  1  0.23876062  0.37804738  0.23944544  1
  O  O348  1  0.23372409  0.38604292  0.79455546  1
  O  O349  1  0.25487495  0.88019082  0.23574638  1
  O  O350  1  0.24027172  0.88264215  0.75463144  1
  O  O351  1  0.75581947  0.39153641  0.24479211  1
  O  O352  1  0.74119404  0.38107888  0.74439362  1
  O  O353  1  0.74742320  0.86751264  0.24235172  1
  O  O354  1  0.73973419  0.88336245  0.75504819  1
  O  O355  1  0.24705567  0.12171665  0.26551571  1
  O  O356  1  0.25081928  0.11366339  0.75793992  1
  O  O357  1  0.26094029  0.61663445  0.24601113  1
  O  O358  1  0.26201980  0.62138097  0.76020476  1
  O  O359  1  0.75043538  0.12785997  0.27040579  1
  O  O360  1  0.74997790  0.11588232  0.75981200  1
  O  O361  1  0.75780836  0.62270390  0.25642797  1
  O  O362  1  0.75663093  0.62135711  0.75605669  1
  O  O363  1  0.37117850  0.11102988  0.38193340  1
  O  O364  1  0.36706538  0.11722850  0.87294778  1
  O  O365  1  0.37412921  0.63586411  0.36079057  1
  O  O366  1  0.37100575  0.62177938  0.87140053  1
  O  O367  1  0.86816369  0.11175745  0.37720200  1
  O  O368  1  0.86857798  0.11701150  0.87040350  1
  O  O369  1  0.87309689  0.62287391  0.36546000  1
  O  O370  1  0.86839302  0.62179411  0.86741401  1
  O  O371  1  0.13330568  0.37691557  0.12902484  1
  O  O372  1  0.12037362  0.39194134  0.63760932  1
  O  O373  1  0.13317811  0.88272388  0.11752953  1
  O  O374  1  0.11914810  0.87531118  0.63590950  1
  O  O375  1  0.62676090  0.37348855  0.11251463  1
  O  O376  1  0.63019902  0.38611625  0.62947314  1
  O  O377  1  0.62306945  0.89141219  0.12252578  1
  O  O378  1  0.61739573  0.87687376  0.63833738  1
  O  O379  1  0.10857582  0.25763107  0.24298494  1
  O  O380  1  0.12808373  0.24264018  0.76223287  1
  O  O381  1  0.12106448  0.74651489  0.26438344  1
  O  O382  1  0.12147806  0.75419425  0.75460241  1
  O  O383  1  0.63906596  0.25801529  0.26303028  1
  O  O384  1  0.62483843  0.25801259  0.75578682  1
  O  O385  1  0.61317308  0.75252493  0.25274358  1
  O  O386  1  0.63082002  0.75655214  0.76253953  1
  O  O387  1  0.36770599  0.24375561  0.23990178  1
  O  O388  1  0.37550175  0.24867501  0.74201497  1
  O  O389  1  0.38464830  0.74694912  0.24474256  1
  O  O390  1  0.37256647  0.74518733  0.73897391  1
  O  O391  1  0.88786788  0.24713222  0.23113672  1
  O  O392  1  0.86604496  0.24843231  0.73653301  1
  O  O393  1  0.87956726  0.73794162  0.24169795  1
  O  O394  1  0.87978744  0.73739756  0.75277734  1
  O  O395  1  0.38390151  0.49296128  0.50935699  1
  O  O396  1  0.37194201  0.48600316  0.99507357  1
  O  O397  1  0.37856307  0.98907411  0.49850036  1
  O  O398  1  0.38105959  0.99202160  0.99274283  1
  O  O399  1  0.88754068  0.49127828  0.50035603  1
  O  O400  1  0.89051762  0.50812486  0.99756015  1
  O  O401  1  0.88147665  0.98703923  0.49440738  1
  O  O402  1  0.88015759  1.00157235  0.98568178  1
  O  O403  1  0.11704756  0.00494313  0.00616723  1
  O  O404  1  0.10709080  -0.01101886  0.50043923  1
  O  O405  1  0.11154530  0.51266245  -0.00104747  1
  O  O406  1  0.10986054  0.49447378  0.51312997  1
  O  O407  1  0.61536137  0.00278406  -0.00513517  1
  O  O408  1  0.61946953  0.00390518  0.50973733  1
  O  O409  1  0.62677194  0.51639283  -0.00420824  1
  O  O410  1  0.61883292  0.50639154  0.51093460  1
  O  O411  1  0.35721317  0.37164077  0.10858959  1
  O  O412  1  0.37772759  0.36608574  0.61713245  1
  O  O413  1  0.36957448  0.87284389  0.11955736  1
  O  O414  1  0.37362626  0.86522548  0.61501002  1
  O  O415  1  0.88073978  0.36469624  0.12266824  1
  O  O416  1  0.87201926  0.36851934  0.61808330  1
  O  O417  1  0.87790398  0.86234223  0.12479841  1
  O  O418  1  0.88105453  0.87856163  0.61192152  1
  O  O419  1  0.12828544  0.12050032  0.37614960  1
  O  O420  1  0.12625126  0.12786111  0.88083629  1
  O  O421  1  0.12751761  0.63793428  0.37732174  1
  O  O422  1  0.13212591  0.62798640  0.88057458  1
  O  O423  1  0.63513329  0.11552447  0.39139242  1
  O  O424  1  0.63265192  0.12894177  0.87549608  1
  O  O425  1  0.63743271  0.63285185  0.38076737  1
  O  O426  1  0.62966605  0.63360524  0.87937640  1
