# generated using pymatgen
data_V85Zn86O256
_symmetry_space_group_name_H-M   'P 1'
_cell_length_a   16.92961489
_cell_length_b   16.92951555
_cell_length_c   16.93790329
_cell_angle_alpha   89.94669456
_cell_angle_beta   89.95617625
_cell_angle_gamma   90.05132438
_symmetry_Int_Tables_number   1
_chemical_formula_structural   V85Zn86O256
_chemical_formula_sum   'V85 Zn86 O256'
_cell_volume   4854.57001167
_cell_formula_units_Z   1
loop_
 _symmetry_equiv_pos_site_id
 _symmetry_equiv_pos_as_xyz
  1  'x, y, z'
loop_
 _atom_site_type_symbol
 _atom_site_label
 _atom_site_symmetry_multiplicity
 _atom_site_fract_x
 _atom_site_fract_y
 _atom_site_fract_z
 _atom_site_occupancy
  V  V0  1  0.75428498  0.75502463  0.49750881  1
  V  V1  1  0.50038610  0.62870005  0.12082552  1
  V  V2  1  0.87405043  0.49179647  0.87142185  1
  V  V3  1  -0.00211923  0.74720629  0.75290540  1
  V  V4  1  0.50197268  0.25236606  0.24732594  1
  V  V5  1  0.74866846  0.61793353  0.86993227  1
  V  V6  1  0.74741352  0.00332314  0.25348048  1
  V  V7  1  0.00645737  -0.00322693  0.00651890  1
  V  V8  1  0.12535339  0.87431928  0.75055611  1
  V  V9  1  0.86511944  0.24618173  0.13287124  1
  V  V10  1  0.25259163  0.00182959  0.25126966  1
  V  V11  1  0.25738399  0.49841088  0.24972125  1
  V  V12  1  0.63586409  0.39042617  0.74637256  1
  V  V13  1  0.49866621  0.00238840  0.48975851  1
  V  V14  1  0.62637281  0.62435773  0.50800502  1
  V  V15  1  0.37625944  0.63044923  0.24682626  1
  V  V16  1  0.37707271  0.37551136  -0.00481137  1
  V  V17  1  0.00173473  0.62421355  0.12454727  1
  V  V18  1  0.88285284  -0.00495930  0.36971886  1
  V  V19  1  0.11969834  0.62647383  0.49753174  1
  V  V20  1  0.87117884  0.87358292  -0.00245456  1
  V  V21  1  0.12360318  0.00392701  0.62465818  1
  V  V22  1  0.12513511  0.74566536  0.87589608  1
  V  V23  1  0.63065496  0.12718171  0.49846271  1
  V  V24  1  0.37539398  0.24728040  0.12185825  1
  V  V25  1  0.25964535  0.62594348  0.87011477  1
  V  V26  1  0.25305134  0.87570649  0.62487666  1
  V  V27  1  0.37673155  0.00270788  0.87482219  1
  V  V28  1  0.62312868  0.74357780  0.87635043  1
  V  V29  1  0.49971932  0.75740944  0.24567880  1
  V  V30  1  0.74927175  0.62681168  0.37281330  1
  V  V31  1  0.50379357  0.12677967  0.11876102  1
  V  V32  1  0.12929904  0.25039484  0.38930116  1
  V  V33  1  0.25368604  0.62417016  0.37476857  1
  V  V34  1  0.25757951  0.49945516  0.74601328  1
  V  V35  1  0.74870819  0.38862492  0.62118247  1
  V  V36  1  0.25112235  0.00087624  0.75063653  1
  V  V37  1  0.87393938  0.74966899  0.12531519  1
  V  V38  1  0.74368391  0.74378780  -0.00067234  1
  V  V39  1  0.37575385  0.87292063  0.00337842  1
  V  V40  1  0.49039493  0.62043985  0.62479713  1
  V  V41  1  -0.00223828  0.87369328  0.87661126  1
  V  V42  1  0.74054569  0.87338503  0.12906933  1
  V  V43  1  0.86953571  0.01006579  0.87559569  1
  V  V44  1  0.25201011  0.75036019  0.49940373  1
  V  V45  1  0.62838770  0.25264540  0.37444510  1
  V  V46  1  0.25933267  0.12463182  0.38497348  1
  V  V47  1  0.62319765  -0.00096497  0.12885840  1
  V  V48  1  0.50550829  0.00307526  -0.00343156  1
  V  V49  1  0.87602135  0.62647040  0.25095221  1
  V  V50  1  0.63350134  0.37736027  0.24399265  1
  V  V51  1  0.12692574  0.49884763  0.12576816  1
  V  V52  1  0.00546643  0.12271385  0.13403121  1
  V  V53  1  0.00157798  0.48541355  -0.00155136  1
  V  V54  1  0.37647657  0.87834941  0.49181608  1
  V  V55  1  0.76223090  0.25424747  0.49881435  1
  V  V56  1  0.23848589  0.13066844  0.87186023  1
  V  V57  1  0.50926708  0.25259155  0.74903922  1
  V  V58  1  0.85726032  0.37334532  0.01269540  1
  V  V59  1  -0.00010031  0.62332692  0.62759160  1
  V  V60  1  0.75302478  0.01115401  0.75292894  1
  V  V61  1  0.87536095  0.75461654  0.62457491  1
  V  V62  1  -0.01028447  0.12789577  0.63155176  1
  V  V63  1  0.25371306  0.74733704  0.00825543  1
  V  V64  1  0.50593214  0.37068594  0.87226166  1
  V  V65  1  0.87893257  0.49338860  0.37717482  1
  V  V66  1  0.49923046  0.38115391  0.37305052  1
  V  V67  1  0.62295153  0.75811272  0.37032120  1
  V  V68  1  0.69189358  0.18924457  -0.06300872  1
  V  V69  1  0.50402613  0.49619190  0.50107701  1
  V  V70  1  0.24070620  0.25048878  -0.00319617  1
  V  V71  1  0.37074159  0.25766638  0.61441387  1
  V  V72  1  0.24607751  0.88042718  0.12810519  1
  V  V73  1  0.87538435  0.25710468  0.63680899  1
  V  V74  1  0.25140005  0.37456354  0.12332996  1
  V  V75  1  0.49387923  0.74584819  0.74708983  1
  V  V76  1  0.75236761  0.87743072  0.62284405  1
  V  V77  1  -0.00682888  -0.01223342  0.50131960  1
  V  V78  1  0.00253857  0.24715173  0.25473558  1
  V  V79  1  0.63050113  0.50128526  0.12122572  1
  V  V80  1  0.62456623  0.87490853  0.74901952  1
  V  V81  1  0.50253187  0.12579487  0.62394195  1
  V  V82  1  0.50603612  0.50336836  -0.00229912  1
  V  V83  1  0.37733840  0.12834289  0.75016197  1
  V  V84  1  0.12065757  0.76364125  0.36743696  1
  Zn  Zn85  1  0.75340439  0.49895922  0.24447708  1
  Zn  Zn86  1  0.38130388  0.50348874  0.86976097  1
  Zn  Zn87  1  0.87072328  0.61801923  0.74913470  1
  Zn  Zn88  1  0.62769384  0.00174883  0.62483503  1
  Zn  Zn89  1  0.12592661  0.12767836  0.50491446  1
  Zn  Zn90  1  0.49947367  0.87431314  0.87294370  1
  Zn  Zn91  1  0.37318385  0.74763845  0.62656699  1
  Zn  Zn92  1  0.33847866  0.44641326  0.42100002  1
  Zn  Zn93  1  0.49905781  0.88169485  0.36597295  1
  Zn  Zn94  1  0.38039897  0.11929871  0.25464361  1
  Zn  Zn95  1  0.12650110  0.62082963  -0.00141853  1
  Zn  Zn96  1  0.75805192  0.12811641  0.36814412  1
  Zn  Zn97  1  0.00121004  0.76487472  0.25163088  1
  Zn  Zn98  1  0.12553862  0.37370518  0.25390613  1
  Zn  Zn99  1  0.12917955  0.37480181  0.74834219  1
  Zn  Zn100  1  0.24938324  0.36379376  0.59802656  1
  Zn  Zn101  1  0.12625880  0.12154277  0.00488907  1
  Zn  Zn102  1  -0.00288323  0.36606167  0.38549370  1
  Zn  Zn103  1  0.08257617  -0.06369816  0.19359996  1
  Zn  Zn104  1  0.12468413  0.49744965  0.62746614  1
  Zn  Zn105  1  -0.00826013  0.49233718  0.50735298  1
  Zn  Zn106  1  0.04855702  0.29036582  0.82980365  1
  Zn  Zn107  1  0.18583431  0.18364737  0.19358298  1
  Zn  Zn108  1  0.18145211  0.19356003  0.68946462  1
  Zn  Zn109  1  0.18705155  0.68851755  0.18758172  1
  Zn  Zn110  1  0.18808246  0.68494882  0.68766997  1
  Zn  Zn111  1  0.68308892  0.18408119  0.18385371  1
  Zn  Zn112  1  0.69080811  0.19432184  0.68805090  1
  Zn  Zn113  1  0.68299968  0.68521315  0.18779017  1
  Zn  Zn114  1  0.68576388  0.68700182  0.68864747  1
  Zn  Zn115  1  0.31088842  0.30377338  0.30809456  1
  Zn  Zn116  1  0.31281049  0.31200300  0.80880453  1
  Zn  Zn117  1  0.31169507  0.81243142  0.31078616  1
  Zn  Zn118  1  0.31404683  0.81294162  0.81613324  1
  Zn  Zn119  1  0.81311980  0.31173744  0.30796227  1
  Zn  Zn120  1  0.85818930  0.27867481  0.84448110  1
  Zn  Zn121  1  0.81530767  0.81785466  0.31155632  1
  Zn  Zn122  1  0.81063802  0.81276005  0.81089015  1
  Zn  Zn123  1  0.17213745  0.43956833  0.44231683  1
  Zn  Zn124  1  0.18409121  0.43355153  0.93019518  1
  Zn  Zn125  1  0.18937242  0.94455542  0.43784772  1
  Zn  Zn126  1  0.18871619  0.93586885  0.93682194  1
  Zn  Zn127  1  0.68967095  0.43995628  0.43553315  1
  Zn  Zn128  1  0.68755847  0.42956669  0.93428470  1
  Zn  Zn129  1  0.68753169  0.93856690  0.43760032  1
  Zn  Zn130  1  0.68526092  0.93626078  0.93693614  1
  Zn  Zn131  1  0.31298265  0.06172083  0.06282874  1
  Zn  Zn132  1  0.31697093  0.06310837  0.56404310  1
  Zn  Zn133  1  0.31836998  0.56305664  0.06058096  1
  Zn  Zn134  1  0.31062631  0.54893591  0.55351209  1
  Zn  Zn135  1  0.81316464  0.06567165  0.06206613  1
  Zn  Zn136  1  0.81576254  0.06230782  0.55892915  1
  Zn  Zn137  1  0.81306280  0.56346662  0.05829318  1
  Zn  Zn138  1  0.81477931  0.56919794  0.55976315  1
  Zn  Zn139  1  0.43967510  0.43896218  0.18630775  1
  Zn  Zn140  1  0.43673794  0.43964493  0.68664270  1
  Zn  Zn141  1  0.43029081  0.93905139  0.18505179  1
  Zn  Zn142  1  0.43898772  0.93817969  0.68278072  1
  Zn  Zn143  1  0.93971159  0.43331722  0.19225257  1
  Zn  Zn144  1  0.94079413  0.43048678  0.69518333  1
  Zn  Zn145  1  0.92014692  0.93860787  0.18647648  1
  Zn  Zn146  1  0.93561051  0.93869177  0.69004620  1
  Zn  Zn147  1  0.06592558  0.06682767  0.32008846  1
  Zn  Zn148  1  0.05743878  0.06313101  0.81415178  1
  Zn  Zn149  1  0.06409187  0.56503522  0.31025440  1
  Zn  Zn150  1  0.06484640  0.55352701  0.81574563  1
  Zn  Zn151  1  0.56660627  0.06629278  0.30935470  1
  Zn  Zn152  1  0.57006626  0.06525810  0.81387932  1
  Zn  Zn153  1  0.56505205  0.56573536  0.31184622  1
  Zn  Zn154  1  0.56308814  0.56327563  0.80988755  1
  Zn  Zn155  1  0.44153597  0.19310578  0.43684397  1
  Zn  Zn156  1  0.43969983  0.18868540  0.93517904  1
  Zn  Zn157  1  0.43769338  0.68734672  0.43681028  1
  Zn  Zn158  1  0.43925256  0.68926785  0.93957319  1
  Zn  Zn159  1  0.94059450  0.17732030  0.44079128  1
  Zn  Zn160  1  0.93122176  0.18100604  0.95918239  1
  Zn  Zn161  1  0.93825242  0.69153093  0.43650891  1
  Zn  Zn162  1  0.93447229  0.68091909  0.93927697  1
  Zn  Zn163  1  0.06195205  0.31035268  0.06793380  1
  Zn  Zn164  1  0.05692817  0.32079364  0.57347691  1
  Zn  Zn165  1  0.06300379  0.80739543  0.06072729  1
  Zn  Zn166  1  0.06630153  0.81034582  0.56351914  1
  Zn  Zn167  1  0.56937295  0.31384626  0.05842070  1
  Zn  Zn168  1  0.56632729  0.31431378  0.56248293  1
  Zn  Zn169  1  0.56073947  0.81226234  0.06092709  1
  Zn  Zn170  1  0.56347045  0.81206920  0.56144519  1
  O  O171  1  0.11137528  0.12814830  0.12421108  1
  O  O172  1  0.11718165  0.11981943  0.62488041  1
  O  O173  1  0.11764728  0.61928938  0.12306397  1
  O  O174  1  0.11481554  0.62958384  0.61634298  1
  O  O175  1  0.61151924  0.11601113  0.12473323  1
  O  O176  1  0.61837881  0.12812807  0.61634728  1
  O  O177  1  0.61029694  0.61582873  0.12978906  1
  O  O178  1  0.62054016  0.63055342  0.61221476  1
  O  O179  1  0.39026045  0.36550095  0.36549661  1
  O  O180  1  0.38568912  0.37804218  0.87923668  1
  O  O181  1  0.37756920  0.87151731  0.38788928  1
  O  O182  1  0.37599755  0.88500667  0.88412147  1
  O  O183  1  0.87292853  0.39106489  0.36944162  1
  O  O184  1  0.86917314  0.38414831  0.89871417  1
  O  O185  1  0.86899109  0.89424377  0.37799695  1
  O  O186  1  0.87975284  0.87477194  0.88315863  1
  O  O187  1  0.25087426  0.01497151  0.36888784  1
  O  O188  1  0.25648921  0.00800452  0.87055650  1
  O  O189  1  0.24913526  0.50769182  0.36388787  1
  O  O190  1  0.25333955  0.51359580  0.87018843  1
  O  O191  1  0.75336370  0.00047008  0.36720512  1
  O  O192  1  0.75780882  -0.01143958  0.86533418  1
  O  O193  1  0.76072640  0.50916049  0.37103080  1
  O  O194  1  0.75842762  0.50859467  0.88623185  1
  O  O195  1  0.24648016  0.49642911  0.12817986  1
  O  O196  1  0.24851567  0.51942556  0.64442133  1
  O  O197  1  0.25112586  0.99372862  0.13425877  1
  O  O198  1  0.24451880  0.99694260  0.63137052  1
  O  O199  1  0.73427382  0.51119897  0.12409208  1
  O  O200  1  0.75829080  0.48743196  0.61715300  1
  O  O201  1  0.74222287  0.99356501  0.12840172  1
  O  O202  1  0.75235252  0.99156891  0.63054403  1
  O  O203  1  0.00327631  0.36063538  0.25778047  1
  O  O204  1  0.01237149  0.35875150  0.73536237  1
  O  O205  1  -0.00127643  0.87654389  0.23597501  1
  O  O206  1  0.00549226  0.86833801  0.75643090  1
  O  O207  1  0.50882220  0.37125540  0.25431657  1
  O  O208  1  0.50813162  0.37161053  0.75285488  1
  O  O209  1  0.49024823  0.86199668  0.24734443  1
  O  O210  1  0.50966834  0.86980375  0.74812726  1
  O  O211  1  0.49932000  0.13356179  0.24134964  1
  O  O212  1  0.49997956  0.13213465  0.74194658  1
  O  O213  1  0.49236312  0.63188857  0.24533156  1
  O  O214  1  0.50674428  0.63361572  0.73778918  1
  O  O215  1  1.00299554  0.13390823  0.24728657  1
  O  O216  1  1.00038588  0.11501192  0.73073217  1
  O  O217  1  0.99341976  0.62785256  0.23872546  1
  O  O218  1  0.99919668  0.63115928  0.74462222  1
  O  O219  1  0.37142553  0.25502380  0.00880687  1
  O  O220  1  0.38215061  0.25011585  0.51575533  1
  O  O221  1  0.36657964  0.76102669  -0.00657051  1
  O  O222  1  0.36880747  0.75816728  0.50173479  1
  O  O223  1  0.87594976  0.26493247  0.01919508  1
  O  O224  1  0.86419527  0.24528794  0.50286585  1
  O  O225  1  0.86656308  0.75386078  0.00596257  1
  O  O226  1  0.86209380  0.74727062  0.50602212  1
  O  O227  1  0.12345186  0.25010865  0.49190882  1
  O  O228  1  0.13767633  0.24938657  1.00302992  1
  O  O229  1  0.13089808  0.74266749  0.49208247  1
  O  O230  1  0.13475240  0.74644041  0.99150955  1
  O  O231  1  0.63308442  0.24359736  0.49462999  1
  O  O232  1  0.63461301  0.25224057  0.99449029  1
  O  O233  1  0.63520025  0.74499863  0.49412744  1
  O  O234  1  0.63141921  0.75502525  0.98866193  1
  O  O235  1  0.49595415  0.24365753  0.12392181  1
  O  O236  1  0.49486384  0.24252044  0.62825651  1
  O  O237  1  0.50564312  0.74121580  0.13186597  1
  O  O238  1  0.49977173  0.74257241  0.63139223  1
  O  O239  1  0.99579842  0.24268376  0.13605252  1
  O  O240  1  0.98465739  0.23832216  0.61818277  1
  O  O241  1  0.99235788  0.74017691  0.12343124  1
  O  O242  1  0.99298005  0.74418953  0.62953461  1
  O  O243  1  0.00802172  0.24375432  0.37144688  1
  O  O244  1  -0.03775624  0.23904677  0.87073881  1
  O  O245  1  0.01583177  0.74822323  0.37304871  1
  O  O246  1  0.00444788  0.75234657  0.87429240  1
  O  O247  1  0.50975607  0.25864290  0.36873405  1
  O  O248  1  0.49584194  0.26258448  0.86473370  1
  O  O249  1  0.50711257  0.75105308  0.36570451  1
  O  O250  1  0.50720470  0.74995237  0.86708062  1
  O  O251  1  0.24990273  0.11867584  0.48841337  1
  O  O252  1  0.24875017  0.13180692  0.99288763  1
  O  O253  1  0.24319008  0.62822032  0.49112894  1
  O  O254  1  0.25171894  0.63181801  0.99222404  1
  O  O255  1  0.74067998  0.13260940  0.50183333  1
  O  O256  1  0.74289138  0.12503268  0.99915851  1
  O  O257  1  0.74379894  0.63491331  0.49391585  1
  O  O258  1  0.75304530  0.63824511  0.99132256  1
  O  O259  1  0.25675948  0.36918183  0.00195190  1
  O  O260  1  0.26506633  0.43060477  0.50690081  1
  O  O261  1  0.25673618  0.86853990  0.00329102  1
  O  O262  1  0.25761962  0.87350613  0.50509451  1
  O  O263  1  0.75894902  0.38129805  0.01257179  1
  O  O264  1  0.74266386  0.36760458  0.51110916  1
  O  O265  1  0.75254394  0.86434202  0.00486020  1
  O  O266  1  0.74323732  0.86899557  0.51400822  1
  O  O267  1  0.13798807  0.50116695  0.24257269  1
  O  O268  1  0.14066655  0.50406638  0.74761914  1
  O  O269  1  0.14262121  1.00626566  0.25695899  1
  O  O270  1  0.12932858  0.99377726  0.74457370  1
  O  O271  1  0.62572216  0.49410719  0.24102640  1
  O  O272  1  0.62434446  0.48892718  0.74568084  1
  O  O273  1  0.62729521  0.99740156  0.23656508  1
  O  O274  1  0.63118926  0.98932642  0.74841289  1
  O  O275  1  0.36189762  0.00304149  0.25033545  1
  O  O276  1  0.37230183  0.00635843  0.75412898  1
  O  O277  1  0.36496707  0.51006663  0.24455146  1
  O  O278  1  0.36451581  0.50427687  0.75240250  1
  O  O279  1  0.86514549  0.00372172  0.26233450  1
  O  O280  1  0.86513869  -0.00697993  0.76252316  1
  O  O281  1  0.87354745  0.50893231  0.25606415  1
  O  O282  1  0.87870371  0.49754999  0.76726925  1
  O  O283  1  0.12555902  0.36494920  0.37283459  1
  O  O284  1  0.11008922  0.38232501  0.86853121  1
  O  O285  1  0.13261472  0.86139415  0.37977875  1
  O  O286  1  0.11955387  0.86649428  0.87041886  1
  O  O287  1  0.62103051  0.37085790  0.36530479  1
  O  O288  1  0.61960784  0.37804624  0.85777485  1
  O  O289  1  0.62111197  0.86212078  0.38046425  1
  O  O290  1  0.62377952  0.86395136  0.86485354  1
  O  O291  1  0.38563473  0.13178101  0.12420747  1
  O  O292  1  0.38425816  0.13267965  0.63091390  1
  O  O293  1  0.38817704  0.62189569  0.13334108  1
  O  O294  1  0.38802891  0.62708511  0.61668211  1
  O  O295  1  0.88667383  0.13895872  0.11918818  1
  O  O296  1  0.88309806  0.13331022  0.62121692  1
  O  O297  1  0.87943239  0.62806625  0.13373083  1
  O  O298  1  0.87997315  0.63679522  0.62818442  1
  O  O299  1  0.25804851  0.25201567  0.11836321  1
  O  O300  1  0.26609483  0.24713486  0.62365247  1
  O  O301  1  0.24810185  0.75433832  0.11275540  1
  O  O302  1  0.25038867  0.75626944  0.61812973  1
  O  O303  1  0.76603821  0.24497534  0.13594944  1
  O  O304  1  0.75944008  0.25683756  0.61668363  1
  O  O305  1  0.75006341  0.75446594  0.11883523  1
  O  O306  1  0.75637736  0.75504244  0.61891788  1
  O  O307  1  0.24225426  0.23643622  0.37030990  1
  O  O308  1  0.26524620  0.23943438  0.88712022  1
  O  O309  1  0.24160254  0.74363883  0.37943494  1
  O  O310  1  0.24667838  0.74144426  0.88150966  1
  O  O311  1  0.74692178  0.24957859  0.38064199  1
  O  O312  1  0.75508433  0.24589479  0.87941826  1
  O  O313  1  0.74567579  0.74896855  0.38056104  1
  O  O314  1  0.74299542  0.74473857  0.88129585  1
  O  O315  1  0.00439590  0.11289886  0.01243272  1
  O  O316  1  0.00401196  0.11163669  0.51421640  1
  O  O317  1  -0.00226076  0.61555203  0.01425210  1
  O  O318  1  0.00532161  0.62979531  0.50917738  1
  O  O319  1  0.49442362  0.11505884  0.00623458  1
  O  O320  1  0.50853989  0.12150672  0.50423546  1
  O  O321  1  0.49632913  0.61639538  0.00745250  1
  O  O322  1  0.51038015  0.62430591  0.50564524  1
  O  O323  1  0.50955211  0.38487554  0.48989136  1
  O  O324  1  0.49789374  0.37936908  0.98905393  1
  O  O325  1  0.49425116  0.88527880  0.50096945  1
  O  O326  1  0.49142269  0.88172482  0.99772548  1
  O  O327  1  0.99972549  0.38060407  0.49763864  1
  O  O328  1  0.99368967  0.38394068  1.01011441  1
  O  O329  1  1.00400540  0.88882760  0.50779559  1
  O  O330  1  0.99204953  0.87805081  0.99808991  1
  O  O331  1  0.50695624  0.48779230  0.37630520  1
  O  O332  1  0.50159734  0.49351558  0.88046933  1
  O  O333  1  0.50662203  1.00059414  0.38516664  1
  O  O334  1  0.49708455  0.99917043  0.88113294  1
  O  O335  1  0.98614587  0.50322095  0.37029742  1
  O  O336  1  0.98779159  0.50975582  0.89070375  1
  O  O337  1  0.99280606  1.00228033  0.38705614  1
  O  O338  1  0.99107008  0.99230461  0.88291017  1
  O  O339  1  -0.00212409  0.00507257  0.12191035  1
  O  O340  1  0.00121650  0.00433023  0.61831721  1
  O  O341  1  0.00784776  0.50434561  0.12339368  1
  O  O342  1  -0.00511047  0.51504184  0.62751133  1
  O  O343  1  0.50450145  0.00538509  0.11919373  1
  O  O344  1  0.50295792  0.01432004  0.61827408  1
  O  O345  1  0.50652998  0.50662070  0.11665384  1
  O  O346  1  0.49992312  0.50670434  0.61516541  1
  O  O347  1  0.25289158  0.38324873  0.24217994  1
  O  O348  1  0.25443938  0.39424088  0.75322403  1
  O  O349  1  0.25583321  0.88442070  0.24022033  1
  O  O350  1  0.24649924  0.88039908  0.74625957  1
  O  O351  1  0.73739422  0.37844063  0.25074734  1
  O  O352  1  0.73798620  0.37576788  0.73559075  1
  O  O353  1  0.75350720  0.88604109  0.23837417  1
  O  O354  1  0.74128135  0.87590664  0.73909903  1
  O  O355  1  0.25662281  0.11783454  0.25753160  1
  O  O356  1  0.25681600  0.11939356  0.75649510  1
  O  O357  1  0.25753991  0.62081211  0.25303532  1
  O  O358  1  0.24997061  0.62417598  0.76527914  1
  O  O359  1  0.74163896  0.10880253  0.24908360  1
  O  O360  1  0.74250864  0.10963572  0.74350418  1
  O  O361  1  0.75863897  0.62565495  0.25499098  1
  O  O362  1  0.75105642  0.63022124  0.76469075  1
  O  O363  1  0.36360485  0.13532853  0.37424640  1
  O  O364  1  0.37090552  0.11909676  0.86817312  1
  O  O365  1  0.36105259  0.63082720  0.36706187  1
  O  O366  1  0.36294877  0.62565203  0.87868839  1
  O  O367  1  0.86971004  0.10392441  0.38655000  1
  O  O368  1  0.87117651  0.10805066  0.88565216  1
  O  O369  1  0.87206538  0.62485354  0.36293277  1
  O  O370  1  0.86535506  0.61395002  0.87546170  1
  O  O371  1  0.13408543  0.38102140  0.12907131  1
  O  O372  1  0.13925293  0.38012016  0.62512176  1
  O  O373  1  0.14049291  0.87215630  0.11686464  1
  O  O374  1  0.13313706  0.88131507  0.63131946  1
  O  O375  1  0.61628481  0.38731716  0.13372000  1
  O  O376  1  0.63799043  0.37451431  0.63155785  1
  O  O377  1  0.63398981  0.88049047  0.12093334  1
  O  O378  1  0.63238292  0.87607066  0.63292630  1
  O  O379  1  0.11824441  0.25051710  0.26075079  1
  O  O380  1  0.14389571  0.25658940  0.77030393  1
  O  O381  1  0.12536316  0.74859060  0.26353348  1
  O  O382  1  0.11969267  0.75474686  0.75705558  1
  O  O383  1  0.62049148  0.25802592  0.25166194  1
  O  O384  1  0.61271521  0.26108699  0.74084879  1
  O  O385  1  0.61406682  0.74590075  0.25862275  1
  O  O386  1  0.61728669  0.75720654  0.75528736  1
  O  O387  1  0.38256109  0.24870846  0.23358626  1
  O  O388  1  0.38723144  0.24496131  0.74214002  1
  O  O389  1  0.38129515  0.73824226  0.25183058  1
  O  O390  1  0.38998021  0.75729980  0.74907501  1
  O  O391  1  0.88415587  0.25208694  0.24091105  1
  O  O392  1  0.86342063  0.24580281  0.73271451  1
  O  O393  1  0.87649809  0.74378534  0.24344689  1
  O  O394  1  0.88111190  0.74772614  0.74281242  1
  O  O395  1  0.40047956  0.51646738  0.48842328  1
  O  O396  1  0.38833140  0.49217879  0.99795792  1
  O  O397  1  0.38757251  0.99292175  0.50466740  1
  O  O398  1  0.38432252  0.99491521  0.99435586  1
  O  O399  1  0.87637279  0.51324902  0.48030073  1
  O  O400  1  0.88200784  0.48898609  1.00310061  1
  O  O401  1  0.88736450  0.99561769  0.49594583  1
  O  O402  1  0.88180469  0.99046757  0.99726800  1
  O  O403  1  0.10985260  -0.00398232  -0.00445275  1
  O  O404  1  0.11615637  0.00023910  0.51028924  1
  O  O405  1  0.11841273  0.50042689  0.00894169  1
  O  O406  1  0.11347870  0.51801722  0.50345385  1
  O  O407  1  0.61196409  -0.00877081  0.00948677  1
  O  O408  1  0.62009063  0.01074827  0.50299950  1
  O  O409  1  0.61342709  0.49226246  0.00539390  1
  O  O410  1  0.61789198  0.51381975  0.49114508  1
  O  O411  1  0.37214756  0.36790833  0.11708628  1
  O  O412  1  0.37342244  0.36096621  0.62855449  1
  O  O413  1  0.36360721  0.87897237  0.11036557  1
  O  O414  1  0.36770049  0.87392425  0.61603520  1
  O  O415  1  0.87692980  0.36554436  0.12169638  1
  O  O416  1  0.86278416  0.36481626  0.62800523  1
  O  O417  1  0.85915227  0.86938458  0.11493452  1
  O  O418  1  0.86795618  0.86270018  0.62999776  1
  O  O419  1  0.13743129  0.13295027  0.38246351  1
  O  O420  1  0.13586486  0.11891621  0.87904625  1
  O  O421  1  0.13407753  0.63100863  0.37994466  1
  O  O422  1  0.13508472  0.63118502  0.87836855  1
  O  O423  1  0.62912270  0.13381934  0.38249511  1
  O  O424  1  0.62799040  0.13514079  0.87727683  1
  O  O425  1  0.63062204  0.63666621  0.38187650  1
  O  O426  1  0.63105372  0.63552845  0.87139604  1
