# generated using pymatgen
data_V85Zn86O256
_symmetry_space_group_name_H-M   'P 1'
_cell_length_a   16.90662636
_cell_length_b   16.92022675
_cell_length_c   16.92118906
_cell_angle_alpha   90.00437593
_cell_angle_beta   89.96028956
_cell_angle_gamma   90.07834310
_symmetry_Int_Tables_number   1
_chemical_formula_structural   V85Zn86O256
_chemical_formula_sum   'V85 Zn86 O256'
_cell_volume   4840.53650787
_cell_formula_units_Z   1
loop_
 _symmetry_equiv_pos_site_id
 _symmetry_equiv_pos_as_xyz
  1  'x, y, z'
loop_
 _atom_site_type_symbol
 _atom_site_label
 _atom_site_symmetry_multiplicity
 _atom_site_fract_x
 _atom_site_fract_y
 _atom_site_fract_z
 _atom_site_occupancy
  V  V0  1  0.63045543  0.87746376  0.74574822  1
  V  V1  1  0.50432055  0.24892510  0.24643211  1
  V  V2  1  0.12414967  0.50725104  0.62025621  1
  V  V3  1  0.62883397  0.25430906  0.36999393  1
  V  V4  1  0.76329604  0.25268030  0.49748775  1
  V  V5  1  0.49937093  0.24993862  0.74662319  1
  V  V6  1  0.11745207  0.12230748  0.00316316  1
  V  V7  1  0.12073746  0.49729670  0.12701430  1
  V  V8  1  0.87866857  0.24178456  0.64302947  1
  V  V9  1  0.62555900  0.62439256  -0.00046343  1
  V  V10  1  0.61849534  -0.00088436  0.11643512  1
  V  V11  1  0.87671172  0.00608862  0.37435233  1
  V  V12  1  0.75355600  0.75579562  0.50478407  1
  V  V13  1  0.00702909  0.87452576  0.36738098  1
  V  V14  1  0.24100838  0.87315755  0.13460741  1
  V  V15  1  0.24690464  0.37306727  0.62095497  1
  V  V16  1  0.24847864  0.49890004  0.74873720  1
  V  V17  1  0.88388062  0.00470443  0.88836451  1
  V  V18  1  0.62818352  0.87599448  0.25094185  1
  V  V19  1  0.50418226  0.88131980  0.87820554  1
  V  V20  1  0.24860253  0.12965534  0.38982332  1
  V  V21  1  0.25453613  0.50523621  0.25272037  1
  V  V22  1  0.11852567  0.37094658  0.25561321  1
  V  V23  1  0.75759182  0.62736791  0.87114290  1
  V  V24  1  0.62498196  0.75095978  0.87500662  1
  V  V25  1  -0.00391866  0.24668995  0.25363431  1
  V  V26  1  0.37336507  0.24607300  0.12588200  1
  V  V27  1  0.24034683  0.00035002  0.74885786  1
  V  V28  1  0.36990214  0.24907420  0.61896472  1
  V  V29  1  0.12236858  0.24732862  0.38907040  1
  V  V30  1  0.24357483  0.00214410  0.25264915  1
  V  V31  1  0.37709868  0.00477312  0.87720482  1
  V  V32  1  0.23490147  0.88121744  0.62777595  1
  V  V33  1  0.87595318  0.87797726  0.50566550  1
  V  V34  1  0.49970669  0.49881794  0.49853408  1
  V  V35  1  0.37490587  0.75235666  0.62320144  1
  V  V36  1  0.11614328  0.37215382  0.74878282  1
  V  V37  1  0.87876492  0.74967412  0.12933330  1
  V  V38  1  0.62672453  0.62645518  0.50066973  1
  V  V39  1  0.37592534  0.87872427  0.50002558  1
  V  V40  1  0.49892066  0.62483977  0.62550801  1
  V  V41  1  0.75450374  0.25319816  -0.00210990  1
  V  V42  1  0.62697135  0.12812800  0.49850106  1
  V  V43  1  0.37195221  0.37270062  -0.00256380  1
  V  V44  1  0.87480275  0.49735507  0.88233115  1
  V  V45  1  0.38076370  0.87506960  0.00203347  1
  V  V46  1  0.75301425  0.00821583  0.24839011  1
  V  V47  1  -0.00416504  0.62629310  0.62272045  1
  V  V48  1  0.62561342  0.75135557  0.37579795  1
  V  V49  1  0.62554445  0.24811549  0.87457844  1
  V  V50  1  0.75488122  0.62467094  0.37420332  1
  V  V51  1  0.75927894  0.37469617  0.62024124  1
  V  V52  1  0.01633858  0.00473828  0.50558317  1
  V  V53  1  0.50208041  0.37490456  0.36953547  1
  V  V54  1  0.24685244  0.37119377  0.12560293  1
  V  V55  1  0.36935476  0.74749579  0.12546470  1
  V  V56  1  0.49949054  0.37519298  0.87286234  1
  V  V57  1  0.62800613  0.49781823  0.62495310  1
  V  V58  1  0.12252623  0.24419530  0.86972320  1
  V  V59  1  0.62419257  0.49512434  0.13395379  1
  V  V60  1  0.23578433  0.74463362  0.50334719  1
  V  V61  1  0.00895521  0.12386361  0.63321593  1
  V  V62  1  0.76235592  0.00589398  0.74654207  1
  V  V63  1  0.75772969  0.50304306  0.74816949  1
  V  V64  1  0.49970520  0.49949175  -0.00002972  1
  V  V65  1  0.49628640  0.62571971  0.12684697  1
  V  V66  1  0.36932154  0.12440688  0.75188802  1
  V  V67  1  0.49463123  0.74748150  0.25242327  1
  V  V68  1  0.12623611  0.62038194  -0.00102857  1
  V  V69  1  0.24548979  0.62274547  0.87682699  1
  V  V70  1  -0.00411424  0.37057053  0.88154253  1
  V  V71  1  0.24897655  0.23989470  -0.00618310  1
  V  V72  1  0.37449276  0.50081898  0.87460335  1
  V  V73  1  0.88728173  0.62621990  0.25514722  1
  V  V74  1  0.87833330  0.25565389  0.12166789  1
  V  V75  1  -0.00863908  0.11614714  0.12698222  1
  V  V76  1  0.62909372  -0.00146605  0.62340013  1
  V  V77  1  0.74853147  0.37458382  0.12764920  1
  V  V78  1  0.01994128  0.75094129  0.75532895  1
  V  V79  1  0.36858074  0.37275419  0.49502138  1
  V  V80  1  0.87774782  0.48669090  0.37869095  1
  V  V81  1  0.12118084  0.74556044  0.36208078  1
  V  V82  1  -0.00172334  0.48862361  0.49745635  1
  V  V83  1  0.87252125  0.75052014  0.63727341  1
  V  V84  1  0.19359201  0.79762534  -0.05625360  1
  Zn  Zn85  1  0.75794315  0.12915712  0.87030498  1
  Zn  Zn86  1  0.75165370  0.87414005  0.12115702  1
  Zn  Zn87  1  0.62175147  0.12173149  -0.00404419  1
  Zn  Zn88  1  0.49664511  0.11792198  0.11931727  1
  Zn  Zn89  1  0.50081797  0.75238765  0.74947548  1
  Zn  Zn90  1  0.50217113  0.00159991  0.49663375  1
  Zn  Zn91  1  0.49960731  0.87903793  0.37624477  1
  Zn  Zn92  1  0.37873825  0.50803320  0.36936418  1
  Zn  Zn93  1  0.87954947  0.87531663  0.00029207  1
  Zn  Zn94  1  0.75172604  0.75104159  0.00261364  1
  Zn  Zn95  1  0.37543695  0.62639945  0.75150495  1
  Zn  Zn96  1  -0.00577525  0.49820088  0.00330179  1
  Zn  Zn97  1  0.37665681  0.00340678  0.37483966  1
  Zn  Zn98  1  0.11839359  -0.00639532  0.12723540  1
  Zn  Zn99  1  0.00380437  0.87212155  0.87493148  1
  Zn  Zn100  1  0.74953800  0.49516163  0.25343660  1
  Zn  Zn101  1  0.25114415  0.62597989  0.37888213  1
  Zn  Zn102  1  0.37318919  0.12411998  0.25210766  1
  Zn  Zn103  1  0.75637531  0.12862115  0.37089353  1
  Zn  Zn104  1  0.00257099  0.62669352  0.12887197  1
  Zn  Zn105  1  0.62697366  0.37390185  0.74668593  1
  Zn  Zn106  1  0.49990985  0.12445279  0.62185624  1
  Zn  Zn107  1  0.18370923  0.18300842  0.19079907  1
  Zn  Zn108  1  0.18789944  0.18679227  0.68596890  1
  Zn  Zn109  1  0.18630027  0.68634786  0.18552677  1
  Zn  Zn110  1  0.19009480  0.68498818  0.68676872  1
  Zn  Zn111  1  0.68717504  0.18571305  0.18540278  1
  Zn  Zn112  1  0.68934351  0.18603286  0.68546074  1
  Zn  Zn113  1  0.68994381  0.68625166  0.18893719  1
  Zn  Zn114  1  0.68859218  0.68888662  0.68864433  1
  Zn  Zn115  1  0.30891471  0.31132618  0.31267542  1
  Zn  Zn116  1  0.30773904  0.31143446  0.81016554  1
  Zn  Zn117  1  0.30986560  0.81162092  0.31400618  1
  Zn  Zn118  1  0.31871106  0.81822063  0.80554286  1
  Zn  Zn119  1  0.81330856  0.31186486  0.30644671  1
  Zn  Zn120  1  0.81234659  0.31715570  0.81080730  1
  Zn  Zn121  1  0.81615036  0.81514971  0.31385907  1
  Zn  Zn122  1  0.81077085  0.81988123  0.81573896  1
  Zn  Zn123  1  0.18257159  0.43500243  0.43684721  1
  Zn  Zn124  1  0.18476077  0.43413543  0.93746751  1
  Zn  Zn125  1  0.19035970  0.93541261  0.43615628  1
  Zn  Zn126  1  0.19163224  0.95960553  0.93601611  1
  Zn  Zn127  1  0.68923954  0.43602945  0.43844710  1
  Zn  Zn128  1  0.68833229  0.43448447  0.93960584  1
  Zn  Zn129  1  0.69050414  0.93829449  0.43645531  1
  Zn  Zn130  1  0.69872874  0.93603189  0.93527417  1
  Zn  Zn131  1  0.31080818  0.05925549  0.06399479  1
  Zn  Zn132  1  0.31144993  0.06129545  0.56434118  1
  Zn  Zn133  1  0.30910969  0.56292182  0.06385798  1
  Zn  Zn134  1  0.31365354  0.56206297  0.55868072  1
  Zn  Zn135  1  0.80704104  0.06812698  0.06289507  1
  Zn  Zn136  1  0.81319974  0.06385644  0.56207464  1
  Zn  Zn137  1  0.81111812  0.56559582  0.06439577  1
  Zn  Zn138  1  0.81794538  0.56628242  0.56089809  1
  Zn  Zn139  1  0.43725262  0.43233151  0.18604230  1
  Zn  Zn140  1  0.43529180  0.43682919  0.68604725  1
  Zn  Zn141  1  0.43362778  0.93508536  0.19282370  1
  Zn  Zn142  1  0.44174337  0.93951021  0.68632335  1
  Zn  Zn143  1  0.93566366  0.43590706  0.19189321  1
  Zn  Zn144  1  0.93583935  0.43598844  0.68845986  1
  Zn  Zn145  1  0.93496741  0.93453801  0.19037743  1
  Zn  Zn146  1  0.94617281  0.93332146  0.68809764  1
  Zn  Zn147  1  0.06413892  0.06446371  0.31253100  1
  Zn  Zn148  1  0.05856032  0.06597833  0.81328627  1
  Zn  Zn149  1  0.06684058  0.56125022  0.31931535  1
  Zn  Zn150  1  0.05817955  0.56419348  0.80887997  1
  Zn  Zn151  1  0.56227319  0.06483023  0.31145016  1
  Zn  Zn152  1  0.56188226  0.06410757  0.80976302  1
  Zn  Zn153  1  0.56187667  0.56609183  0.31274886  1
  Zn  Zn154  1  0.56673506  0.56204901  0.80964852  1
  Zn  Zn155  1  0.43831564  0.18745342  0.43625566  1
  Zn  Zn156  1  0.44152388  0.18294419  0.93892845  1
  Zn  Zn157  1  0.43205509  0.68801371  0.43661627  1
  Zn  Zn158  1  0.43566151  0.69204386  0.93905283  1
  Zn  Zn159  1  0.94264080  0.18435677  0.44023522  1
  Zn  Zn160  1  0.93762840  0.18633378  0.93616251  1
  Zn  Zn161  1  0.94204412  0.68599711  0.44310359  1
  Zn  Zn162  1  0.94015491  0.68850482  0.93998882  1
  Zn  Zn163  1  0.06103180  0.31017362  0.06097636  1
  Zn  Zn164  1  0.05576661  0.31125194  0.56705225  1
  Zn  Zn165  1  0.05152880  0.81447649  0.06604933  1
  Zn  Zn166  1  0.05673993  0.81468932  0.56308153  1
  Zn  Zn167  1  0.56313100  0.31103088  0.05985840  1
  Zn  Zn168  1  0.56391256  0.31255836  0.55901707  1
  Zn  Zn169  1  0.56208946  0.81352432  0.06336735  1
  Zn  Zn170  1  0.56252613  0.81479394  0.56299685  1
  O  O171  1  0.11051199  0.12620993  0.11969397  1
  O  O172  1  0.10855226  0.13521924  0.62306104  1
  O  O173  1  0.12421549  0.61552200  0.11875579  1
  O  O174  1  0.12056380  0.61160787  0.62805092  1
  O  O175  1  0.62428057  0.10809436  0.12613033  1
  O  O176  1  0.62443905  0.12033920  0.61539500  1
  O  O177  1  0.61973894  0.61827643  0.11692792  1
  O  O178  1  0.61914279  0.61987526  0.61981328  1
  O  O179  1  0.38133330  0.37582576  0.38097712  1
  O  O180  1  0.37807146  0.37963519  0.87851948  1
  O  O181  1  0.37218266  0.87400454  0.39056043  1
  O  O182  1  0.38502396  0.87896758  0.88097039  1
  O  O183  1  0.87033048  0.38758046  0.37170785  1
  O  O184  1  0.88409447  0.38309699  0.87063126  1
  O  O185  1  0.88828339  0.87854541  0.38541703  1
  O  O186  1  0.87512160  0.89238418  0.87429540  1
  O  O187  1  0.24905994  0.01217369  0.37162187  1
  O  O188  1  0.26861229  -0.00559948  0.86207339  1
  O  O189  1  0.24600434  0.49829514  0.36133935  1
  O  O190  1  0.25457054  0.50507378  0.87128868  1
  O  O191  1  0.75949731  0.00135376  0.36791891  1
  O  O192  1  0.76152652  0.00493697  0.86318736  1
  O  O193  1  0.75796774  0.50715608  0.37761002  1
  O  O194  1  0.75422437  0.50301331  0.86785291  1
  O  O195  1  0.24031155  0.49357138  0.13401001  1
  O  O196  1  0.24194797  0.49510245  0.62650748  1
  O  O197  1  0.24734964  0.99053782  0.13331836  1
  O  O198  1  0.25201614  0.98816821  0.63119807  1
  O  O199  1  0.74161824  0.49247061  0.12389473  1
  O  O200  1  0.75209104  0.49461362  0.62897312  1
  O  O201  1  0.74318958  0.99731613  0.13303860  1
  O  O202  1  0.74101756  1.00389625  0.63410885  1
  O  O203  1  0.01148469  0.36692443  0.24779931  1
  O  O204  1  0.01133003  0.37903587  0.75757811  1
  O  O205  1  -0.00018605  0.87890422  0.26869997  1
  O  O206  1  0.00323498  0.85743321  0.75287259  1
  O  O207  1  0.49639438  0.36654480  0.26179700  1
  O  O208  1  0.49921787  0.36471897  0.75349322  1
  O  O209  1  0.51063243  0.86450535  0.25136455  1
  O  O210  1  0.51143773  0.87542508  0.75766310  1
  O  O211  1  0.49568219  0.13760064  0.24511010  1
  O  O212  1  0.49075031  0.13655112  0.74712540  1
  O  O213  1  0.50532506  0.63909971  0.24305002  1
  O  O214  1  0.49996397  0.62581048  0.73703427  1
  O  O215  1  1.00372121  0.13281886  0.23746970  1
  O  O216  1  0.99765145  0.11818394  0.73238567  1
  O  O217  1  0.99034756  0.62013749  0.25381025  1
  O  O218  1  1.00481530  0.63670702  0.73647589  1
  O  O219  1  0.36652053  0.25294973  0.00324068  1
  O  O220  1  0.38131190  0.25976362  0.50818101  1
  O  O221  1  0.37783926  0.76363617  0.01026702  1
  O  O222  1  0.36575060  0.75692223  0.51020147  1
  O  O223  1  0.86701274  0.24797125  0.00784381  1
  O  O224  1  0.86517389  0.24799668  0.49879565  1
  O  O225  1  0.87222924  0.73918525  0.01810024  1
  O  O226  1  0.87067085  0.75685484  0.50695093  1
  O  O227  1  0.11932578  0.25616015  0.48752452  1
  O  O228  1  0.13118743  0.24289467  0.99407040  1
  O  O229  1  0.13337217  0.75524045  0.49837603  1
  O  O230  1  0.13056703  0.74112712  1.00322766  1
  O  O231  1  0.63528736  0.24521562  0.49336557  1
  O  O232  1  0.63203674  0.25159082  0.98890554  1
  O  O233  1  0.63383944  0.74658864  0.49714006  1
  O  O234  1  0.62462870  0.74067035  0.99472360  1
  O  O235  1  0.49198372  0.25465520  0.13257615  1
  O  O236  1  0.49064494  0.25240658  0.63171844  1
  O  O237  1  0.49130843  0.74730330  0.13225080  1
  O  O238  1  0.49247272  0.74221267  0.62408901  1
  O  O239  1  0.99345990  0.24574189  0.13151914  1
  O  O240  1  0.98641849  0.23904612  0.62236868  1
  O  O241  1  0.98534431  0.74411913  0.13111065  1
  O  O242  1  0.99407714  0.74513628  0.63336103  1
  O  O243  1  0.01230928  0.24098820  0.36798460  1
  O  O244  1  0.00831233  0.25832224  0.87720400  1
  O  O245  1  0.01202828  0.76033644  0.38324649  1
  O  O246  1  -0.00289984  0.74367313  0.85700313  1
  O  O247  1  0.50737574  0.25589212  0.36715419  1
  O  O248  1  0.50515369  0.25563583  0.86578571  1
  O  O249  1  0.50638795  0.75104206  0.36857250  1
  O  O250  1  0.50570408  0.76024018  0.87206288  1
  O  O251  1  0.24993867  0.12396466  0.48890827  1
  O  O252  1  0.24184731  0.13532207  1.00584260  1
  O  O253  1  0.24969593  0.64120909  0.50470474  1
  O  O254  1  0.23812536  0.62170827  0.99296799  1
  O  O255  1  0.74240884  0.13444031  0.49644226  1
  O  O256  1  0.74269484  0.13913224  0.99589502  1
  O  O257  1  0.74780447  0.63161124  0.49076992  1
  O  O258  1  0.73733485  0.62369991  0.99228687  1
  O  O259  1  0.25241265  0.36482213  0.00620369  1
  O  O260  1  0.26077835  0.37983158  0.50390171  1
  O  O261  1  0.25203752  0.86633360  0.00006085  1
  O  O262  1  0.25510586  0.87000480  0.51194669  1
  O  O263  1  0.74674716  0.36291897  0.00998256  1
  O  O264  1  0.74858395  0.36859331  0.51241444  1
  O  O265  1  0.75975003  0.86866314  0.00260428  1
  O  O266  1  0.76045106  0.86539693  0.49465726  1
  O  O267  1  0.12959575  0.49110334  0.24618369  1
  O  O268  1  0.12898233  0.49221384  0.74210491  1
  O  O269  1  0.13711897  1.00302435  0.24752806  1
  O  O270  1  0.14144620  1.00505625  0.76210181  1
  O  O271  1  0.62634620  0.50515327  0.23737210  1
  O  O272  1  0.63667485  0.49685997  0.74229325  1
  O  O273  1  0.63187719  0.99253273  0.24491080  1
  O  O274  1  0.63153342  0.99639166  0.74291178  1
  O  O275  1  0.36278201  0.00255784  0.25360988  1
  O  O276  1  0.37315629  0.00834252  0.75378651  1
  O  O277  1  0.35797088  0.48997048  0.24818999  1
  O  O278  1  0.36813323  0.50116942  0.75679092  1
  O  O279  1  0.86445337  -0.00866110  0.26090714  1
  O  O280  1  0.86316800  -0.00612223  0.74548302  1
  O  O281  1  0.87281708  0.50751277  0.26047508  1
  O  O282  1  0.86371480  0.49810072  0.75888779  1
  O  O283  1  0.13010589  0.35871686  0.36700237  1
  O  O284  1  0.11847460  0.36801582  0.86739759  1
  O  O285  1  0.11391380  0.86629190  0.38084499  1
  O  O286  1  0.13761518  0.86333959  0.89080113  1
  O  O287  1  0.61799911  0.36332369  0.38013843  1
  O  O288  1  0.61919578  0.36532018  0.87093392  1
  O  O289  1  0.62448851  0.86858024  0.36831103  1
  O  O290  1  0.62015891  0.87337691  0.87042662  1
  O  O291  1  0.37474784  0.13648068  0.12493933  1
  O  O292  1  0.37805285  0.13345783  0.62952665  1
  O  O293  1  0.38171675  0.63560695  0.11696405  1
  O  O294  1  0.38245833  0.63200317  0.62445334  1
  O  O295  1  0.88530118  0.13542951  0.12262892  1
  O  O296  1  0.88032551  0.13809763  0.61979768  1
  O  O297  1  0.87578139  0.62845263  0.13806092  1
  O  O298  1  0.88284655  0.63693405  0.62420095  1
  O  O299  1  0.25530813  0.25255976  0.11987130  1
  O  O300  1  0.26236491  0.25660796  0.62835869  1
  O  O301  1  0.26124009  0.75600143  0.13298151  1
  O  O302  1  0.25421497  0.75938417  0.62041351  1
  O  O303  1  0.75613599  0.25428396  0.11954792  1
  O  O304  1  0.76054569  0.25492140  0.61932666  1
  O  O305  1  0.76105533  0.74886597  0.12536093  1
  O  O306  1  0.75674758  0.74334539  0.61264338  1
  O  O307  1  0.23815439  0.23871677  0.37196430  1
  O  O308  1  0.23918026  0.25475478  0.88455696  1
  O  O309  1  0.23579340  0.75428315  0.38555058  1
  O  O310  1  0.25329205  0.74516870  0.87615807  1
  O  O311  1  0.74551015  0.25168810  0.37927987  1
  O  O312  1  0.74380345  0.25222356  0.87928416  1
  O  O313  1  0.74807820  0.74376684  0.38429533  1
  O  O314  1  0.74420319  0.74196708  0.87539432  1
  O  O315  1  0.00524227  0.13214781  0.01614052  1
  O  O316  1  -0.00187049  0.10897954  0.50697869  1
  O  O317  1  0.01445851  0.62023274  0.00021460  1
  O  O318  1  0.00041318  0.61676340  0.51554130  1
  O  O319  1  0.50845932  0.12842748  0.00668570  1
  O  O320  1  0.51488904  0.12750124  0.49990926  1
  O  O321  1  0.50836921  0.62063175  0.00372251  1
  O  O322  1  0.50492226  0.62147570  0.50982744  1
  O  O323  1  0.49375862  0.37813944  0.48832836  1
  O  O324  1  0.49238898  0.37917475  0.99230488  1
  O  O325  1  0.49051296  0.87634433  0.49836823  1
  O  O326  1  0.49321608  0.87498886  0.99153097  1
  O  O327  1  0.99613408  0.38992739  0.50713712  1
  O  O328  1  1.00656140  0.37976517  0.98616411  1
  O  O329  1  0.99518249  0.88775808  0.49607000  1
  O  O330  1  0.99246665  0.86487965  0.98862777  1
  O  O331  1  0.50119909  0.49191250  0.37809074  1
  O  O332  1  0.49545867  0.49562060  0.87830585  1
  O  O333  1  0.49634279  0.99835553  0.37653153  1
  O  O334  1  0.49207229  0.99024728  0.86938277  1
  O  O335  1  0.99574833  0.50237801  0.38973126  1
  O  O336  1  0.99007593  0.49438963  0.87401705  1
  O  O337  1  0.99803745  0.99306571  0.38403605  1
  O  O338  1  0.98646827  0.99638915  0.86958905  1
  O  O339  1  -0.00248199  0.01198489  0.13124803  1
  O  O340  1  -0.00267290  0.00898777  0.61431430  1
  O  O341  1  0.01004174  0.49984703  0.12552599  1
  O  O342  1  0.00308881  0.50552930  0.61988635  1
  O  O343  1  0.51484834  -0.00372158  0.13240529  1
  O  O344  1  0.51488284  0.00429576  0.62200975  1
  O  O345  1  0.50477141  0.50291471  0.12068865  1
  O  O346  1  0.50469010  0.50568362  0.61973871  1
  O  O347  1  0.23840078  0.37899854  0.24403618  1
  O  O348  1  0.24038733  0.38107427  0.74265265  1
  O  O349  1  0.25295128  0.88394772  0.24347759  1
  O  O350  1  0.25530153  0.88275998  0.73476438  1
  O  O351  1  0.74993439  0.37601069  0.23400029  1
  O  O352  1  0.74843619  0.38231799  0.73699024  1
  O  O353  1  0.73903236  0.88092125  0.25124486  1
  O  O354  1  0.73721580  0.88891706  0.75451793  1
  O  O355  1  0.25180493  0.11831741  0.25773874  1
  O  O356  1  0.26227953  0.11786286  0.74282559  1
  O  O357  1  0.24422557  0.60717829  0.24863287  1
  O  O358  1  0.25214224  0.61764161  0.75821133  1
  O  O359  1  0.74808684  0.11286094  0.25197190  1
  O  O360  1  0.74710966  0.11023800  0.75089404  1
  O  O361  1  0.75483524  0.62182837  0.26468907  1
  O  O362  1  0.74318753  0.61546378  0.75960451  1
  O  O363  1  0.36079217  0.12880566  0.37460428  1
  O  O364  1  0.37949702  0.11658698  0.86568033  1
  O  O365  1  0.36588571  0.62051225  0.37935823  1
  O  O366  1  0.36419348  0.62097496  0.87704374  1
  O  O367  1  0.87701559  0.11043248  0.37806926  1
  O  O368  1  0.87624121  0.11108039  0.87419698  1
  O  O369  1  0.87084549  0.62141462  0.37233061  1
  O  O370  1  0.86210800  0.61915297  0.87874524  1
  O  O371  1  0.12787809  0.37955398  0.13098041  1
  O  O372  1  0.12632616  0.38012567  0.63153875  1
  O  O373  1  0.13712075  0.87260769  0.11935773  1
  O  O374  1  0.13664835  0.87419324  0.62454718  1
  O  O375  1  0.63133223  0.38542332  0.11873420  1
  O  O376  1  0.63373550  0.38162941  0.62377969  1
  O  O377  1  0.62745160  0.88285208  0.13264054  1
  O  O378  1  0.62294827  0.88398243  0.63326509  1
  O  O379  1  0.11539882  0.25517662  0.25441272  1
  O  O380  1  0.13177245  0.25817663  0.75987043  1
  O  O381  1  0.12747449  0.74996702  0.26322369  1
  O  O382  1  0.11903775  0.74855719  0.75040852  1
  O  O383  1  0.61765965  0.24767236  0.25674856  1
  O  O384  1  0.61667190  0.25152845  0.75259690  1
  O  O385  1  0.62085639  0.75675077  0.25485184  1
  O  O386  1  0.62489523  0.75986929  0.75522690  1
  O  O387  1  0.38118016  0.25139043  0.24061251  1
  O  O388  1  0.37951279  0.24471651  0.74398756  1
  O  O389  1  0.38444823  0.75739677  0.24148967  1
  O  O390  1  0.37788750  0.74815780  0.73566836  1
  O  O391  1  0.88883714  0.25247833  0.24334460  1
  O  O392  1  0.87014361  0.24387716  0.74151237  1
  O  O393  1  0.86902033  0.73964822  0.24248682  1
  O  O394  1  0.86954057  0.75685428  0.73826671  1
  O  O395  1  0.38339196  0.48959410  0.49907901  1
  O  O396  1  0.37913845  0.49365667  0.99546813  1
  O  O397  1  0.37808871  0.99247022  0.50022937  1
  O  O398  1  0.36644644  0.98685775  0.99105503  1
  O  O399  1  0.88742538  0.50426015  0.49271923  1
  O  O400  1  0.87336765  0.50405265  0.98723665  1
  O  O401  1  0.87664703  0.99215245  0.49357503  1
  O  O402  1  0.87184358  1.00245392  0.99080482  1
  O  O403  1  0.12759904  0.01712774  0.00624534  1
  O  O404  1  0.11445851  -0.00235212  0.49951251  1
  O  O405  1  0.12572638  0.50355483  0.01086087  1
  O  O406  1  0.11267490  0.49540461  0.50745743  1
  O  O407  1  0.63252998  -0.00355266  0.01420400  1
  O  O408  1  0.62947741  0.00869365  0.50600001  1
  O  O409  1  0.61807374  0.50634075  0.00483671  1
  O  O410  1  0.62011535  0.50652397  0.50503636  1
  O  O411  1  0.36934863  0.36365420  0.11760690  1
  O  O412  1  0.36970500  0.36885437  0.61628895  1
  O  O413  1  0.36553178  0.87123007  0.11748310  1
  O  O414  1  0.37291006  0.86885141  0.61724150  1
  O  O415  1  0.86912856  0.36396953  0.12662476  1
  O  O416  1  0.87062210  0.35893241  0.62987525  1
  O  O417  1  0.87357153  0.86067135  0.12824551  1
  O  O418  1  0.88224755  0.86731623  0.61273121  1
  O  O419  1  0.13467380  0.13705494  0.37422140  1
  O  O420  1  0.11582285  0.13621063  0.88500928  1
  O  O421  1  0.12866682  0.64072910  0.37596289  1
  O  O422  1  0.13692541  0.61681889  0.88084460  1
  O  O423  1  0.62850317  0.13782105  0.38007741  1
  O  O424  1  0.62616176  0.13874110  0.87137795  1
  O  O425  1  0.63346437  0.63058228  0.38150359  1
  O  O426  1  0.63109501  0.62859474  0.88163731  1
