# generated using pymatgen
data_V85Zn86O256
_symmetry_space_group_name_H-M   'P 1'
_cell_length_a   16.94353427
_cell_length_b   16.94122422
_cell_length_c   16.93554617
_cell_angle_alpha   90.02297167
_cell_angle_beta   90.04746730
_cell_angle_gamma   89.96606242
_symmetry_Int_Tables_number   1
_chemical_formula_structural   V85Zn86O256
_chemical_formula_sum   'V85 Zn86 O256'
_cell_volume   4861.24761486
_cell_formula_units_Z   1
loop_
 _symmetry_equiv_pos_site_id
 _symmetry_equiv_pos_as_xyz
  1  'x, y, z'
loop_
 _atom_site_type_symbol
 _atom_site_label
 _atom_site_symmetry_multiplicity
 _atom_site_fract_x
 _atom_site_fract_y
 _atom_site_fract_z
 _atom_site_occupancy
  V  V0  1  0.75368322  0.25530831  -0.00261198  1
  V  V1  1  0.25304230  0.62226693  0.87836485  1
  V  V2  1  0.12335544  0.12145289  0.00598399  1
  V  V3  1  0.87920819  0.25185362  0.11974628  1
  V  V4  1  0.49565766  0.87369291  0.39272793  1
  V  V5  1  0.76551035  0.50296755  0.75158545  1
  V  V6  1  0.37845159  0.75602006  0.62490638  1
  V  V7  1  0.00136652  -0.00333600  0.51069852  1
  V  V8  1  -0.01721380  0.62811315  0.62793071  1
  V  V9  1  0.24902223  0.88178524  0.62014239  1
  V  V10  1  0.74972805  0.37178955  0.62421222  1
  V  V11  1  0.38003885  -0.00224269  0.37670301  1
  V  V12  1  0.25925756  0.25147984  0.00206619  1
  V  V13  1  -0.00042175  0.25453809  0.75111330  1
  V  V14  1  -0.05371570  0.42752499  0.93675966  1
  V  V15  1  0.86557926  0.62202858  0.26735397  1
  V  V16  1  0.50220998  0.86896086  0.86793127  1
  V  V17  1  0.50035776  0.50157492  0.49892955  1
  V  V18  1  0.24223991  0.00044251  0.74673886  1
  V  V19  1  0.87292961  0.86126700  0.50613478  1
  V  V20  1  0.61727749  0.12655335  -0.00201220  1
  V  V21  1  0.12616020  0.11850087  0.50742491  1
  V  V22  1  0.62319572  0.25068372  0.87415503  1
  V  V23  1  0.12322754  0.87277519  0.74622233  1
  V  V24  1  0.12538464  0.50597277  0.62597273  1
  V  V25  1  0.37642079  0.50162025  0.37449334  1
  V  V26  1  0.11843554  0.49957230  0.12117204  1
  V  V27  1  -0.00435606  0.63319300  0.13483585  1
  V  V28  1  0.37668433  0.62611699  0.24892867  1
  V  V29  1  0.36747748  0.13158245  0.23679373  1
  V  V30  1  0.87715339  0.24202559  0.62164875  1
  V  V31  1  0.75137954  0.85922744  0.62653679  1
  V  V32  1  0.49918818  0.62063541  0.11857574  1
  V  V33  1  0.62785075  0.61908504  -0.00078471  1
  V  V34  1  -0.01405787  0.74740537  0.74912836  1
  V  V35  1  0.50288506  0.36465624  0.36545897  1
  V  V36  1  0.25824177  0.37345862  0.12560534  1
  V  V37  1  0.12363027  0.89174022  0.24540424  1
  V  V38  1  0.37661166  0.39076451  -0.00556647  1
  V  V39  1  0.37757746  0.12248454  0.74894803  1
  V  V40  1  0.74993338  0.87518247  0.12506864  1
  V  V41  1  0.75393444  0.38215208  0.12527002  1
  V  V42  1  0.87518149  0.00280703  0.37841153  1
  V  V43  1  0.24763343  0.75199581  0.00036871  1
  V  V44  1  -0.00153675  0.87145149  0.37041213  1
  V  V45  1  0.74860465  0.74759770  -0.00152626  1
  V  V46  1  0.12322393  0.25819427  0.87506487  1
  V  V47  1  -0.00451224  0.38347929  0.37336819  1
  V  V48  1  0.24950234  0.37825366  0.62521354  1
  V  V49  1  0.87578843  0.87889557  -0.00134856  1
  V  V50  1  0.12466470  0.24927287  0.37594882  1
  V  V51  1  0.73214609  0.12226184  0.37808342  1
  V  V52  1  0.73881385  0.24292263  0.49532211  1
  V  V53  1  0.24587547  0.88692230  0.12887465  1
  V  V54  1  0.24767898  0.11210910  0.36802641  1
  V  V55  1  0.24661963  0.24916372  0.49848214  1
  V  V56  1  0.63672251  0.74480974  0.37715638  1
  V  V57  1  0.63957865  0.62711002  0.49770195  1
  V  V58  1  0.87354806  0.37769690  0.49504101  1
  V  V59  1  0.37707224  0.87740533  0.00085419  1
  V  V60  1  0.75083570  -0.00287818  0.25113779  1
  V  V61  1  0.11445073  0.62487537  -0.00206821  1
  V  V62  1  0.25042088  0.12575559  0.87449262  1
  V  V63  1  0.61610556  -0.00056145  0.12765116  1
  V  V64  1  0.49958209  0.24946337  0.74996890  1
  V  V65  1  0.62422581  0.37651602  0.75007953  1
  V  V66  1  0.49670965  0.39208890  0.87630049  1
  V  V67  1  0.12608487  0.62718297  0.50080868  1
  V  V68  1  0.54491570  0.18266004  0.18272364  1
  V  V69  1  0.24964370  0.50030868  0.25029218  1
  V  V70  1  0.12495468  0.75063596  0.36396026  1
  V  V71  1  0.74741267  0.00340163  0.74741210  1
  V  V72  1  0.25508278  0.50256324  0.75287484  1
  V  V73  1  0.37914136  0.63010400  0.75513641  1
  V  V74  1  0.12457608  0.37536249  0.24924489  1
  V  V75  1  -0.00306618  0.24977377  0.25130168  1
  V  V76  1  0.25097993  0.62664086  0.37453832  1
  V  V77  1  0.37606201  0.24989492  0.62462202  1
  V  V78  1  0.62302653  0.49706628  0.12862503  1
  V  V79  1  0.37508402  0.75244251  0.12673626  1
  V  V80  1  0.50174947  0.63087511  0.62674105  1
  V  V81  1  0.25480737  0.75536983  0.49910925  1
  V  V82  1  0.37413406  0.37776463  0.49872340  1
  V  V83  1  0.61828504  0.87454131  0.25113385  1
  V  V84  1  0.62801846  0.49950176  0.62581473  1
  Zn  Zn85  1  0.75129397  0.12252808  0.87663214  1
  Zn  Zn86  1  0.62338647  0.35900213  0.24957688  1
  Zn  Zn87  1  0.62186213  0.74386338  0.86798981  1
  Zn  Zn88  1  0.00061399  0.87793452  0.87380242  1
  Zn  Zn89  1  0.87801907  0.00320939  0.87535462  1
  Zn  Zn90  1  0.75191660  0.49426009  0.26501012  1
  Zn  Zn91  1  0.37760451  -0.00158292  0.87323758  1
  Zn  Zn92  1  0.87833954  0.12396871  0.75548898  1
  Zn  Zn93  1  0.62212427  0.00330414  0.61250304  1
  Zn  Zn94  1  0.49901009  0.00255449  -0.00167134  1
  Zn  Zn95  1  0.00554874  0.12033760  0.62968082  1
  Zn  Zn96  1  0.12415369  0.75015979  0.87196286  1
  Zn  Zn97  1  0.50259862  0.11258809  0.60466312  1
  Zn  Zn98  1  -0.00297373  0.50241776  0.49903716  1
  Zn  Zn99  1  0.76206740  0.62607997  0.86460093  1
  Zn  Zn100  1  0.00414203  0.11791833  0.13059753  1
  Zn  Zn101  1  0.00652566  -0.00526949  0.00343205  1
  Zn  Zn102  1  0.87673222  0.75064590  0.13124820  1
  Zn  Zn103  1  0.12106473  0.38197441  0.75445817  1
  Zn  Zn104  1  0.87813411  0.12132468  0.25092113  1
  Zn  Zn105  1  0.62084188  0.86739869  0.74408370  1
  Zn  Zn106  1  0.50099512  0.74790257  0.25123808  1
  Zn  Zn107  1  0.19046508  0.19017241  0.18706408  1
  Zn  Zn108  1  0.18722340  0.19000675  0.68881326  1
  Zn  Zn109  1  0.18861130  0.68935477  0.18455805  1
  Zn  Zn110  1  0.18821550  0.69111792  0.68869044  1
  Zn  Zn111  1  0.70800573  0.18467982  0.18688107  1
  Zn  Zn112  1  0.68641808  0.18377778  0.68307710  1
  Zn  Zn113  1  0.68961160  0.68609778  0.18760229  1
  Zn  Zn114  1  0.68874004  0.68623239  0.69061006  1
  Zn  Zn115  1  0.31402654  0.30958641  0.31261170  1
  Zn  Zn116  1  0.31233415  0.31524550  0.81396823  1
  Zn  Zn117  1  0.31136397  0.81687164  0.30967984  1
  Zn  Zn118  1  0.31361478  0.81114749  0.81253390  1
  Zn  Zn119  1  0.81033758  0.31145562  0.31301415  1
  Zn  Zn120  1  0.81441257  0.31479060  0.81180618  1
  Zn  Zn121  1  0.81613300  0.80902653  0.30974307  1
  Zn  Zn122  1  0.80924949  0.81504192  0.81560512  1
  Zn  Zn123  1  0.18438427  0.43896112  0.43791371  1
  Zn  Zn124  1  0.18553056  0.44050107  0.93915155  1
  Zn  Zn125  1  0.18667962  0.93712166  0.43641628  1
  Zn  Zn126  1  0.18850235  0.93785558  0.93236705  1
  Zn  Zn127  1  0.68052312  0.42834571  0.43822449  1
  Zn  Zn128  1  0.68971165  0.43835082  0.93735815  1
  Zn  Zn129  1  0.69230424  0.92782638  0.43695361  1
  Zn  Zn130  1  0.68674915  0.93905135  0.93608452  1
  Zn  Zn131  1  0.30887575  0.05991068  0.05999249  1
  Zn  Zn132  1  0.31818857  0.06203402  0.55890530  1
  Zn  Zn133  1  0.30853269  0.56299948  0.06344207  1
  Zn  Zn134  1  0.31375302  0.56711441  0.56375578  1
  Zn  Zn135  1  0.81067583  0.06617856  0.06272992  1
  Zn  Zn136  1  0.80799357  0.05758286  0.56244451  1
  Zn  Zn137  1  0.84258314  0.57365186  0.01692014  1
  Zn  Zn138  1  0.81127763  0.55599291  0.44246339  1
  Zn  Zn139  1  0.43832519  0.43818276  0.18531915  1
  Zn  Zn140  1  0.43783995  0.44089477  0.68927439  1
  Zn  Zn141  1  0.43391122  0.94493237  0.19349072  1
  Zn  Zn142  1  0.43628469  0.93902568  0.68480952  1
  Zn  Zn143  1  0.93349676  0.44238821  0.18013822  1
  Zn  Zn144  1  0.93882775  0.43357832  0.68164077  1
  Zn  Zn145  1  0.94072754  0.94028099  0.18454241  1
  Zn  Zn146  1  0.93247650  0.93572215  0.68958620  1
  Zn  Zn147  1  0.05874187  0.06277072  0.31884663  1
  Zn  Zn148  1  0.06041056  0.06452053  0.81724160  1
  Zn  Zn149  1  0.06116225  0.56403397  0.30905539  1
  Zn  Zn150  1  0.05788012  0.56301791  0.81373696  1
  Zn  Zn151  1  0.55916041  0.05861437  0.44314302  1
  Zn  Zn152  1  0.56338029  0.05624932  0.80724380  1
  Zn  Zn153  1  0.56477380  0.56122278  0.30988610  1
  Zn  Zn154  1  0.56782676  0.56847014  0.81001552  1
  Zn  Zn155  1  0.42614176  0.18969360  0.42924226  1
  Zn  Zn156  1  0.43789951  0.19216059  0.93807710  1
  Zn  Zn157  1  0.44178960  0.69050919  0.43958853  1
  Zn  Zn158  1  0.43747322  0.68792616  0.94025636  1
  Zn  Zn159  1  0.93788424  0.18737245  0.43963110  1
  Zn  Zn160  1  0.93793180  0.19152156  0.93398804  1
  Zn  Zn161  1  0.94494485  0.68888121  0.43881864  1
  Zn  Zn162  1  0.93546316  0.69587592  0.93426000  1
  Zn  Zn163  1  0.06765639  0.30731293  0.06321406  1
  Zn  Zn164  1  0.06093065  0.31399639  0.56413350  1
  Zn  Zn165  1  0.06188728  0.81205825  0.06452403  1
  Zn  Zn166  1  0.06385722  0.80995046  0.56411362  1
  Zn  Zn167  1  0.56171452  0.31996354  0.05670361  1
  Zn  Zn168  1  0.55838855  0.31027245  0.55919056  1
  Zn  Zn169  1  0.56147355  0.80905845  0.05952655  1
  Zn  Zn170  1  0.56845686  0.81108444  0.56370706  1
  O  O171  1  0.12847285  0.13194845  0.10869876  1
  O  O172  1  0.12830639  0.12801146  0.61095976  1
  O  O173  1  0.11721045  0.61967696  0.12232230  1
  O  O174  1  0.12855194  0.61664203  0.62030191  1
  O  O175  1  0.61838077  0.12140054  0.12489240  1
  O  O176  1  0.61209147  0.11868343  0.63723329  1
  O  O177  1  0.61720937  0.61892341  0.12166163  1
  O  O178  1  0.61883006  0.61892498  0.61872831  1
  O  O179  1  0.37897203  0.38398097  0.37840356  1
  O  O180  1  0.38429321  0.37433056  0.88114466  1
  O  O181  1  0.38870976  0.88025123  0.36658384  1
  O  O182  1  0.38166171  0.87382128  0.88376932  1
  O  O183  1  0.88524214  0.36682666  0.38171277  1
  O  O184  1  0.88576280  0.36820010  0.87914108  1
  O  O185  1  0.88112113  0.87908907  0.38257396  1
  O  O186  1  0.87744991  0.87669349  0.88585262  1
  O  O187  1  0.25242786  0.00837456  0.37318643  1
  O  O188  1  0.25367566  0.00915564  0.86541505  1
  O  O189  1  0.25468849  0.50627070  0.37001754  1
  O  O190  1  0.24649109  0.51339822  0.86737598  1
  O  O191  1  0.75868205  0.00296649  0.37111398  1
  O  O192  1  0.75168013  -0.00177806  0.86153310  1
  O  O193  1  0.74687591  0.49238438  0.37793875  1
  O  O194  1  0.74406521  0.49457360  0.85388426  1
  O  O195  1  0.24057042  0.49502189  0.13213775  1
  O  O196  1  0.24447224  0.49950636  0.63107488  1
  O  O197  1  0.24755047  0.98563414  0.12178747  1
  O  O198  1  0.25688016  0.98892448  0.62912210  1
  O  O199  1  0.74563081  0.48470666  0.12565563  1
  O  O200  1  0.73853679  0.48819626  0.63573266  1
  O  O201  1  0.74103234  0.99374862  0.12997578  1
  O  O202  1  0.75017101  0.99119221  0.63600523  1
  O  O203  1  0.00327407  0.37031193  0.25503614  1
  O  O204  1  0.00565628  0.36006771  0.73935754  1
  O  O205  1  0.01123056  0.87671137  0.25792959  1
  O  O206  1  0.00613126  0.86370645  0.74491903  1
  O  O207  1  0.50079237  0.37955127  0.26121968  1
  O  O208  1  0.50318215  0.36888227  0.75550440  1
  O  O209  1  0.51224317  0.87294614  0.24844966  1
  O  O210  1  0.49579179  0.87529524  0.76549195  1
  O  O211  1  0.48457278  0.12954448  0.24342589  1
  O  O212  1  0.48488876  0.13088554  0.75919329  1
  O  O213  1  0.49342034  0.62540831  0.23888083  1
  O  O214  1  0.49235087  0.62008419  0.73668912  1
  O  O215  1  0.99953073  0.13485639  0.25152137  1
  O  O216  1  1.00098681  0.13608954  0.74620564  1
  O  O217  1  0.98896114  0.62246328  0.24038351  1
  O  O218  1  1.00365980  0.63640552  0.73957305  1
  O  O219  1  0.36286833  0.25926450  -0.00515567  1
  O  O220  1  0.36525548  0.25782313  0.50691899  1
  O  O221  1  0.36834604  0.76024525  0.00681928  1
  O  O222  1  0.36201590  0.74417832  0.50780280  1
  O  O223  1  0.86562461  0.24658685  0.00740606  1
  O  O224  1  0.87005024  0.25651551  0.50534527  1
  O  O225  1  0.86623502  0.76372596  0.00794022  1
  O  O226  1  0.87995606  0.76339255  0.49651463  1
  O  O227  1  0.12886519  0.24377772  0.49570257  1
  O  O228  1  0.13831179  0.24248269  0.99187725  1
  O  O229  1  0.13564323  0.74620336  0.49226293  1
  O  O230  1  0.13248363  0.74362069  0.99867854  1
  O  O231  1  0.64026219  0.25227807  0.50352194  1
  O  O232  1  0.62835144  0.24577730  0.99193954  1
  O  O233  1  0.62166585  0.74080958  0.48695792  1
  O  O234  1  0.63167774  0.73838448  0.99946253  1
  O  O235  1  0.49833626  0.24626549  0.12224453  1
  O  O236  1  0.48582489  0.25326952  0.63055015  1
  O  O237  1  0.49162779  0.74249533  0.12720373  1
  O  O238  1  0.49131381  0.74273142  0.61820934  1
  O  O239  1  0.99529962  0.24707410  0.13313361  1
  O  O240  1  0.99324738  0.24528192  0.62832646  1
  O  O241  1  1.00182924  0.73593910  0.12966669  1
  O  O242  1  1.00325313  0.73727232  0.63401603  1
  O  O243  1  0.00565657  0.25709454  0.36876267  1
  O  O244  1  0.01326305  0.24543660  0.86473144  1
  O  O245  1  0.01120958  0.76314469  0.38059484  1
  O  O246  1  0.00348211  0.75204051  0.86048561  1
  O  O247  1  0.48792151  0.26763007  0.37258341  1
  O  O248  1  0.51018137  0.25621483  0.86911740  1
  O  O249  1  0.50382249  0.76134831  0.37144910  1
  O  O250  1  0.50005425  0.76448036  0.88231321  1
  O  O251  1  0.24387879  0.12853452  0.49131518  1
  O  O252  1  0.24675340  0.13241381  0.99219043  1
  O  O253  1  0.24517676  0.63230734  0.49296323  1
  O  O254  1  0.24434865  0.63203728  0.99450351  1
  O  O255  1  0.75565259  0.13545584  0.49297476  1
  O  O256  1  0.73612426  0.13827346  1.00269920  1
  O  O257  1  0.73823015  0.62129567  0.50473151  1
  O  O258  1  0.74061492  0.63544157  1.01318721  1
  O  O259  1  0.25556657  0.37053464  0.00573232  1
  O  O260  1  0.25440741  0.37143696  0.50494550  1
  O  O261  1  0.25407402  0.86980110  0.00470361  1
  O  O262  1  0.24486071  0.86757874  0.50777790  1
  O  O263  1  0.74155735  0.36185131  0.00809671  1
  O  O264  1  0.75569712  0.36124948  0.50340786  1
  O  O265  1  0.75092480  0.86884429  0.00817969  1
  O  O266  1  0.76524577  0.87409554  0.51082226  1
  O  O267  1  0.13130688  0.49493598  0.24440594  1
  O  O268  1  0.13633286  0.50314324  0.74305315  1
  O  O269  1  0.12266804  0.98990089  0.25405922  1
  O  O270  1  0.13643948  0.99662791  0.75144725  1
  O  O271  1  0.63065950  0.50095028  0.23713119  1
  O  O272  1  0.62324925  0.49464168  0.73740776  1
  O  O273  1  0.63422816  0.98759687  0.24163439  1
  O  O274  1  0.63952178  0.98832621  0.75128162  1
  O  O275  1  0.37664349  0.01461300  0.26172468  1
  O  O276  1  0.36226132  0.00857360  0.75090245  1
  O  O277  1  0.36834514  0.50655421  0.25394611  1
  O  O278  1  0.36246303  0.51382082  0.74193155  1
  O  O279  1  0.86948463  -0.00448813  0.26139893  1
  O  O280  1  0.86346687  0.00195142  0.75142899  1
  O  O281  1  0.87325198  0.51796228  0.24496310  1
  O  O282  1  0.86345864  0.49215197  0.74403887  1
  O  O283  1  0.11957715  0.36876589  0.36862951  1
  O  O284  1  0.13843302  0.36202869  0.87142866  1
  O  O285  1  0.11976715  0.87033012  0.36460253  1
  O  O286  1  0.12522648  0.87316601  0.86000510  1
  O  O287  1  0.60746539  0.37025157  0.37132452  1
  O  O288  1  0.61680490  0.36916385  0.87156796  1
  O  O289  1  0.61525369  0.86464710  0.36984297  1
  O  O290  1  0.60969056  0.87287519  0.87965720  1
  O  O291  1  0.36423610  0.12178371  0.13681615  1
  O  O292  1  0.37438195  0.13381982  0.63263953  1
  O  O293  1  0.38069612  0.62964414  0.12698986  1
  O  O294  1  0.38203490  0.63518999  0.63015744  1
  O  O295  1  0.87343186  0.13907621  0.12947602  1
  O  O296  1  0.87640634  0.13479201  0.62245880  1
  O  O297  1  0.89252432  0.62492971  0.11631429  1
  O  O298  1  0.88862272  0.62157426  0.62042095  1
  O  O299  1  0.24451491  0.26326182  0.11513313  1
  O  O300  1  0.25842180  0.25639816  0.62109279  1
  O  O301  1  0.25645891  0.75644584  0.11793323  1
  O  O302  1  0.25590562  0.75788041  0.61723056  1
  O  O303  1  0.75831041  0.25853222  0.11669959  1
  O  O304  1  0.75702914  0.25146995  0.61559935  1
  O  O305  1  0.74826086  0.75992831  0.11795549  1
  O  O306  1  0.75405273  0.76073813  0.62769756  1
  O  O307  1  0.24296116  0.24293973  0.38072181  1
  O  O308  1  0.24622381  0.24331239  0.87961869  1
  O  O309  1  0.24586549  0.74794893  0.38139595  1
  O  O310  1  0.24882793  0.73994731  0.88159028  1
  O  O311  1  0.75386824  0.23840669  0.38691626  1
  O  O312  1  0.73822275  0.25240766  0.88040720  1
  O  O313  1  0.73500556  0.75659457  0.37501278  1
  O  O314  1  0.74821690  0.74823680  0.88836238  1
  O  O315  1  0.01887764  0.13236208  -0.00111184  1
  O  O316  1  0.00892551  0.11482749  0.49992712  1
  O  O317  1  0.01256805  0.63294424  0.01083834  1
  O  O318  1  0.00769817  0.62474650  0.51239729  1
  O  O319  1  0.51157012  0.12454639  -0.00395629  1
  O  O320  1  0.49076972  0.12980775  0.49366188  1
  O  O321  1  0.50824640  0.62845497  0.01117395  1
  O  O322  1  0.50427177  0.61881638  0.51037075  1
  O  O323  1  0.49270261  0.38140443  0.49101731  1
  O  O324  1  0.48874328  0.37473588  0.98863320  1
  O  O325  1  0.49738158  0.86824493  0.49070304  1
  O  O326  1  0.49006365  0.87683302  0.99570126  1
  O  O327  1  0.99282281  0.37462470  0.49093942  1
  O  O328  1  1.01248935  0.36927681  0.98890478  1
  O  O329  1  0.99331547  0.87886270  0.49651036  1
  O  O330  1  0.99037280  0.87247087  0.99956418  1
  O  O331  1  0.49479512  0.49599023  0.38098629  1
  O  O332  1  0.50393413  0.49076260  0.86751051  1
  O  O333  1  0.49573215  0.98116299  0.37502008  1
  O  O334  1  0.49677164  0.98775026  0.87844109  1
  O  O335  1  1.00715377  0.48713218  0.37676076  1
  O  O336  1  1.00109376  0.49268732  0.87837448  1
  O  O337  1  0.99382285  0.98783983  0.38402552  1
  O  O338  1  0.99792206  0.99680325  0.88368082  1
  O  O339  1  -0.00320676  0.00655874  0.11632471  1
  O  O340  1  -0.00344651  -0.00036091  0.61423868  1
  O  O341  1  0.01387648  0.50999582  0.13052858  1
  O  O342  1  0.00868722  0.51196769  0.62681212  1
  O  O343  1  0.51306194  -0.00618666  0.12193237  1
  O  O344  1  0.50568814  -0.00038269  0.62807862  1
  O  O345  1  0.50886295  0.50824114  0.12610020  1
  O  O346  1  0.50584917  0.50635805  0.61834638  1
  O  O347  1  0.24650951  0.37852885  0.24317874  1
  O  O348  1  0.25097265  0.38672719  0.74339435  1
  O  O349  1  0.23441333  0.87232536  0.24309038  1
  O  O350  1  0.24468439  0.88213573  0.74372948  1
  O  O351  1  0.74292542  0.37088379  0.24141121  1
  O  O352  1  0.74250948  0.37773462  0.74272453  1
  O  O353  1  0.74116082  0.87547503  0.24409977  1
  O  O354  1  0.75501676  0.88052002  0.73704741  1
  O  O355  1  0.25344156  0.12674713  0.25719669  1
  O  O356  1  0.25626384  0.12060523  0.75437943  1
  O  O357  1  0.25544772  0.62118917  0.25545638  1
  O  O358  1  0.25669629  0.62191854  0.75792591  1
  O  O359  1  0.75743889  0.11598964  0.26198885  1
  O  O360  1  0.75212988  0.11252143  0.75062299  1
  O  O361  1  0.76315370  0.62054567  0.24943100  1
  O  O362  1  0.75141766  0.60742637  0.74748622  1
  O  O363  1  0.36247672  0.11924294  0.36419955  1
  O  O364  1  0.36433420  0.12703310  0.86882455  1
  O  O365  1  0.37166995  0.62091246  0.37059853  1
  O  O366  1  0.36863524  0.62995178  0.86672670  1
  O  O367  1  0.87572341  0.11032710  0.37716011  1
  O  O368  1  0.86872295  0.12370978  0.87483679  1
  O  O369  1  0.87839981  0.62290957  0.37216617  1
  O  O370  1  0.86428519  0.61549248  0.91125435  1
  O  O371  1  0.13290992  0.38276789  0.12959733  1
  O  O372  1  0.13096245  0.38991171  0.62377227  1
  O  O373  1  0.12932976  0.86990778  0.13923807  1
  O  O374  1  0.13541972  0.87102314  0.63515015  1
  O  O375  1  0.62917407  0.38174884  0.12725885  1
  O  O376  1  0.62654583  0.38086654  0.62749237  1
  O  O377  1  0.63176439  0.87903757  0.12971737  1
  O  O378  1  0.64203557  0.87456882  0.62264953  1
  O  O379  1  0.11493926  0.25605098  0.25309656  1
  O  O380  1  0.12055134  0.25334467  0.75736376  1
  O  O381  1  0.12941397  0.75226921  0.26198116  1
  O  O382  1  0.11901086  0.75850041  0.75033449  1
  O  O383  1  0.61472307  0.23808323  0.23592858  1
  O  O384  1  0.62167203  0.25692181  0.75685334  1
  O  O385  1  0.62422697  0.75392760  0.26040371  1
  O  O386  1  0.62841842  0.75392376  0.75452806  1
  O  O387  1  0.36907672  0.23240941  0.25088363  1
  O  O388  1  0.37581975  0.24372256  0.74251169  1
  O  O389  1  0.37438812  0.74351087  0.24296146  1
  O  O390  1  0.36913488  0.73770585  0.74020899  1
  O  O391  1  0.88684345  0.24845940  0.24656797  1
  O  O392  1  0.88186847  0.24836938  0.74003983  1
  O  O393  1  0.87236185  0.72989636  0.24807523  1
  O  O394  1  0.88717138  0.75261724  0.75247726  1
  O  O395  1  0.37949556  0.49708866  0.49575342  1
  O  O396  1  0.36737515  0.49015718  0.99837809  1
  O  O397  1  0.36878949  1.00264338  0.47772734  1
  O  O398  1  0.37441148  0.98816571  0.99766687  1
  O  O399  1  0.87831399  0.48227953  0.50360057  1
  O  O400  1  0.88921542  0.47194940  1.01038326  1
  O  O401  1  0.88207426  0.99038012  0.49421854  1
  O  O402  1  0.86724614  0.98679175  1.00152701  1
  O  O403  1  0.13118012  0.01864982  -0.00690718  1
  O  O404  1  0.11467168  0.00700373  0.49371015  1
  O  O405  1  0.13374788  0.51243531  0.01118709  1
  O  O406  1  0.12301191  0.50859328  0.50773890  1
  O  O407  1  0.62742470  0.01084677  0.00989590  1
  O  O408  1  0.63618517  0.00008900  0.49767740  1
  O  O409  1  0.63332828  0.51073751  0.01223820  1
  O  O410  1  0.61900590  0.50409317  0.50989497  1
  O  O411  1  0.36349542  0.38193842  0.11759847  1
  O  O412  1  0.36950145  0.37049969  0.62032453  1
  O  O413  1  0.36794639  0.87259021  0.12151114  1
  O  O414  1  0.36544557  0.86190542  0.63264067  1
  O  O415  1  0.86772452  0.36071590  0.13358402  1
  O  O416  1  0.87019161  0.36241018  0.61582838  1
  O  O417  1  0.86179156  0.87304408  0.12467220  1
  O  O418  1  0.86823840  0.87502857  0.61290947  1
  O  O419  1  0.13062701  0.12962239  0.38300311  1
  O  O420  1  0.13719186  0.13485931  0.88005422  1
  O  O421  1  0.12847056  0.63265649  0.37871010  1
  O  O422  1  0.13187681  0.62640787  0.88354915  1
  O  O423  1  0.63436271  0.11901884  0.36942810  1
  O  O424  1  0.62693948  0.13253333  0.88088203  1
  O  O425  1  0.61820846  0.63712966  0.38162214  1
  O  O426  1  0.63250445  0.62375963  0.88606028  1
