# generated using pymatgen
data_V85Zn86O256
_symmetry_space_group_name_H-M   'P 1'
_cell_length_a   16.93612716
_cell_length_b   16.93101487
_cell_length_c   16.94781344
_cell_angle_alpha   90.00178549
_cell_angle_beta   90.06061563
_cell_angle_gamma   89.97721726
_symmetry_Int_Tables_number   1
_chemical_formula_structural   V85Zn86O256
_chemical_formula_sum   'V85 Zn86 O256'
_cell_volume   4859.71156933
_cell_formula_units_Z   1
loop_
 _symmetry_equiv_pos_site_id
 _symmetry_equiv_pos_as_xyz
  1  'x, y, z'
loop_
 _atom_site_type_symbol
 _atom_site_label
 _atom_site_symmetry_multiplicity
 _atom_site_fract_x
 _atom_site_fract_y
 _atom_site_fract_z
 _atom_site_occupancy
  V  V0  1  0.87513369  0.88237455  -0.00796714  1
  V  V1  1  0.11481130  0.87009223  0.74612945  1
  V  V2  1  -0.00393173  0.00128994  0.49251604  1
  V  V3  1  0.75059946  0.49688439  0.25250753  1
  V  V4  1  0.37662400  0.25106722  0.62433825  1
  V  V5  1  0.50639484  0.74933788  0.75599211  1
  V  V6  1  0.76280803  0.11997577  0.87723683  1
  V  V7  1  0.37721563  0.87039828  0.49940597  1
  V  V8  1  0.62324269  0.00074436  0.12915490  1
  V  V9  1  0.36998658  0.87034170  -0.00392217  1
  V  V10  1  0.86939524  0.87904211  0.50064793  1
  V  V11  1  0.12957357  0.63084027  0.00398770  1
  V  V12  1  0.24906407  0.61402964  0.36756399  1
  V  V13  1  0.12856787  0.50046766  0.13160833  1
  V  V14  1  -0.00712302  0.25404209  0.74673173  1
  V  V15  1  0.24392410  0.25139849  0.49493818  1
  V  V16  1  -0.01037583  0.13135194  0.62233976  1
  V  V17  1  0.36848226  0.25144350  0.10206323  1
  V  V18  1  0.12551115  0.37802892  0.75192173  1
  V  V19  1  0.37263370  -0.00615547  0.36882136  1
  V  V20  1  0.37600887  0.38477471  0.48915601  1
  V  V21  1  0.75726253  0.62443904  0.86451562  1
  V  V22  1  0.25052132  0.74829238  0.49693369  1
  V  V23  1  0.87463831  0.75095778  0.12308670  1
  V  V24  1  0.79719793  0.41567305  0.67272677  1
  V  V25  1  0.37693742  0.74967310  0.62539825  1
  V  V26  1  0.60738710  0.36577825  0.26149739  1
  V  V27  1  0.50256333  0.61908468  0.62701561  1
  V  V28  1  -0.00316252  0.12603888  0.12290629  1
  V  V29  1  0.24701073  0.37848799  0.62609400  1
  V  V30  1  0.12189016  0.75042062  0.37455892  1
  V  V31  1  0.00509717  0.50030427  0.50650920  1
  V  V32  1  0.50036191  0.62513413  0.12471356  1
  V  V33  1  0.74391785  0.13390911  0.37394032  1
  V  V34  1  0.87725551  0.62615323  0.25103490  1
  V  V35  1  0.12299292  0.62155852  0.51170132  1
  V  V36  1  0.62457827  0.49701396  0.12418782  1
  V  V37  1  0.50272692  0.24716321  0.74860537  1
  V  V38  1  0.12348856  0.75668296  0.87988759  1
  V  V39  1  0.37077003  0.74874117  0.12073595  1
  V  V40  1  0.37562299  -0.00258070  0.87205952  1
  V  V41  1  0.75771616  -0.00328762  0.74925298  1
  V  V42  1  0.62849225  0.74865787  0.37674970  1
  V  V43  1  0.75089995  0.75258016  0.51498647  1
  V  V44  1  0.24406391  0.12747905  0.37225041  1
  V  V45  1  0.12275738  0.00586170  0.62138893  1
  V  V46  1  0.75022383  0.87573758  0.12680362  1
  V  V47  1  0.39165230  0.16396045  0.27296429  1
  V  V48  1  0.00743404  0.36749088  0.37346385  1
  V  V49  1  0.24962713  0.87577447  0.62357560  1
  V  V50  1  0.37463372  0.49486025  0.88109375  1
  V  V51  1  0.87770646  0.49890184  0.37704505  1
  V  V52  1  0.50054854  -0.00175988  0.00049893  1
  V  V53  1  0.62722310  0.12408543  0.00223056  1
  V  V54  1  0.36985569  0.61225369  0.24852693  1
  V  V55  1  0.12520751  0.87789870  0.24943234  1
  V  V56  1  0.37793731  0.12291447  0.74154079  1
  V  V57  1  0.50079959  0.87203166  0.37791164  1
  V  V58  1  0.89429405  0.74027595  0.63462905  1
  V  V59  1  0.75460731  0.36953552  0.13206539  1
  V  V60  1  0.24694269  0.50552407  0.74724014  1
  V  V61  1  0.37566805  0.62516382  0.75153749  1
  V  V62  1  0.87612049  0.12756903  0.25164485  1
  V  V63  1  0.51019479  0.87244807  0.87591117  1
  V  V64  1  0.75617797  -0.00002729  0.26069684  1
  V  V65  1  0.25226972  0.37388175  0.09905757  1
  V  V66  1  0.74273528  0.25207813  0.50843275  1
  V  V67  1  0.49391504  0.13228732  0.12649637  1
  V  V68  1  0.62997459  0.87388572  0.73796804  1
  V  V69  1  0.24914812  0.00085849  0.74679474  1
  V  V70  1  0.00320276  0.25069204  0.24756155  1
  V  V71  1  0.13037525  0.12840454  0.00255879  1
  V  V72  1  0.62280224  0.01640575  0.62422623  1
  V  V73  1  0.62698367  0.62050922  0.50146074  1
  V  V74  1  0.62609768  0.87408824  0.25256243  1
  V  V75  1  0.25080838  0.13103875  0.87703617  1
  V  V76  1  0.75750026  0.24786247  0.00718011  1
  V  V77  1  0.87554894  0.36367764  0.49872398  1
  V  V78  1  0.62756606  0.63050179  -0.00700841  1
  V  V79  1  0.62786563  0.25158171  0.87717190  1
  V  V80  1  0.62296328  0.48868927  0.62987749  1
  V  V81  1  0.00044635  0.37587213  0.88186060  1
  V  V82  1  0.87501363  0.38094638  0.00410268  1
  V  V83  1  0.14070577  0.37190671  0.25248567  1
  V  V84  1  0.24700080  0.87317303  0.11899884  1
  Zn  Zn85  1  0.49392024  0.36820628  0.88370406  1
  Zn  Zn86  1  0.49497096  0.00993072  0.50617566  1
  Zn  Zn87  1  0.74756502  0.75252878  -0.00661076  1
  Zn  Zn88  1  0.49826261  0.74865533  0.25086378  1
  Zn  Zn89  1  -0.00534705  0.88006196  0.37161397  1
  Zn  Zn90  1  0.50748679  0.48158626  0.47428842  1
  Zn  Zn91  1  -0.00088290  0.50471790  0.00680640  1
  Zn  Zn92  1  0.25361414  0.63483705  0.88079680  1
  Zn  Zn93  1  0.62699675  0.37483746  0.75156458  1
  Zn  Zn94  1  0.75342462  0.62601269  0.37777289  1
  Zn  Zn95  1  0.87995311  0.12152258  0.75298125  1
  Zn  Zn96  1  0.25286765  0.00577566  0.24557610  1
  Zn  Zn97  1  0.00080672  0.62515446  0.12562903  1
  Zn  Zn98  1  0.12406839  0.00004397  0.12174092  1
  Zn  Zn99  1  -0.00299836  0.00482456  -0.01310419  1
  Zn  Zn100  1  -0.00257091  0.75334654  0.25125353  1
  Zn  Zn101  1  0.12987554  0.25186211  0.87843824  1
  Zn  Zn102  1  -0.01160486  0.87799623  0.86234070  1
  Zn  Zn103  1  0.49660981  0.49310885  0.00104977  1
  Zn  Zn104  1  0.61403282  0.13355884  0.49184654  1
  Zn  Zn105  1  0.11979495  0.13361911  0.49477261  1
  Zn  Zn106  1  0.88236101  0.51737676  0.84918834  1
  Zn  Zn107  1  0.19307359  0.19243395  0.18657486  1
  Zn  Zn108  1  0.18448831  0.19031692  0.68722013  1
  Zn  Zn109  1  0.18796150  0.69207858  0.18801516  1
  Zn  Zn110  1  0.18617257  0.69181693  0.69012199  1
  Zn  Zn111  1  0.68201505  0.19033852  0.19255665  1
  Zn  Zn112  1  0.69495986  0.18939141  0.69144958  1
  Zn  Zn113  1  0.69061221  0.68575284  0.18804685  1
  Zn  Zn114  1  0.68814990  0.68340297  0.69090000  1
  Zn  Zn115  1  0.32657558  0.31180366  0.31384327  1
  Zn  Zn116  1  0.31312255  0.31310607  0.81201572  1
  Zn  Zn117  1  0.30980893  0.80644911  0.30754708  1
  Zn  Zn118  1  0.30905555  0.81217088  0.81192454  1
  Zn  Zn119  1  0.81500700  0.30890363  0.31319022  1
  Zn  Zn120  1  0.81637509  0.31136915  0.82192180  1
  Zn  Zn121  1  0.81208656  0.81223803  0.31837214  1
  Zn  Zn122  1  0.80579464  0.80184957  0.81022987  1
  Zn  Zn123  1  0.18831011  0.43715248  0.43666944  1
  Zn  Zn124  1  0.18197211  0.44883994  0.93320864  1
  Zn  Zn125  1  0.18642493  0.93853545  0.43624630  1
  Zn  Zn126  1  0.18372568  0.94280752  0.93569538  1
  Zn  Zn127  1  0.68946446  0.43355222  0.43774925  1
  Zn  Zn128  1  0.69224595  0.44102996  0.93706794  1
  Zn  Zn129  1  0.68835879  0.93997499  0.44171232  1
  Zn  Zn130  1  0.69058917  0.93767349  0.93638563  1
  Zn  Zn131  1  0.31341827  0.05951741  0.06179925  1
  Zn  Zn132  1  0.31241812  0.06282589  0.55740431  1
  Zn  Zn133  1  0.30648000  0.56090821  0.06376912  1
  Zn  Zn134  1  0.31019389  0.56312710  0.56240834  1
  Zn  Zn135  1  0.81378356  0.06185685  0.07125833  1
  Zn  Zn136  1  0.80664535  0.06309072  0.56310830  1
  Zn  Zn137  1  0.80973084  0.56221352  0.06333556  1
  Zn  Zn138  1  0.81610867  0.56405778  0.56184842  1
  Zn  Zn139  1  0.43259020  0.43357012  0.17919620  1
  Zn  Zn140  1  0.43741296  0.43440471  0.69147896  1
  Zn  Zn141  1  0.43907417  0.93404558  0.18700935  1
  Zn  Zn142  1  0.44270129  0.93726908  0.68583597  1
  Zn  Zn143  1  0.94032307  0.43662203  0.18780567  1
  Zn  Zn144  1  0.96785655  0.47806516  0.70869335  1
  Zn  Zn145  1  0.93818085  0.94078247  0.18530583  1
  Zn  Zn146  1  0.93386216  0.93552065  0.67622237  1
  Zn  Zn147  1  0.06462257  0.06180227  0.30955655  1
  Zn  Zn148  1  0.06028647  0.06078376  0.81299265  1
  Zn  Zn149  1  0.06283379  0.55905737  0.31338446  1
  Zn  Zn150  1  0.06303924  0.56978662  0.82072401  1
  Zn  Zn151  1  0.55955340  0.06084617  0.31560164  1
  Zn  Zn152  1  0.56671265  0.06368853  0.81198777  1
  Zn  Zn153  1  0.56204127  0.55800762  0.30907816  1
  Zn  Zn154  1  0.56475477  0.55617866  0.81225946  1
  Zn  Zn155  1  0.43318463  0.18918970  0.44355981  1
  Zn  Zn156  1  0.44043070  0.18185732  0.93215734  1
  Zn  Zn157  1  0.45275359  0.65535449  0.42142278  1
  Zn  Zn158  1  0.43899429  0.68449511  0.93845540  1
  Zn  Zn159  1  0.93419822  0.18524957  0.43080662  1
  Zn  Zn160  1  0.94136694  0.19349380  0.94006315  1
  Zn  Zn161  1  0.93867011  0.68828285  0.44260126  1
  Zn  Zn162  1  0.94247570  0.69381122  0.93705825  1
  Zn  Zn163  1  0.06629430  0.30771215  0.06593360  1
  Zn  Zn164  1  0.06281301  0.31701315  0.56563037  1
  Zn  Zn165  1  0.05740158  0.81243413  0.06127549  1
  Zn  Zn166  1  0.05974189  0.81342829  0.56003674  1
  Zn  Zn167  1  0.56415294  0.31390578  0.06392327  1
  Zn  Zn168  1  0.55698896  0.30810441  0.55978770  1
  Zn  Zn169  1  0.56083057  0.81064520  0.06423568  1
  Zn  Zn170  1  0.56211508  0.81103762  0.56459368  1
  O  O171  1  0.12262845  0.12395791  0.11906256  1
  O  O172  1  0.11801213  0.11838539  0.62079042  1
  O  O173  1  0.12595966  0.61922557  0.12334843  1
  O  O174  1  0.13383033  0.62799850  0.61055405  1
  O  O175  1  0.61570207  0.12092418  0.12309478  1
  O  O176  1  0.62547304  0.11771348  0.62740537  1
  O  O177  1  0.61787250  0.61880411  0.12160213  1
  O  O178  1  0.62195319  0.61267027  0.62173471  1
  O  O179  1  0.36382494  0.38767239  0.39109783  1
  O  O180  1  0.37296243  0.39084955  0.87063012  1
  O  O181  1  0.37759373  0.87320801  0.38184484  1
  O  O182  1  0.38327939  0.87869305  0.87669237  1
  O  O183  1  0.88354464  0.38077910  0.38055287  1
  O  O184  1  0.88303690  0.38104140  0.88572665  1
  O  O185  1  0.87926139  0.86763308  0.39331503  1
  O  O186  1  0.86909569  0.86599874  0.89004388  1
  O  O187  1  0.25634422  0.00563558  0.37312348  1
  O  O188  1  0.25676745  0.00631043  0.86490197  1
  O  O189  1  0.24882650  0.51584159  0.37590409  1
  O  O190  1  0.25907349  0.50582256  0.86437312  1
  O  O191  1  0.74675489  0.00626084  0.36470255  1
  O  O192  1  0.74198192  0.01112502  0.86481572  1
  O  O193  1  0.76373090  0.49954785  0.37270513  1
  O  O194  1  0.75867360  0.51710113  0.88321586  1
  O  O195  1  0.24366351  0.48386720  0.12273117  1
  O  O196  1  0.25498435  0.49352828  0.63843086  1
  O  O197  1  0.25083963  0.98655615  0.12744698  1
  O  O198  1  0.24204655  0.99659192  0.62527067  1
  O  O199  1  0.74316390  0.49171484  0.13247455  1
  O  O200  1  0.74352088  0.48930976  0.61875295  1
  O  O201  1  0.74200190  0.99475450  0.13682011  1
  O  O202  1  0.73611185  1.00470886  0.63579053  1
  O  O203  1  0.00728306  0.36732436  0.25506962  1
  O  O204  1  0.00894525  0.37408478  0.75858692  1
  O  O205  1  0.00854333  0.87608363  0.25230143  1
  O  O206  1  0.01237883  0.88152192  0.74236264  1
  O  O207  1  0.50907825  0.37924329  0.24376605  1
  O  O208  1  0.50098792  0.35921454  0.75768242  1
  O  O209  1  0.50805962  0.87006748  0.25794250  1
  O  O210  1  0.50692425  0.86786457  0.75676831  1
  O  O211  1  0.48653501  0.11830812  0.24205711  1
  O  O212  1  0.49017103  0.13503213  0.75583285  1
  O  O213  1  0.49283933  0.62782677  0.23607267  1
  O  O214  1  0.49972074  0.63148318  0.74414919  1
  O  O215  1  0.99542585  0.13058465  0.24719952  1
  O  O216  1  1.00145519  0.13573577  0.74142001  1
  O  O217  1  0.98747340  0.62539858  0.25014582  1
  O  O218  1  0.96414232  0.56748927  0.77475700  1
  O  O219  1  0.37452766  0.24220794  0.00216260  1
  O  O220  1  0.36413257  0.26199844  0.50966946  1
  O  O221  1  0.38039760  0.75451889  0.01106111  1
  O  O222  1  0.37166400  0.75906068  0.50456624  1
  O  O223  1  0.86270167  0.25999674  -0.00260734  1
  O  O224  1  0.87012457  0.25972481  0.49410042  1
  O  O225  1  0.87175218  0.75997880  0.00987934  1
  O  O226  1  0.86744971  0.75546982  0.50587775  1
  O  O227  1  0.13962468  0.25309648  0.50467005  1
  O  O228  1  0.12198083  0.23385496  0.99627033  1
  O  O229  1  0.12944719  0.74361644  0.49215102  1
  O  O230  1  0.12336354  0.74885639  0.99007717  1
  O  O231  1  0.63730473  0.25114920  0.50082378  1
  O  O232  1  0.63646123  0.24326287  0.99580565  1
  O  O233  1  0.63249121  0.74518450  0.49708253  1
  O  O234  1  0.62386673  0.73413902  1.00532444  1
  O  O235  1  0.49218595  0.23715961  0.11808401  1
  O  O236  1  0.48534673  0.25272259  0.63273759  1
  O  O237  1  0.49232189  0.74134569  0.12665128  1
  O  O238  1  0.49541040  0.74489606  0.63749283  1
  O  O239  1  1.00360335  0.23673793  0.13362444  1
  O  O240  1  1.00627987  0.24333949  0.63310178  1
  O  O241  1  0.98591623  0.74959504  0.12997114  1
  O  O242  1  0.99470924  0.74477754  0.62268047  1
  O  O243  1  0.00027254  0.26078928  0.36895994  1
  O  O244  1  0.00435476  0.26048627  0.86785577  1
  O  O245  1  0.01261026  0.75056655  0.37477777  1
  O  O246  1  0.01520283  0.76028632  0.87453352  1
  O  O247  1  0.42925647  0.23759158  0.34212490  1
  O  O248  1  0.51074995  0.24790811  0.86899684  1
  O  O249  1  0.51364069  0.75109377  0.37567875  1
  O  O250  1  0.49602993  0.75658665  0.86420222  1
  O  O251  1  0.24940213  0.13475763  0.49179541  1
  O  O252  1  0.24421608  0.11644132  0.98827291  1
  O  O253  1  0.24586781  0.62965432  0.48901084  1
  O  O254  1  0.23543197  0.62495132  0.99969471  1
  O  O255  1  0.75041228  0.13591083  0.49016312  1
  O  O256  1  0.74841213  0.12955743  0.99855219  1
  O  O257  1  0.73939410  0.63098721  0.50109163  1
  O  O258  1  0.73532765  0.62857249  1.00502561  1
  O  O259  1  0.24417796  0.37734850  0.00130899  1
  O  O260  1  0.25586330  0.37228867  0.50817080  1
  O  O261  1  0.25880866  0.88142090  0.00504528  1
  O  O262  1  0.25586685  0.86873319  0.50432500  1
  O  O263  1  0.75546933  0.36796488  0.00958476  1
  O  O264  1  0.75828069  0.36054874  0.49478191  1
  O  O265  1  0.75620237  0.87337918  0.00731547  1
  O  O266  1  0.76111920  0.86902072  0.49856674  1
  O  O267  1  0.12135984  0.48973165  0.23899163  1
  O  O268  1  0.13445338  0.48943496  0.75810770  1
  O  O269  1  0.13027612  0.98952643  0.24706808  1
  O  O270  1  0.13000405  0.99580162  0.73582979  1
  O  O271  1  0.63078627  0.49827545  0.23969623  1
  O  O272  1  0.62576152  0.49271296  0.74046003  1
  O  O273  1  0.63029490  0.99327049  0.24670591  1
  O  O274  1  0.63015553  0.99542806  0.74087592  1
  O  O275  1  0.37214954  -0.01269938  0.26410604  1
  O  O276  1  0.37202468  0.00610230  0.74992105  1
  O  O277  1  0.37467907  0.51331744  0.24033325  1
  O  O278  1  0.36901964  0.50689579  0.75699000  1
  O  O279  1  0.86490472  0.00853194  0.24611230  1
  O  O280  1  0.86137795  -0.00255597  0.74193813  1
  O  O281  1  0.87230004  0.50498493  0.25756593  1
  O  O282  1  0.85238289  0.46680712  0.73920782  1
  O  O283  1  0.11805299  0.37994086  0.36558256  1
  O  O284  1  0.12150801  0.37162891  0.87000376  1
  O  O285  1  0.12358426  0.86814185  0.36740500  1
  O  O286  1  0.12685796  0.86945239  0.86412060  1
  O  O287  1  0.61879723  0.38856306  0.36036886  1
  O  O288  1  0.63335290  0.36030291  0.87434566  1
  O  O289  1  0.62166113  0.86855077  0.37392875  1
  O  O290  1  0.61297382  0.88041548  0.86837117  1
  O  O291  1  0.37988470  0.13191201  0.12496719  1
  O  O292  1  0.36786080  0.13178394  0.63485696  1
  O  O293  1  0.37864422  0.63041409  0.12622942  1
  O  O294  1  0.38440060  0.62900591  0.62990067  1
  O  O295  1  0.88248476  0.12532024  0.13831443  1
  O  O296  1  0.88713832  0.12154034  0.62668892  1
  O  O297  1  0.87417364  0.63291321  0.13274318  1
  O  O298  1  0.87314041  0.64116067  0.61987792  1
  O  O299  1  0.25102556  0.26516534  0.11421881  1
  O  O300  1  0.25843368  0.25701461  0.62147383  1
  O  O301  1  0.25688329  0.76258860  0.12475861  1
  O  O302  1  0.25788757  0.75523211  0.61831700  1
  O  O303  1  0.74410698  0.25699279  0.11860177  1
  O  O304  1  0.75360946  0.24143074  0.60709070  1
  O  O305  1  0.75923221  0.75801970  0.12665177  1
  O  O306  1  0.74789207  0.74892096  0.61613763  1
  O  O307  1  0.25810403  0.24109413  0.38421470  1
  O  O308  1  0.25171160  0.23473948  0.86784577  1
  O  O309  1  0.23775901  0.74658479  0.37940143  1
  O  O310  1  0.23299670  0.75082233  0.87037077  1
  O  O311  1  0.75392190  0.24204801  0.38415972  1
  O  O312  1  0.74572734  0.24046308  0.88445591  1
  O  O313  1  0.74001975  0.74887484  0.38622806  1
  O  O314  1  0.74414033  0.73284344  0.87853537  1
  O  O315  1  0.00446571  0.12516276  0.00783888  1
  O  O316  1  -0.00003060  0.12203935  0.50397787  1
  O  O317  1  0.01283311  0.62670224  0.00449807  1
  O  O318  1  0.01143167  0.61333356  0.49166926  1
  O  O319  1  0.50602662  0.11693806  0.00659276  1
  O  O320  1  0.50140648  0.12402879  0.49710775  1
  O  O321  1  0.51061764  0.62012254  0.00783731  1
  O  O322  1  0.51565059  0.63813070  0.51944824  1
  O  O323  1  0.48246269  0.37065565  0.49688952  1
  O  O324  1  0.50796604  0.38045576  0.99564186  1
  O  O325  1  0.49170183  0.87512098  0.49601509  1
  O  O326  1  0.49481443  0.87732848  0.99225549  1
  O  O327  1  0.99521977  0.37616298  0.49056808  1
  O  O328  1  0.98999856  0.36613713  0.99893241  1
  O  O329  1  0.99204051  0.88489776  0.49687895  1
  O  O330  1  0.98242113  0.87908391  1.00275245  1
  O  O331  1  0.48665673  0.54818067  0.38821169  1
  O  O332  1  0.48478059  0.49982353  0.87395048  1
  O  O333  1  0.49064708  0.98942524  0.37901836  1
  O  O334  1  0.49584801  0.99251515  0.87820455  1
  O  O335  1  0.99174597  0.48893441  0.37820531  1
  O  O336  1  1.00910966  0.48150602  0.89262273  1
  O  O337  1  1.00402627  1.00340443  0.38904641  1
  O  O338  1  0.99937419  0.99126987  0.87334772  1
  O  O339  1  0.00262641  0.01493444  0.12371371  1
  O  O340  1  0.00601736  0.00916204  0.61478059  1
  O  O341  1  0.01156843  0.50120579  0.12439679  1
  O  O342  1  0.00463840  0.48729475  0.60486301  1
  O  O343  1  0.50307367  0.00686872  0.12061344  1
  O  O344  1  0.51707178  -0.00189168  0.62503673  1
  O  O345  1  0.50695011  0.50774063  0.12265925  1
  O  O346  1  0.50535636  0.50818347  0.62750422  1
  O  O347  1  0.24116327  0.36746295  0.25177188  1
  O  O348  1  0.24488779  0.38140814  0.74478837  1
  O  O349  1  0.24057789  0.87412257  0.24069414  1
  O  O350  1  0.24383913  0.88266647  0.74076147  1
  O  O351  1  0.74769750  0.37934472  0.24650894  1
  O  O352  1  0.74561635  0.35023001  0.73515689  1
  O  O353  1  0.74701471  0.88265555  0.24871163  1
  O  O354  1  0.73789906  0.88354203  0.76080760  1
  O  O355  1  0.26642697  0.12893757  0.25811070  1
  O  O356  1  0.25615988  0.11902022  0.75332078  1
  O  O357  1  0.25341128  0.62724290  0.25880605  1
  O  O358  1  0.25593430  0.61910548  0.74955195  1
  O  O359  1  0.75570344  0.12118371  0.25358000  1
  O  O360  1  0.75643093  0.11858376  0.76052029  1
  O  O361  1  0.76144287  0.61639845  0.25283831  1
  O  O362  1  0.74995463  0.62339776  0.76498955  1
  O  O363  1  0.36466803  0.10854691  0.37285380  1
  O  O364  1  0.36965216  0.11660212  0.86340099  1
  O  O365  1  0.35510886  0.63992273  0.36141140  1
  O  O366  1  0.37337626  0.61939765  0.86757552  1
  O  O367  1  0.86376544  0.12585118  0.36038097  1
  O  O368  1  0.86591469  0.12832465  0.87739645  1
  O  O369  1  0.87507170  0.61732655  0.37035828  1
  O  O370  1  0.86057315  0.62800993  0.88951118  1
  O  O371  1  0.13631194  0.37950414  0.12915801  1
  O  O372  1  0.13923226  0.37365351  0.63384611  1
  O  O373  1  0.13090619  0.87446831  0.12944618  1
  O  O374  1  0.13014238  0.88100523  0.62813464  1
  O  O375  1  0.63473852  0.38164025  0.13478263  1
  O  O376  1  0.61539586  0.38532844  0.62341463  1
  O  O377  1  0.62985629  0.87848639  0.13184273  1
  O  O378  1  0.62256218  0.88168347  0.63538991  1
  O  O379  1  0.11488618  0.25860966  0.24554582  1
  O  O380  1  0.11923244  0.26347489  0.75239583  1
  O  O381  1  0.12201458  0.75997471  0.25663669  1
  O  O382  1  0.12573196  0.76069207  0.75767383  1
  O  O383  1  0.62273151  0.26626266  0.25297068  1
  O  O384  1  0.61794335  0.24615453  0.75798063  1
  O  O385  1  0.62784813  0.75448169  0.26037192  1
  O  O386  1  0.61653125  0.75860303  0.74494193  1
  O  O387  1  0.36060784  0.25077846  0.21927831  1
  O  O388  1  0.38002402  0.24235608  0.74419144  1
  O  O389  1  0.37580328  0.74319906  0.23481679  1
  O  O390  1  0.38179050  0.74449052  0.74503490  1
  O  O391  1  0.89088450  0.24333690  0.25310589  1
  O  O392  1  0.89034330  0.25002478  0.75502504  1
  O  O393  1  0.87352549  0.74215917  0.24658996  1
  O  O394  1  0.87573288  0.75849836  0.73240037  1
  O  O395  1  0.37774526  0.48545602  0.51150287  1
  O  O396  1  0.37314000  0.50867315  0.98345597  1
  O  O397  1  0.37331736  0.98572417  0.49193037  1
  O  O398  1  0.38331832  0.99196291  0.99274079  1
  O  O399  1  0.88099706  0.49112469  0.49238485  1
  O  O400  1  0.87775126  0.48722355  1.00811725  1
  O  O401  1  0.87908749  0.98790531  0.50718485  1
  O  O402  1  0.87100243  0.98553560  1.00542651  1
  O  O403  1  0.12006916  0.01237695  0.00167337  1
  O  O404  1  0.11733458  0.00052673  0.50936411  1
  O  O405  1  0.12461000  0.51025249  0.01316292  1
  O  O406  1  0.11785960  0.50929131  0.49223996  1
  O  O407  1  0.62091769  0.00452884  0.00794267  1
  O  O408  1  0.62750110  0.00431469  0.51542660  1
  O  O409  1  0.62848316  0.50853463  0.01390834  1
  O  O410  1  0.62203843  0.50572620  0.50511472  1
  O  O411  1  0.35974668  0.37004404  0.11582236  1
  O  O412  1  0.36421621  0.36764624  0.62556356  1
  O  O413  1  0.36964322  0.86728852  0.11817197  1
  O  O414  1  0.37168985  0.87142628  0.61813144  1
  O  O415  1  0.86206497  0.37630608  0.12322497  1
  O  O416  1  0.86920101  0.37478589  0.61296269  1
  O  O417  1  0.86800080  0.86950697  0.12064527  1
  O  O418  1  0.88074338  0.86044948  0.60718875  1
  O  O419  1  0.13963457  0.12133404  0.37508963  1
  O  O420  1  0.13548254  0.12551776  0.87946152  1
  O  O421  1  0.13478757  0.63161759  0.37509854  1
  O  O422  1  0.12708730  0.63802033  0.88293859  1
  O  O423  1  0.63806371  0.12182920  0.37249778  1
  O  O424  1  0.63306562  0.13397016  0.88287658  1
  O  O425  1  0.63067596  0.63230196  0.38433617  1
  O  O426  1  0.63042238  0.61575016  0.89008550  1
