# generated using pymatgen
data_V85Zn86O256
_symmetry_space_group_name_H-M   'P 1'
_cell_length_a   16.92210580
_cell_length_b   16.93017669
_cell_length_c   16.92235980
_cell_angle_alpha   89.98749290
_cell_angle_beta   90.01064140
_cell_angle_gamma   90.06514068
_symmetry_Int_Tables_number   1
_chemical_formula_structural   V85Zn86O256
_chemical_formula_sum   'V85 Zn86 O256'
_cell_volume   4848.15529837
_cell_formula_units_Z   1
loop_
 _symmetry_equiv_pos_site_id
 _symmetry_equiv_pos_as_xyz
  1  'x, y, z'
loop_
 _atom_site_type_symbol
 _atom_site_label
 _atom_site_symmetry_multiplicity
 _atom_site_fract_x
 _atom_site_fract_y
 _atom_site_fract_z
 _atom_site_occupancy
  V  V0  1  0.87678306  0.39047423  0.50058573  1
  V  V1  1  0.74862676  0.49977168  0.74900930  1
  V  V2  1  0.60847099  0.50237319  0.62495062  1
  V  V3  1  0.49513385  0.73670415  0.74670999  1
  V  V4  1  0.25430374  0.01374538  0.75127145  1
  V  V5  1  -0.00006641  0.00080463  0.50281109  1
  V  V6  1  0.12655030  0.63545957  -0.00140586  1
  V  V7  1  0.37788930  0.50121585  0.37696078  1
  V  V8  1  0.88334316  0.25221498  0.12795646  1
  V  V9  1  0.74570068  0.87264855  0.63069099  1
  V  V10  1  0.75205263  0.37722931  0.62026526  1
  V  V11  1  0.87190648  0.00086854  0.37956562  1
  V  V12  1  0.61027406  0.61958880  0.50081748  1
  V  V13  1  0.11700777  0.25209221  0.37149056  1
  V  V14  1  0.37194985  0.11950105  0.25105713  1
  V  V15  1  0.61959450  0.00194315  0.62471602  1
  V  V16  1  0.62172791  0.87657900  0.74995635  1
  V  V17  1  0.62996021  0.25440483  0.37662008  1
  V  V18  1  0.37160512  0.01281888  0.87131530  1
  V  V19  1  -0.00436979  0.24336800  0.73859859  1
  V  V20  1  0.11889397  0.12790850  0.50352867  1
  V  V21  1  -0.00291737  0.87954413  0.87373459  1
  V  V22  1  0.35844442  0.87325284  -0.00247705  1
  V  V23  1  0.12038249  0.37200702  0.24823954  1
  V  V24  1  0.49533974  0.87263289  0.87578390  1
  V  V25  1  0.24721923  0.12050397  0.37041205  1
  V  V26  1  0.87306167  0.88342873  -0.00567300  1
  V  V27  1  0.48880457  0.00019570  0.50192695  1
  V  V28  1  0.38171948  0.23940926  0.62859446  1
  V  V29  1  0.00604657  0.37307182  0.86724746  1
  V  V30  1  0.62146153  0.74278536  0.87725461  1
  V  V31  1  0.62463147  0.00174126  0.12627492  1
  V  V32  1  0.38163758  0.37759851  0.50197286  1
  V  V33  1  0.37752869  0.50425631  0.87237924  1
  V  V34  1  0.74524589  0.74678570  0.49861897  1
  V  V35  1  0.49392156  0.87310091  0.37812535  1
  V  V36  1  0.74818222  0.12968600  0.37573096  1
  V  V37  1  0.87728747  0.37440969  -0.00087082  1
  V  V38  1  0.74961758  0.00142521  0.25231337  1
  V  V39  1  0.88224146  0.12838719  0.25024245  1
  V  V40  1  0.49648930  -0.00153675  -0.00000273  1
  V  V41  1  0.25211394  0.63343375  0.87479190  1
  V  V42  1  0.37709867  0.37752873  -0.00047309  1
  V  V43  1  0.37447364  0.25067897  0.12623107  1
  V  V44  1  0.50568080  0.25319109  0.25145856  1
  V  V45  1  0.62652643  0.51178195  0.12615435  1
  V  V46  1  0.75044814  0.87513620  0.12742063  1
  V  V47  1  0.37821822  0.73327098  0.62494520  1
  V  V48  1  0.26225058  0.87681060  0.62360981  1
  V  V49  1  0.50414221  0.38065110  0.37418862  1
  V  V50  1  0.00272860  0.87472253  0.36838947  1
  V  V51  1  0.75101011  0.62466805  0.87902536  1
  V  V52  1  -0.00083243  0.61997257  0.62218056  1
  V  V53  1  0.74035831  0.36918909  0.13100550  1
  V  V54  1  0.75720532  0.61246009  0.37725933  1
  V  V55  1  0.24989099  0.37537561  0.63119364  1
  V  V56  1  0.24555021  0.87598631  0.14350008  1
  V  V57  1  0.25145905  0.49984335  0.25004545  1
  V  V58  1  0.50025433  0.23792532  0.75497708  1
  V  V59  1  0.12832565  0.87223237  0.74855863  1
  V  V60  1  0.74770121  0.74761925  0.00169932  1
  V  V61  1  0.87406086  0.87398456  0.50122864  1
  V  V62  1  0.12177433  0.49614326  0.62774525  1
  V  V63  1  0.75807517  0.10603766  0.87096799  1
  V  V64  1  0.87703047  0.49959129  0.87327564  1
  V  V65  1  -0.00481592  0.39221442  0.37552579  1
  V  V66  1  0.12326515  0.00198215  0.62522490  1
  V  V67  1  0.50140165  0.12506959  0.12664111  1
  V  V68  1  0.80159858  0.20628319  0.55154484  1
  V  V69  1  0.74850304  0.25054540  -0.01358875  1
  V  V70  1  0.25243930  0.75453662  0.49967767  1
  V  V71  1  0.12982060  0.24938693  0.86559626  1
  V  V72  1  0.12430399  0.62189035  0.49920386  1
  V  V73  1  0.62273084  0.37196079  0.75643739  1
  V  V74  1  0.12609740  0.75222497  0.36720749  1
  V  V75  1  0.24993889  0.25229483  0.49955838  1
  V  V76  1  0.62424794  0.12813703  -0.00830783  1
  V  V77  1  0.12793539  0.00121704  0.13881880  1
  V  V78  1  0.25196359  0.24450223  -0.00555770  1
  V  V79  1  0.12315963  0.50015838  0.12025106  1
  V  V80  1  0.25276039  0.50486722  0.74942382  1
  V  V81  1  0.87665660  0.74825120  0.62697035  1
  V  V82  1  0.61506702  0.13052661  0.50470870  1
  V  V83  1  0.37119012  0.74765380  0.12308968  1
  V  V84  1  0.12573191  0.12241109  -0.00603787  1
  Zn  Zn85  1  0.50283702  0.37339415  0.87522420  1
  Zn  Zn86  1  0.12750681  0.75369153  0.87784222  1
  Zn  Zn87  1  -0.00186697  0.74943934  0.24632851  1
  Zn  Zn88  1  -0.00188807  0.63014064  0.12357968  1
  Zn  Zn89  1  0.50767526  0.63375140  0.12082467  1
  Zn  Zn90  1  0.24995194  0.37360015  0.12457160  1
  Zn  Zn91  1  0.36772840  -0.00475081  0.37568896  1
  Zn  Zn92  1  0.50779362  0.50856574  -0.00216099  1
  Zn  Zn93  1  0.00201200  0.74752287  0.75199675  1
  Zn  Zn94  1  0.38049652  0.62527241  0.24964852  1
  Zn  Zn95  1  0.25185247  0.62613255  0.37390334  1
  Zn  Zn96  1  0.87706670  0.74796079  0.12800098  1
  Zn  Zn97  1  0.62349895  0.87480692  0.25484186  1
  Zn  Zn98  1  0.75258254  0.49054416  0.25528779  1
  Zn  Zn99  1  0.00350829  0.50173669  -0.00429708  1
  Zn  Zn100  1  -0.00240451  0.00363370  -0.00313858  1
  Zn  Zn101  1  0.87701122  0.62429597  0.75138327  1
  Zn  Zn102  1  0.50131889  0.74922849  0.24861806  1
  Zn  Zn103  1  0.88005950  0.61968712  0.24768961  1
  Zn  Zn104  1  0.00282668  0.12628827  0.12479078  1
  Zn  Zn105  1  0.62242495  0.74822728  0.37331033  1
  Zn  Zn106  1  0.88084429  0.11900134  0.75492202  1
  Zn  Zn107  1  0.18799673  0.18839749  0.18518844  1
  Zn  Zn108  1  0.18554725  0.19064189  0.68524406  1
  Zn  Zn109  1  0.18941117  0.68650748  0.18542879  1
  Zn  Zn110  1  0.18991611  0.68618697  0.68713002  1
  Zn  Zn111  1  0.69063817  0.18974744  0.18649624  1
  Zn  Zn112  1  0.68069511  0.18312431  0.69532895  1
  Zn  Zn113  1  0.68933656  0.69076177  0.19435988  1
  Zn  Zn114  1  0.68370290  0.68474893  0.68849671  1
  Zn  Zn115  1  0.31144071  0.31097204  0.31223435  1
  Zn  Zn116  1  0.31507201  0.31376843  0.81128715  1
  Zn  Zn117  1  0.31662520  0.81133729  0.31290235  1
  Zn  Zn118  1  0.31439568  0.81565833  0.80711321  1
  Zn  Zn119  1  0.81830530  0.31345956  0.31433459  1
  Zn  Zn120  1  0.81670552  0.31060497  0.80652264  1
  Zn  Zn121  1  0.81413290  0.80863645  0.31232940  1
  Zn  Zn122  1  0.81251696  0.81352756  0.81258884  1
  Zn  Zn123  1  0.18916105  0.43812631  0.43912960  1
  Zn  Zn124  1  0.19047668  0.43590307  0.93601393  1
  Zn  Zn125  1  0.18681917  0.93632542  0.43727546  1
  Zn  Zn126  1  0.18556454  0.94254180  0.93353616  1
  Zn  Zn127  1  0.68419428  0.43724111  0.44407740  1
  Zn  Zn128  1  0.68889089  0.43825758  0.94084467  1
  Zn  Zn129  1  0.68205842  0.93808223  0.44164854  1
  Zn  Zn130  1  0.68303925  0.93466534  0.93906129  1
  Zn  Zn131  1  0.30970632  0.06112359  0.06308357  1
  Zn  Zn132  1  0.30630326  0.06553447  0.56099371  1
  Zn  Zn133  1  0.30915025  0.56169262  0.05873326  1
  Zn  Zn134  1  0.31105115  0.56145641  0.55770126  1
  Zn  Zn135  1  0.81197814  0.06477263  0.06248285  1
  Zn  Zn136  1  0.83108421  0.03514960  0.60394253  1
  Zn  Zn137  1  0.81310885  0.55880972  0.06528842  1
  Zn  Zn138  1  0.80789438  0.56297155  0.56333888  1
  Zn  Zn139  1  0.44201181  0.43749954  0.18823461  1
  Zn  Zn140  1  0.43535458  0.43402537  0.69220468  1
  Zn  Zn141  1  0.43481069  0.93502025  0.18939694  1
  Zn  Zn142  1  0.43888601  0.93753739  0.69015525  1
  Zn  Zn143  1  0.93553335  0.44381602  0.19024908  1
  Zn  Zn144  1  0.93685337  0.43399726  0.68729014  1
  Zn  Zn145  1  0.93730056  0.93954616  0.18485107  1
  Zn  Zn146  1  0.94113231  0.93795211  0.69446284  1
  Zn  Zn147  1  0.05986735  0.06263923  0.31536358  1
  Zn  Zn148  1  0.06503580  0.06332990  0.81241973  1
  Zn  Zn149  1  0.06420420  0.56516444  0.30884173  1
  Zn  Zn150  1  0.06574701  0.56231414  0.80873792  1
  Zn  Zn151  1  0.56043222  0.06198293  0.31655175  1
  Zn  Zn152  1  0.56339146  0.05956368  0.81431109  1
  Zn  Zn153  1  0.56734020  0.56341399  0.30414992  1
  Zn  Zn154  1  0.56265045  0.56039555  0.81422847  1
  Zn  Zn155  1  0.43734282  0.18931925  0.43725672  1
  Zn  Zn156  1  0.43891457  0.18924205  0.93673465  1
  Zn  Zn157  1  0.43345071  0.68939936  0.43814027  1
  Zn  Zn158  1  0.43612684  0.68590222  0.94420855  1
  Zn  Zn159  1  0.94137411  0.19092615  0.43396640  1
  Zn  Zn160  1  0.93939429  0.18774885  0.93529126  1
  Zn  Zn161  1  0.93939534  0.68679800  0.43928801  1
  Zn  Zn162  1  0.93876597  0.69238103  0.94045415  1
  Zn  Zn163  1  0.06346957  0.31265141  0.05769746  1
  Zn  Zn164  1  0.06090054  0.31782634  0.55862943  1
  Zn  Zn165  1  0.06337580  0.81648537  0.06330677  1
  Zn  Zn166  1  0.06418230  0.81238808  0.56054143  1
  Zn  Zn167  1  0.56206119  0.31103346  0.05838509  1
  Zn  Zn168  1  0.56230487  0.31448293  0.56524429  1
  Zn  Zn169  1  0.56128757  0.81331418  0.06173183  1
  Zn  Zn170  1  0.55658391  0.81099451  0.55882998  1
  O  O171  1  0.12549242  0.11574537  0.11911738  1
  O  O172  1  0.13063337  0.11642901  0.61429558  1
  O  O173  1  0.12786372  0.61700192  0.11474066  1
  O  O174  1  0.11894641  0.61948354  0.61960319  1
  O  O175  1  0.62198051  0.12025999  0.11626546  1
  O  O176  1  0.62975993  0.11467657  0.61680846  1
  O  O177  1  0.63462451  0.61377532  0.12382544  1
  O  O178  1  0.62880782  0.61595863  0.61259090  1
  O  O179  1  0.38203117  0.37859028  0.38198781  1
  O  O180  1  0.37415389  0.38629331  0.88189699  1
  O  O181  1  0.38692187  0.87874660  0.37528541  1
  O  O182  1  0.37751117  0.87942843  0.88221549  1
  O  O183  1  0.88816830  0.37581673  0.37995720  1
  O  O184  1  0.88072624  0.37858189  0.88044566  1
  O  O185  1  0.87786535  0.88174455  0.38398797  1
  O  O186  1  0.88185936  0.87415586  0.88083694  1
  O  O187  1  0.24942379  0.01529933  0.38179242  1
  O  O188  1  0.25904795  -0.00308906  0.86307287  1
  O  O189  1  0.25909072  0.49924507  0.36771214  1
  O  O190  1  0.25485426  0.50456000  0.86547452  1
  O  O191  1  0.75410574  0.00679957  0.37452003  1
  O  O192  1  0.74858430  0.00731111  0.87699986  1
  O  O193  1  0.74562610  0.50960365  0.37813876  1
  O  O194  1  0.75440300  0.50724988  0.87149679  1
  O  O195  1  0.24101693  0.49561619  0.13147091  1
  O  O196  1  0.24773974  0.49495201  0.63120714  1
  O  O197  1  0.23859220  0.99157239  0.12384721  1
  O  O198  1  0.24304881  0.99328365  0.62739452  1
  O  O199  1  0.74161455  0.48246589  0.12004106  1
  O  O200  1  0.74272256  0.49333246  0.63216136  1
  O  O201  1  0.74472429  0.99544640  0.13070722  1
  O  O202  1  0.72895853  0.98311128  0.61452518  1
  O  O203  1  0.00753484  0.37951576  0.26370713  1
  O  O204  1  -0.00532149  0.36285995  0.76071577  1
  O  O205  1  -0.00681362  0.87638136  0.26555888  1
  O  O206  1  0.00984022  0.87204516  0.75440477  1
  O  O207  1  0.49537968  0.36095385  0.25929276  1
  O  O208  1  0.50821878  0.36644988  0.75165526  1
  O  O209  1  0.50108285  0.87859394  0.26468210  1
  O  O210  1  0.50495879  0.86509053  0.75712930  1
  O  O211  1  0.49344806  0.13381959  0.24822863  1
  O  O212  1  0.50660724  0.13849639  0.75205576  1
  O  O213  1  0.49832921  0.62791658  0.23889422  1
  O  O214  1  0.50570196  0.63773608  0.75130103  1
  O  O215  1  0.98621870  0.12166070  0.24861874  1
  O  O216  1  1.00139644  0.13778144  0.75178251  1
  O  O217  1  1.00063725  0.62912146  0.24471914  1
  O  O218  1  0.99950878  0.62803363  0.73727210  1
  O  O219  1  0.36924485  0.25433031  0.00374303  1
  O  O220  1  0.37225152  0.25662834  0.51016132  1
  O  O221  1  0.37485306  0.76444701  0.00721198  1
  O  O222  1  0.36680012  0.74766582  0.51338207  1
  O  O223  1  0.86938195  0.25802756  0.00378062  1
  O  O224  1  0.86639110  0.26049192  0.49193819  1
  O  O225  1  0.86080602  0.76216488  -0.00116015  1
  O  O226  1  0.86704722  0.75329362  0.51045604  1
  O  O227  1  0.12822274  0.24499690  0.49317823  1
  O  O228  1  0.13320643  0.24227799  0.99317300  1
  O  O229  1  0.13266833  0.74052554  0.49632870  1
  O  O230  1  0.12631811  0.73904827  0.99922228  1
  O  O231  1  0.61626626  0.24169511  0.49234844  1
  O  O232  1  0.63453264  0.23948359  1.00251272  1
  O  O233  1  0.62980605  0.73769202  0.50243799  1
  O  O234  1  0.63731649  0.75829967  0.98992285  1
  O  O235  1  0.49649934  0.24403531  0.13291821  1
  O  O236  1  0.48744887  0.25310347  0.63284898  1
  O  O237  1  0.48597581  0.75669731  0.12613204  1
  O  O238  1  0.48516436  0.75327032  0.63001434  1
  O  O239  1  0.98718145  0.24981532  0.12000887  1
  O  O240  1  1.01022397  0.25589148  0.64086065  1
  O  O241  1  0.99783261  0.75256274  0.12736444  1
  O  O242  1  0.99125703  0.74403287  0.62499575  1
  O  O243  1  0.01369243  0.25806415  0.37433831  1
  O  O244  1  0.00877235  0.25565175  0.86795626  1
  O  O245  1  0.00877581  0.75837392  0.37812944  1
  O  O246  1  0.00373175  0.76249351  0.87146727  1
  O  O247  1  0.50760591  0.25710466  0.36914528  1
  O  O248  1  0.49369824  0.25374923  0.85936286  1
  O  O249  1  0.49869737  0.76274510  0.37711173  1
  O  O250  1  0.50481089  0.75241269  0.86957331  1
  O  O251  1  0.23844240  0.13341722  0.49272632  1
  O  O252  1  0.24514038  0.13765274  1.00297684  1
  O  O253  1  0.24310018  0.63747412  0.49949490  1
  O  O254  1  0.23965560  0.61900299  0.98582913  1
  O  O255  1  0.74247867  0.13826083  0.49557762  1
  O  O256  1  0.74482485  0.12990177  0.99030615  1
  O  O257  1  0.74174642  0.62970775  0.49370198  1
  O  O258  1  0.75341047  0.63276174  0.98764200  1
  O  O259  1  0.26111208  0.36464477  0.00060429  1
  O  O260  1  0.26115991  0.37030306  0.50634704  1
  O  O261  1  0.25692499  0.88080940  0.00330724  1
  O  O262  1  0.24374020  0.86316095  0.50891923  1
  O  O263  1  0.75747908  0.36594986  0.00535233  1
  O  O264  1  0.75621453  0.37663320  0.51177001  1
  O  O265  1  0.75406025  0.87045690  0.00596166  1
  O  O266  1  0.75043699  0.86543457  0.50981612  1
  O  O267  1  0.13241385  0.49024239  0.24404691  1
  O  O268  1  0.13486375  0.50033383  0.73591279  1
  O  O269  1  0.12456084  1.00683027  0.23783875  1
  O  O270  1  0.13178569  0.99254279  0.74234129  1
  O  O271  1  0.63566968  0.49713716  0.23350671  1
  O  O272  1  0.62970143  0.49370004  0.74340323  1
  O  O273  1  0.63197100  1.00241562  0.24434839  1
  O  O274  1  0.61677259  0.98494048  0.74275312  1
  O  O275  1  0.37891494  0.01610579  0.25246398  1
  O  O276  1  0.36748437  -0.00357487  0.75829466  1
  O  O277  1  0.36839656  0.49746321  0.25838914  1
  O  O278  1  0.36568742  0.49648629  0.75893659  1
  O  O279  1  0.86777623  0.00753231  0.25636981  1
  O  O280  1  0.86749929  0.01659732  0.71102505  1
  O  O281  1  0.86428666  0.50519393  0.24736054  1
  O  O282  1  0.86687441  0.49995259  0.75641522  1
  O  O283  1  0.11826697  0.37115127  0.37088592  1
  O  O284  1  0.11633609  0.36467247  0.88042091  1
  O  O285  1  0.11480477  0.86607450  0.38216650  1
  O  O286  1  0.12190726  0.87326047  0.86527602  1
  O  O287  1  0.61593346  0.36762454  0.38250743  1
  O  O288  1  0.62839857  0.37934863  0.86003375  1
  O  O289  1  0.61122862  0.87468942  0.37677788  1
  O  O290  1  0.61902972  0.86539733  0.86779839  1
  O  O291  1  0.38060409  0.13016249  0.13081678  1
  O  O292  1  0.36981673  0.14144934  0.62124668  1
  O  O293  1  0.36371757  0.64172788  0.12177386  1
  O  O294  1  0.37153974  0.63470805  0.62466138  1
  O  O295  1  0.87511961  0.13315011  0.13233941  1
  O  O296  1  0.86245469  0.14735944  0.60385512  1
  O  O297  1  0.87756692  0.62891098  0.12214243  1
  O  O298  1  0.88165869  0.63031041  0.62461002  1
  O  O299  1  0.25723173  0.25253852  0.11564400  1
  O  O300  1  0.25849086  0.25842143  0.62170934  1
  O  O301  1  0.25290927  0.76797392  0.12967117  1
  O  O302  1  0.25997276  0.75544796  0.62138938  1
  O  O303  1  0.75917017  0.25628588  0.11506325  1
  O  O304  1  0.74363920  0.25663670  0.62275320  1
  O  O305  1  0.74761526  0.75884563  0.11713530  1
  O  O306  1  0.75405234  0.75123514  0.61670642  1
  O  O307  1  0.24001584  0.24486036  0.38120469  1
  O  O308  1  0.24260117  0.25548216  0.88053918  1
  O  O309  1  0.24527405  0.75145942  0.38367855  1
  O  O310  1  0.25188250  0.73658412  0.86544054  1
  O  O311  1  0.73664265  0.24883120  0.36941473  1
  O  O312  1  0.75455964  0.24746223  0.88461702  1
  O  O313  1  0.74720926  0.74717095  0.39027313  1
  O  O314  1  0.74267491  0.74394000  0.87933953  1
  O  O315  1  0.00967313  0.12391594  0.00231469  1
  O  O316  1  0.01172291  0.12059066  0.49392560  1
  O  O317  1  0.01149542  0.62147609  -0.00160948  1
  O  O318  1  0.00905705  0.62882266  0.51270773  1
  O  O319  1  0.50788454  0.12192838  0.00471980  1
  O  O320  1  0.50781140  0.11798032  0.49583081  1
  O  O321  1  0.49865712  0.62173444  0.00882339  1
  O  O322  1  0.51185257  0.62752730  0.49743535  1
  O  O323  1  0.48853796  0.37071053  0.49159948  1
  O  O324  1  0.48767325  0.37193794  0.99576229  1
  O  O325  1  0.50157668  0.88539479  0.48921971  1
  O  O326  1  0.49193881  0.88186129  0.99378035  1
  O  O327  1  0.99142643  0.37195618  0.48608841  1
  O  O328  1  0.99232924  0.37468117  0.98789490  1
  O  O329  1  0.99367740  0.87985064  0.49327820  1
  O  O330  1  0.99074609  0.87695563  0.99159006  1
  O  O331  1  0.49476288  0.48761807  0.36513870  1
  O  O332  1  0.49201244  0.49599064  0.87689845  1
  O  O333  1  0.49576785  0.99301061  0.38434770  1
  O  O334  1  0.49233737  0.99295788  0.87950900  1
  O  O335  1  1.00905252  0.48982169  0.37944942  1
  O  O336  1  0.99593508  0.49116814  0.87152843  1
  O  O337  1  0.99345053  0.99417305  0.38295702  1
  O  O338  1  1.00690064  0.98582019  0.87555029  1
  O  O339  1  0.01542779  -0.00079597  0.12102745  1
  O  O340  1  0.01675871  -0.00794577  0.61818822  1
  O  O341  1  0.01477383  0.49715780  0.12098485  1
  O  O342  1  0.00967051  0.50572289  0.62939564  1
  O  O343  1  0.50346209  0.00563082  0.12088112  1
  O  O344  1  0.50959282  -0.00788037  0.61691272  1
  O  O345  1  0.51839940  0.49637719  0.12666552  1
  O  O346  1  0.50914157  0.49599668  0.62969180  1
  O  O347  1  0.24258025  0.38401769  0.25019975  1
  O  O348  1  0.25416301  0.38263024  0.73695103  1
  O  O349  1  0.25280609  0.88087513  0.24179405  1
  O  O350  1  0.24393433  0.88291520  0.74089478  1
  O  O351  1  0.75435796  0.36827244  0.23361046  1
  O  O352  1  0.74459358  0.37605218  0.73936769  1
  O  O353  1  0.74953519  0.88314127  0.24344791  1
  O  O354  1  0.73954574  0.86644957  0.73787933  1
  O  O355  1  0.25806206  0.13371333  0.25938495  1
  O  O356  1  0.24655187  0.11270927  0.74338074  1
  O  O357  1  0.25083840  0.61025918  0.25153792  1
  O  O358  1  0.24579040  0.61285008  0.75713879  1
  O  O359  1  0.75748478  0.12013845  0.25655862  1
  O  O360  1  0.74823301  0.12936124  0.76987998  1
  O  O361  1  0.74704798  0.62709113  0.27253216  1
  O  O362  1  0.75065301  0.62035996  0.76169393  1
  O  O363  1  0.36450063  0.12840296  0.36840598  1
  O  O364  1  0.37762950  0.11194587  0.87972607  1
  O  O365  1  0.37350931  0.61494958  0.37321828  1
  O  O366  1  0.36655827  0.61246361  0.88092003  1
  O  O367  1  0.86911125  0.12224326  0.37015524  1
  O  O368  1  0.86248761  0.12119450  0.87759833  1
  O  O369  1  0.85892631  0.62665892  0.38390654  1
  O  O370  1  0.86931661  0.61942400  0.87413990  1
  O  O371  1  0.12552296  0.37897869  0.13183943  1
  O  O372  1  0.13722694  0.38492875  0.61380699  1
  O  O373  1  0.13747334  0.88751949  0.12160677  1
  O  O374  1  0.13432439  0.88100990  0.62993535  1
  O  O375  1  0.63923833  0.36589463  0.12533343  1
  O  O376  1  0.63116895  0.38346934  0.63037293  1
  O  O377  1  0.63576009  0.88373082  0.12439040  1
  O  O378  1  0.62709849  0.87445427  0.63151661  1
  O  O379  1  0.13084476  0.26373939  0.25545394  1
  O  O380  1  0.11914302  0.24716266  0.76059346  1
  O  O381  1  0.12779486  0.74671431  0.26469192  1
  O  O382  1  0.12673281  0.76314173  0.74721830  1
  O  O383  1  0.61527973  0.24117418  0.26012540  1
  O  O384  1  0.60868493  0.25816431  0.74186083  1
  O  O385  1  0.62069944  0.75660313  0.25528610  1
  O  O386  1  0.61759348  0.75771100  0.75534518  1
  O  O387  1  0.38205284  0.24224195  0.24577778  1
  O  O388  1  0.38545187  0.25460559  0.73798679  1
  O  O389  1  0.37676145  0.74786923  0.23945347  1
  O  O390  1  0.38103868  0.75204887  0.73567763  1
  O  O391  1  0.86974499  0.24062150  0.24038053  1
  O  O392  1  0.89025719  0.24166426  0.75066108  1
  O  O393  1  0.87672448  0.74221668  0.24849785  1
  O  O394  1  0.87374244  0.74802159  0.73670482  1
  O  O395  1  0.37110116  0.49193497  0.48686854  1
  O  O396  1  0.37492593  0.49055363  0.99433445  1
  O  O397  1  0.38530239  1.00800815  0.50049863  1
  O  O398  1  0.37822410  0.99358095  0.99429744  1
  O  O399  1  0.87323312  0.49018394  0.50275383  1
  O  O400  1  0.87589554  0.48679881  0.99297325  1
  O  O401  1  0.88036294  0.99385293  0.50261085  1
  O  O402  1  0.87555816  0.98768459  1.00550163  1
  O  O403  1  0.12728821  0.01353350  0.00396183  1
  O  O404  1  0.12193065  0.00832447  0.50596704  1
  O  O405  1  0.12669006  0.50432068  0.00671483  1
  O  O406  1  0.13585113  0.51434189  0.51039020  1
  O  O407  1  0.61738637  0.00629166  0.00645842  1
  O  O408  1  0.61386834  0.01015628  0.50593158  1
  O  O409  1  0.62384028  0.48740059  0.01919600  1
  O  O410  1  0.62356624  0.51121587  0.50962622  1
  O  O411  1  0.37527750  0.36879133  0.11787522  1
  O  O412  1  0.36924792  0.36987859  0.61743946  1
  O  O413  1  0.36112582  0.87357471  0.11946565  1
  O  O414  1  0.36409064  0.87130580  0.62740284  1
  O  O415  1  0.86993363  0.36927140  0.11623163  1
  O  O416  1  0.86610376  0.37549006  0.61606791  1
  O  O417  1  0.86185251  0.87590094  0.11898249  1
  O  O418  1  0.86540744  0.86626077  0.62129072  1
  O  O419  1  0.12883593  0.13362719  0.37796843  1
  O  O420  1  0.12433957  0.13444995  0.88346774  1
  O  O421  1  0.12782821  0.63204036  0.38422338  1
  O  O422  1  0.13260719  0.62741381  0.88009912  1
  O  O423  1  0.62976757  0.13134655  0.38534915  1
  O  O424  1  0.63436670  0.11830722  0.88667362  1
  O  O425  1  0.63158000  0.62424208  0.38810357  1
  O  O426  1  0.63204631  0.63659811  0.87179509  1
