# generated using pymatgen
data_V85Zn86O256
_symmetry_space_group_name_H-M   'P 1'
_cell_length_a   16.94829871
_cell_length_b   16.94510244
_cell_length_c   16.94888846
_cell_angle_alpha   90.06392423
_cell_angle_beta   90.02009285
_cell_angle_gamma   90.00678283
_symmetry_Int_Tables_number   1
_chemical_formula_structural   V85Zn86O256
_chemical_formula_sum   'V85 Zn86 O256'
_cell_volume   4867.55906323
_cell_formula_units_Z   1
loop_
 _symmetry_equiv_pos_site_id
 _symmetry_equiv_pos_as_xyz
  1  'x, y, z'
loop_
 _atom_site_type_symbol
 _atom_site_label
 _atom_site_symmetry_multiplicity
 _atom_site_fract_x
 _atom_site_fract_y
 _atom_site_fract_z
 _atom_site_occupancy
  V  V0  1  0.49889478  0.24189936  0.74578740  1
  V  V1  1  0.24410575  0.75596620  0.00360340  1
  V  V2  1  0.25002947  0.37871762  0.12730076  1
  V  V3  1  0.12218406  0.51078787  0.12141843  1
  V  V4  1  0.00941381  0.87312815  0.37045798  1
  V  V5  1  0.87590099  0.49964264  0.87484837  1
  V  V6  1  0.62068411  0.14303179  0.49811774  1
  V  V7  1  0.86974018  0.74650466  0.62779111  1
  V  V8  1  0.24776055  0.25277013  0.00187820  1
  V  V9  1  0.62736078  0.62834796  0.50061580  1
  V  V10  1  0.87578458  0.12380249  0.25196716  1
  V  V11  1  0.38766662  0.12713193  0.24595476  1
  V  V12  1  0.50240430  0.62078516  0.12666503  1
  V  V13  1  0.49515562  0.74197175  0.75209955  1
  V  V14  1  0.87508462  0.62427166  0.75121480  1
  V  V15  1  0.63164880  0.62531313  0.00811397  1
  V  V16  1  -0.00010189  0.12439078  0.12545598  1
  V  V17  1  0.50083875  0.75052577  0.25271690  1
  V  V18  1  0.00100026  0.37598004  0.37522931  1
  V  V19  1  0.87463313  0.50329630  0.37475267  1
  V  V20  1  0.74914197  -0.00142882  0.25251593  1
  V  V21  1  0.12331260  0.63721987  0.50011277  1
  V  V22  1  0.24514175  0.12138080  0.37216163  1
  V  V23  1  0.74994566  0.49967245  0.74885681  1
  V  V24  1  0.50250842  0.87751138  0.38288635  1
  V  V25  1  0.37432734  0.76066627  0.11864099  1
  V  V26  1  0.61568000  0.24942599  0.87750109  1
  V  V27  1  0.00337022  0.51313044  0.00209676  1
  V  V28  1  0.74436620  0.12619770  0.87598897  1
  V  V29  1  0.62573522  0.37715867  0.75630399  1
  V  V30  1  0.24390937  0.25197527  0.50209501  1
  V  V31  1  0.14319518  0.49848463  0.62627503  1
  V  V32  1  0.87480978  0.25135723  0.12252886  1
  V  V33  1  0.62770293  0.87639600  0.25252617  1
  V  V34  1  0.12430602  0.12614344  0.00016773  1
  V  V35  1  0.87584180  0.37516540  -0.00095069  1
  V  V36  1  0.37019731  0.74492564  0.62851892  1
  V  V37  1  0.12613008  0.37531673  0.25085280  1
  V  V38  1  0.49168549  0.87177688  0.88423015  1
  V  V39  1  0.36833665  0.37484216  0.49543992  1
  V  V40  1  0.13805535  0.37795321  0.74527247  1
  V  V41  1  0.61858855  0.35807259  0.24987158  1
  V  V42  1  0.50570847  0.49551266  0.00383101  1
  V  V43  1  0.37378453  0.87977083  0.50236824  1
  V  V44  1  0.86894796  0.36827491  0.49877054  1
  V  V45  1  0.37228641  0.24465877  0.62306394  1
  V  V46  1  0.50108033  0.50066403  0.49413010  1
  V  V47  1  0.86519467  0.87109429  -0.00017247  1
  V  V48  1  0.00038501  0.50092291  0.50509227  1
  V  V49  1  0.37851639  0.38015262  0.00144696  1
  V  V50  1  -0.00175544  0.25060442  0.73815326  1
  V  V51  1  0.12691499  0.73667728  0.87741111  1
  V  V52  1  0.00428845  0.75013763  0.75119948  1
  V  V53  1  0.61790551  0.12163951  0.00521109  1
  V  V54  1  0.49413131  -0.00729295  0.01017995  1
  V  V55  1  0.11473429  0.10910094  0.51214516  1
  V  V56  1  0.61912204  -0.00376443  0.60961499  1
  V  V57  1  0.13336533  0.87143321  0.24117741  1
  V  V58  1  0.38171061  0.00103100  0.37592584  1
  V  V59  1  0.00548632  0.74514929  0.24459076  1
  V  V60  1  0.74679344  0.36685965  0.62130323  1
  V  V61  1  0.87776223  0.12456143  0.74322323  1
  V  V62  1  0.38716298  0.24667334  0.12836242  1
  V  V63  1  0.62303394  0.87461488  0.75133259  1
  V  V64  1  0.43993128  0.42523062  0.82796898  1
  V  V65  1  0.62998286  0.75043565  0.88204745  1
  V  V66  1  -0.00134631  -0.00347325  0.00227998  1
  V  V67  1  0.75070487  0.13790896  0.38314754  1
  V  V68  1  0.25428904  -0.00095397  0.23469453  1
  V  V69  1  0.87266092  -0.00055866  0.87534187  1
  V  V70  1  0.24598842  0.63322010  0.37532967  1
  V  V71  1  0.12316355  0.25083495  0.87339084  1
  V  V72  1  0.88184628  0.62242977  0.24432320  1
  V  V73  1  0.88032691  -0.00227943  0.38077578  1
  V  V74  1  0.00108198  0.25046490  0.24920102  1
  V  V75  1  0.74351517  0.00031093  0.74979289  1
  V  V76  1  0.13053168  0.88907343  0.75518593  1
  V  V77  1  0.73809651  0.50199569  0.24543327  1
  V  V78  1  0.89510849  0.88501095  0.51852306  1
  V  V79  1  0.37356179  0.62394902  0.24993161  1
  V  V80  1  0.87062449  0.74671562  0.12225368  1
  V  V81  1  0.27162235  0.61521543  0.87211940  1
  V  V82  1  0.74941913  0.62625602  0.87831797  1
  V  V83  1  0.24736604  0.88956714  0.63047993  1
  V  V84  1  0.00021765  0.37575599  0.87144553  1
  Zn  Zn85  1  0.87137114  0.24153100  0.61583784  1
  Zn  Zn86  1  0.74321398  0.87008041  0.62109692  1
  Zn  Zn87  1  0.13466019  -0.00431316  0.11896197  1
  Zn  Zn88  1  0.36798115  -0.00183172  0.86916360  1
  Zn  Zn89  1  0.49628570  0.62301268  0.62613130  1
  Zn  Zn90  1  0.62308001  0.49978603  0.62375749  1
  Zn  Zn91  1  0.00145182  0.87297656  0.87799976  1
  Zn  Zn92  1  0.74845369  0.87295471  0.12463965  1
  Zn  Zn93  1  0.12386179  0.24708971  0.37720925  1
  Zn  Zn94  1  0.24430477  0.75652537  0.50082814  1
  Zn  Zn95  1  0.24916434  0.50241662  0.25182117  1
  Zn  Zn96  1  0.75121463  0.62803024  0.37625558  1
  Zn  Zn97  1  0.75626082  0.75319003  0.49765102  1
  Zn  Zn98  1  0.63068573  0.75114256  0.37773771  1
  Zn  Zn99  1  0.49097473  0.11449254  0.61961061  1
  Zn  Zn100  1  0.37331236  0.49959468  0.37315612  1
  Zn  Zn101  1  0.74560461  0.38023351  0.12223844  1
  Zn  Zn102  1  0.74684099  0.25178828  -0.00091690  1
  Zn  Zn103  1  0.62415593  0.00791304  0.13239747  1
  Zn  Zn104  1  0.50267427  0.36059744  0.37411253  1
  Zn  Zn105  1  0.00286111  0.62505130  0.62684931  1
  Zn  Zn106  1  0.25023629  0.10180278  0.84905467  1
  Zn  Zn107  1  0.19064124  0.18618783  0.18579768  1
  Zn  Zn108  1  0.18342247  0.18313259  0.68187279  1
  Zn  Zn109  1  0.19048974  0.68956865  0.18588918  1
  Zn  Zn110  1  0.19200209  0.68744523  0.69061794  1
  Zn  Zn111  1  0.69663075  0.18630853  0.18519257  1
  Zn  Zn112  1  0.68306576  0.18533537  0.68632431  1
  Zn  Zn113  1  0.69016704  0.68867042  0.19151908  1
  Zn  Zn114  1  0.68370543  0.68527705  0.68695956  1
  Zn  Zn115  1  0.31411124  0.30923405  0.31488459  1
  Zn  Zn116  1  0.29487406  0.27393731  0.79608200  1
  Zn  Zn117  1  0.31259884  0.81131471  0.31165497  1
  Zn  Zn118  1  0.30928081  0.81028133  0.81488258  1
  Zn  Zn119  1  0.81168568  0.31786963  0.30814358  1
  Zn  Zn120  1  0.80993233  0.30919561  0.81160128  1
  Zn  Zn121  1  0.81843632  0.81140503  0.31664093  1
  Zn  Zn122  1  0.81029325  0.81254562  0.81323530  1
  Zn  Zn123  1  0.18872811  0.44359052  0.43574792  1
  Zn  Zn124  1  0.18861618  0.44113884  0.93528237  1
  Zn  Zn125  1  0.19039130  0.93794164  0.43234427  1
  Zn  Zn126  1  0.18871948  0.93305195  0.93732265  1
  Zn  Zn127  1  0.68577765  0.43722499  0.43242416  1
  Zn  Zn128  1  0.68721523  0.43839006  0.93770215  1
  Zn  Zn129  1  0.69980278  0.93387251  0.43652845  1
  Zn  Zn130  1  0.68208982  0.93986031  0.93812288  1
  Zn  Zn131  1  0.32640143  0.07682559  0.03451070  1
  Zn  Zn132  1  0.30650765  0.06415050  0.55877002  1
  Zn  Zn133  1  0.31083778  0.56653475  0.05681181  1
  Zn  Zn134  1  0.31315833  0.56619283  0.55711433  1
  Zn  Zn135  1  0.80992539  0.06148911  0.06285567  1
  Zn  Zn136  1  0.80591405  0.05840186  0.56232971  1
  Zn  Zn137  1  0.81530629  0.56242120  0.06471043  1
  Zn  Zn138  1  0.80993671  0.55951850  0.56349463  1
  Zn  Zn139  1  0.44042652  0.43879087  0.18729887  1
  Zn  Zn140  1  0.43006343  0.43568808  0.66460756  1
  Zn  Zn141  1  0.44245145  0.94039100  0.19213323  1
  Zn  Zn142  1  0.43350964  0.93359388  0.69106840  1
  Zn  Zn143  1  0.93926797  0.43957775  0.18523512  1
  Zn  Zn144  1  0.93670986  0.43440871  0.68454465  1
  Zn  Zn145  1  0.93734723  0.93456104  0.18724837  1
  Zn  Zn146  1  0.93490261  0.93182482  0.69203340  1
  Zn  Zn147  1  0.06614333  0.05655600  0.31055949  1
  Zn  Zn148  1  0.05814024  0.06664026  0.81681894  1
  Zn  Zn149  1  0.06463513  0.56319974  0.31422568  1
  Zn  Zn150  1  0.06561350  0.56123414  0.81009066  1
  Zn  Zn151  1  0.56287770  0.18173723  0.31551152  1
  Zn  Zn152  1  0.52705827  0.04161658  0.79565329  1
  Zn  Zn153  1  0.56092211  0.56410813  0.31785084  1
  Zn  Zn154  1  0.56359262  0.56536132  0.81552938  1
  Zn  Zn155  1  0.43398337  0.18431617  0.44003743  1
  Zn  Zn156  1  0.43610441  0.18311539  0.93593898  1
  Zn  Zn157  1  0.43610929  0.69073537  0.43919275  1
  Zn  Zn158  1  0.43854771  0.68664877  0.94231646  1
  Zn  Zn159  1  0.94124336  0.18702776  0.43629564  1
  Zn  Zn160  1  0.93723894  0.18708241  0.93264449  1
  Zn  Zn161  1  0.94171080  0.69291165  0.43605639  1
  Zn  Zn162  1  0.93688883  0.68996733  0.93703292  1
  Zn  Zn163  1  0.06074478  0.31885997  0.06283208  1
  Zn  Zn164  1  0.06483416  0.31401486  0.56135871  1
  Zn  Zn165  1  0.06048737  0.80967181  0.06394556  1
  Zn  Zn166  1  0.05585306  0.82978863  0.57410142  1
  Zn  Zn167  1  0.56569281  0.31517509  0.06636062  1
  Zn  Zn168  1  0.55727929  0.31761769  0.56337490  1
  Zn  Zn169  1  0.56584416  0.80920430  0.06784252  1
  Zn  Zn170  1  0.55898383  0.80896437  0.56308874  1
  O  O171  1  0.11430328  0.12289231  0.12063532  1
  O  O172  1  0.12180681  0.12015621  0.61268324  1
  O  O173  1  0.13102625  0.60958520  0.12894029  1
  O  O174  1  0.12502363  0.61306866  0.62090258  1
  O  O175  1  0.63463674  0.12802633  0.10915807  1
  O  O176  1  0.62949810  0.11435759  0.60927567  1
  O  O177  1  0.61651931  0.63362446  0.11891610  1
  O  O178  1  0.62117115  0.62125272  0.61357912  1
  O  O179  1  0.37732235  0.37749769  0.38221596  1
  O  O180  1  0.37815375  0.36642663  0.88515574  1
  O  O181  1  0.37958827  0.87898031  0.38257132  1
  O  O182  1  0.38973295  0.87052274  0.87511326  1
  O  O183  1  0.87832900  0.38606400  0.37877746  1
  O  O184  1  0.87832231  0.37893845  0.88032976  1
  O  O185  1  0.88808305  0.88261661  0.38247265  1
  O  O186  1  0.87625480  0.88058450  0.88163901  1
  O  O187  1  0.25979755  0.00589257  0.36477330  1
  O  O188  1  0.25352629  -0.00606093  0.87265742  1
  O  O189  1  0.25325929  0.51509818  0.37212164  1
  O  O190  1  0.25323299  0.51558859  0.88235924  1
  O  O191  1  0.76066596  0.00754374  0.36708339  1
  O  O192  1  0.75183108  0.00732088  0.86920712  1
  O  O193  1  0.75983774  0.50156305  0.36301595  1
  O  O194  1  0.75674782  0.50490728  0.86871803  1
  O  O195  1  0.24514525  0.49077521  0.12440657  1
  O  O196  1  0.24154945  0.50080799  0.62205929  1
  O  O197  1  0.25617604  1.00765716  0.13345180  1
  O  O198  1  0.25899165  0.98892275  0.63015579  1
  O  O199  1  0.75862162  0.49787421  0.14216024  1
  O  O200  1  0.74802399  0.48887671  0.63399392  1
  O  O201  1  0.75288145  0.99861118  0.14091712  1
  O  O202  1  0.73663894  0.99615949  0.63355179  1
  O  O203  1  0.00671953  0.37124930  0.25422751  1
  O  O204  1  0.00143472  0.36876337  0.75542504  1
  O  O205  1  0.00725361  0.86770718  0.25394765  1
  O  O206  1  0.01041222  0.86731021  0.75514632  1
  O  O207  1  0.51599088  0.37879154  0.24968025  1
  O  O208  1  0.50503883  0.37293708  0.75819280  1
  O  O209  1  0.50870013  0.87203310  0.26167397  1
  O  O210  1  0.51128324  0.86318810  0.76056907  1
  O  O211  1  0.48687675  0.12046138  0.25040817  1
  O  O212  1  0.51529839  0.14075451  0.73769744  1
  O  O213  1  0.49487183  0.62922010  0.24453039  1
  O  O214  1  0.50616570  0.63792704  0.74855298  1
  O  O215  1  0.99486592  0.12925694  0.24606664  1
  O  O216  1  0.98872140  0.13513067  0.75485042  1
  O  O217  1  0.99174848  0.62983992  0.25353732  1
  O  O218  1  0.99343280  0.63178916  0.74916726  1
  O  O219  1  0.36754379  0.25946738  0.01142257  1
  O  O220  1  0.36427489  0.25501019  0.50163965  1
  O  O221  1  0.37142503  0.75084307  0.01346406  1
  O  O222  1  0.37314375  0.76375041  0.50881865  1
  O  O223  1  0.87579178  0.25699337  0.00470729  1
  O  O224  1  0.87993584  0.26414858  0.49791639  1
  O  O225  1  0.88002942  0.75927620  0.00797551  1
  O  O226  1  0.88291543  0.75919431  0.51446880  1
  O  O227  1  0.13012254  0.24409707  0.49770206  1
  O  O228  1  0.12626304  0.24644752  0.99786482  1
  O  O229  1  0.12112590  0.73854330  0.51346160  1
  O  O230  1  0.13479253  0.75056083  0.99548910  1
  O  O231  1  0.62621963  0.24114131  0.50690882  1
  O  O232  1  0.62329165  0.24516923  0.99241110  1
  O  O233  1  0.62842232  0.74267084  0.49982207  1
  O  O234  1  0.62253926  0.73926385  0.99313661  1
  O  O235  1  0.48540947  0.25227754  0.12217585  1
  O  O236  1  0.49202768  0.24915832  0.62950262  1
  O  O237  1  0.49047939  0.74094487  0.13005614  1
  O  O238  1  0.49101680  0.75043835  0.63600648  1
  O  O239  1  0.99118608  0.24691384  0.12864495  1
  O  O240  1  0.99339869  0.25698936  0.63516350  1
  O  O241  1  0.98855484  0.75338495  0.13661557  1
  O  O242  1  0.99227941  0.74961081  0.63941774  1
  O  O243  1  0.00183521  0.25805936  0.36558963  1
  O  O244  1  0.00516120  0.25645341  0.86675962  1
  O  O245  1  -0.00691980  0.75933574  0.35413455  1
  O  O246  1  0.00635400  0.75022121  0.86662018  1
  O  O247  1  0.49512011  0.24768091  0.37314127  1
  O  O248  1  0.50834853  0.24301720  0.86719385  1
  O  O249  1  0.49992658  0.76010343  0.36843681  1
  O  O250  1  0.50983767  0.75319188  0.87280664  1
  O  O251  1  0.23854106  0.13046013  0.49020848  1
  O  O252  1  0.22976099  0.13861578  1.01689623  1
  O  O253  1  0.24072796  0.63016542  0.49354870  1
  O  O254  1  0.25833399  0.63944634  0.98667101  1
  O  O255  1  0.74311671  0.12378925  0.48888944  1
  O  O256  1  0.74675926  0.12584479  0.98761334  1
  O  O257  1  0.74146861  0.62375198  0.49785265  1
  O  O258  1  0.73819931  0.61595973  0.99748584  1
  O  O259  1  0.25728603  0.37326738  0.00930241  1
  O  O260  1  0.25463364  0.36486382  0.48940372  1
  O  O261  1  0.24882227  0.85608624  0.00110607  1
  O  O262  1  0.25473925  0.87500744  0.50833251  1
  O  O263  1  0.76236796  0.37542269  0.00088356  1
  O  O264  1  0.75695766  0.38221653  0.50759297  1
  O  O265  1  0.76167974  0.88204584  0.00165764  1
  O  O266  1  0.77505629  0.87641295  0.50459026  1
  O  O267  1  0.12382202  0.48914185  0.24246711  1
  O  O268  1  0.12022735  0.49355618  0.73382798  1
  O  O269  1  0.13708810  0.99232584  0.24324585  1
  O  O270  1  0.11715490  0.98744936  0.75861517  1
  O  O271  1  0.63760324  0.50539218  0.25149912  1
  O  O272  1  0.62962261  0.49253620  0.75150752  1
  O  O273  1  0.63774485  0.99092386  0.24997785  1
  O  O274  1  0.62387109  0.99064381  0.74424357  1
  O  O275  1  0.37051681  0.00713541  0.25425180  1
  O  O276  1  0.41803178  0.01155205  0.76676935  1
  O  O277  1  0.37403059  0.51301980  0.24812218  1
  O  O278  1  0.38602202  0.47653348  0.76287012  1
  O  O279  1  0.87227184  0.00458526  0.25992678  1
  O  O280  1  0.86933766  0.00476089  0.75498734  1
  O  O281  1  0.87396523  0.50520429  0.25691173  1
  O  O282  1  0.87109670  0.50448443  0.75488069  1
  O  O283  1  0.12000746  0.37602063  0.36626929  1
  O  O284  1  0.11836650  0.37262162  0.86655009  1
  O  O285  1  0.11611682  0.87959872  0.36033504  1
  O  O286  1  0.12326327  0.86245844  0.86608148  1
  O  O287  1  0.62490856  0.37762871  0.35538374  1
  O  O288  1  0.63073114  0.36584342  0.86463380  1
  O  O289  1  0.61932606  0.87681234  0.36986614  1
  O  O290  1  0.62133988  0.86585794  0.87028792  1
  O  O291  1  0.36976992  0.14032258  0.12839658  1
  O  O292  1  0.37679960  0.13845652  0.61232428  1
  O  O293  1  0.38269725  0.63149562  0.13120106  1
  O  O294  1  0.37539197  0.64052355  0.61951038  1
  O  O295  1  0.87937050  0.13253921  0.12934459  1
  O  O296  1  0.86508713  0.12381103  0.63828014  1
  O  O297  1  0.87573764  0.63082910  0.13440415  1
  O  O298  1  0.87620203  0.63200072  0.63111336  1
  O  O299  1  0.25122276  0.26351909  0.11842507  1
  O  O300  1  0.25480981  0.24706386  0.60869169  1
  O  O301  1  0.26285607  0.74332909  0.11427262  1
  O  O302  1  0.25727127  0.76011805  0.62556602  1
  O  O303  1  0.76471514  0.25364442  0.12050937  1
  O  O304  1  0.75154650  0.26317512  0.63199047  1
  O  O305  1  0.76549958  0.75244349  0.13122533  1
  O  O306  1  0.75643711  0.74659969  0.62165665  1
  O  O307  1  0.24812112  0.23853978  0.38192639  1
  O  O308  1  0.23916472  0.26216923  0.89707779  1
  O  O309  1  0.25288382  0.73875325  0.37922301  1
  O  O310  1  0.24417318  0.74575098  0.88686992  1
  O  O311  1  0.75993153  0.23578764  0.37125493  1
  O  O312  1  0.73773901  0.24260178  0.87526836  1
  O  O313  1  0.75121514  0.74630366  0.37974862  1
  O  O314  1  0.73794076  0.74301436  0.87194575  1
  O  O315  1  0.00704323  0.12034634  0.00339812  1
  O  O316  1  0.01669489  0.12484893  0.49187651  1
  O  O317  1  -0.00425641  0.61200963  -0.00340633  1
  O  O318  1  0.00620026  0.61837013  0.50081266  1
  O  O319  1  0.50790871  0.10708743  -0.00331568  1
  O  O320  1  0.51778845  0.12418029  0.49983690  1
  O  O321  1  0.50864263  0.61782996  0.00796831  1
  O  O322  1  0.50619304  0.61934332  0.50027545  1
  O  O323  1  0.49274731  0.38380107  0.49531763  1
  O  O324  1  0.49482339  0.38440768  1.00583071  1
  O  O325  1  0.49285346  0.87226068  0.48945299  1
  O  O326  1  0.51178770  0.88140858  0.99633663  1
  O  O327  1  0.99351782  0.38270914  0.49451872  1
  O  O328  1  0.98880047  0.37912046  0.99172070  1
  O  O329  1  1.00602747  0.85178063  0.47128510  1
  O  O330  1  0.99147024  0.88266297  0.99944318  1
  O  O331  1  0.49484556  0.49867402  0.38497280  1
  O  O332  1  0.49735794  0.49443206  0.88170745  1
  O  O333  1  0.48350345  0.99039400  0.37141070  1
  O  O334  1  0.50993326  0.98383649  0.89487038  1
  O  O335  1  0.99512832  0.49549186  0.38516112  1
  O  O336  1  0.99506204  0.49458458  0.87991549  1
  O  O337  1  0.99420097  0.98415377  0.36608970  1
  O  O338  1  0.99182743  1.00046794  0.88817264  1
  O  O339  1  -0.00359329  0.00589309  0.11373125  1
  O  O340  1  -0.02998769  -0.07278752  0.58351522  1
  O  O341  1  0.00941516  0.49482573  0.11399654  1
  O  O342  1  -0.00144984  0.50214071  0.61235766  1
  O  O343  1  0.50773208  -0.00649798  0.11515829  1
  O  O344  1  0.51592260  -0.00138264  0.62498188  1
  O  O345  1  0.49891994  0.51259984  0.11812122  1
  O  O346  1  0.50171052  0.50324301  0.61071238  1
  O  O347  1  0.24332292  0.37743996  0.24488415  1
  O  O348  1  0.23628226  0.36751602  0.75404496  1
  O  O349  1  0.24376834  0.88325118  0.25314761  1
  O  O350  1  0.23715504  0.87197842  0.74711533  1
  O  O351  1  0.74046707  0.38642878  0.24869325  1
  O  O352  1  0.74300102  0.37971112  0.74504827  1
  O  O353  1  0.74565097  0.88188829  0.25511634  1
  O  O354  1  0.73487704  0.87958509  0.75307993  1
  O  O355  1  0.25609642  0.11804419  0.25517258  1
  O  O356  1  0.25475070  0.17036092  0.76402312  1
  O  O357  1  0.25712226  0.62557710  0.25626643  1
  O  O358  1  0.24741195  0.63335230  0.77354857  1
  O  O359  1  0.75655132  0.11870240  0.26103031  1
  O  O360  1  0.75149129  0.12101313  0.76012067  1
  O  O361  1  0.76030370  0.61478421  0.25271237  1
  O  O362  1  0.75392663  0.61813696  0.75603715  1
  O  O363  1  0.36556161  0.11723793  0.36831125  1
  O  O364  1  0.35217385  0.11225012  0.91779771  1
  O  O365  1  0.36905820  0.62631369  0.36615482  1
  O  O366  1  0.37228501  0.62585701  0.87357888  1
  O  O367  1  0.86857749  0.11885285  0.37278805  1
  O  O368  1  0.86560262  0.11994215  0.86612903  1
  O  O369  1  0.87805994  0.61414100  0.36975714  1
  O  O370  1  0.86783700  0.62033892  0.87165720  1
  O  O371  1  0.13280548  0.38027631  0.13230039  1
  O  O372  1  0.12156648  0.39054915  0.62953839  1
  O  O373  1  0.12037237  0.87877507  0.13606145  1
  O  O374  1  0.13350769  0.87409162  0.64448990  1
  O  O375  1  0.63040435  0.37149793  0.14192912  1
  O  O376  1  0.62950892  0.37672654  0.63694915  1
  O  O377  1  0.62953074  0.87198267  0.14177467  1
  O  O378  1  0.62419662  0.88122012  0.63087106  1
  O  O379  1  0.12105952  0.26126160  0.24860605  1
  O  O380  1  0.11284985  0.26009826  0.75039916  1
  O  O381  1  0.11839859  0.75695681  0.24276102  1
  O  O382  1  0.11737177  0.75249675  0.75739600  1
  O  O383  1  0.62799921  0.25358007  0.24921095  1
  O  O384  1  0.61836070  0.25887026  0.75518435  1
  O  O385  1  0.61887891  0.75662992  0.25504248  1
  O  O386  1  0.61941364  0.75559020  0.75780966  1
  O  O387  1  0.36757182  0.24300422  0.23557473  1
  O  O388  1  0.38998397  0.26297525  0.73527681  1
  O  O389  1  0.37911882  0.74019043  0.24185537  1
  O  O390  1  0.38414340  0.75841509  0.74188272  1
  O  O391  1  0.87993492  0.24649588  0.24115693  1
  O  O392  1  0.88085854  0.24127752  0.74947528  1
  O  O393  1  0.88129499  0.74009207  0.24344736  1
  O  O394  1  0.88099867  0.74295082  0.74903698  1
  O  O395  1  0.38035636  0.49199549  0.49930773  1
  O  O396  1  0.38492908  0.48723606  1.00720036  1
  O  O397  1  0.36915393  0.98869193  0.49187964  1
  O  O398  1  0.39314452  0.98646546  1.00840863  1
  O  O399  1  0.88126207  0.49381044  0.49265722  1
  O  O400  1  0.88169914  0.49263330  0.99578256  1
  O  O401  1  0.87310764  0.99937509  0.48739108  1
  O  O402  1  0.88011918  0.99449208  0.99571687  1
  O  O403  1  0.11677179  0.00687683  0.00083909  1
  O  O404  1  0.12880822  0.01043384  0.49586382  1
  O  O405  1  0.11385905  0.49026529  0.00910736  1
  O  O406  1  0.11873003  0.50554070  0.51105670  1
  O  O407  1  0.62175263  0.00731476  0.00797980  1
  O  O408  1  0.63276383  -0.00265055  0.50902338  1
  O  O409  1  0.61375374  0.50681623  -0.00404690  1
  O  O410  1  0.61733062  0.50595242  0.49888217  1
  O  O411  1  0.36881309  0.36807051  0.12253531  1
  O  O412  1  0.37318866  0.36081354  0.60466257  1
  O  O413  1  0.38087228  0.85758297  0.13608718  1
  O  O414  1  0.37037264  0.87035976  0.61955226  1
  O  O415  1  0.87621885  0.36795200  0.11614103  1
  O  O416  1  0.86511659  0.37421349  0.61434563  1
  O  O417  1  0.87266974  0.86730488  0.11737368  1
  O  O418  1  0.85950765  0.85594126  0.63839994  1
  O  O419  1  0.13624607  0.12428808  0.37278877  1
  O  O420  1  0.12633319  0.13345197  0.88483035  1
  O  O421  1  0.13176090  0.62168415  0.38724722  1
  O  O422  1  0.12429989  0.63505303  0.87547817  1
  O  O423  1  0.63900269  0.12696639  0.38739343  1
  O  O424  1  0.63111633  0.13273350  0.88507640  1
  O  O425  1  0.62659666  0.62771307  0.38803990  1
  O  O426  1  0.62998760  0.63162633  0.88458705  1
