# generated using pymatgen
data_V85Zn86O256
_symmetry_space_group_name_H-M   'P 1'
_cell_length_a   16.95279568
_cell_length_b   16.93624358
_cell_length_c   16.94282282
_cell_angle_alpha   89.99525027
_cell_angle_beta   89.95218512
_cell_angle_gamma   90.04026333
_symmetry_Int_Tables_number   1
_chemical_formula_structural   V85Zn86O256
_chemical_formula_sum   'V85 Zn86 O256'
_cell_volume   4864.56407581
_cell_formula_units_Z   1
loop_
 _symmetry_equiv_pos_site_id
 _symmetry_equiv_pos_as_xyz
  1  'x, y, z'
loop_
 _atom_site_type_symbol
 _atom_site_label
 _atom_site_symmetry_multiplicity
 _atom_site_fract_x
 _atom_site_fract_y
 _atom_site_fract_z
 _atom_site_occupancy
  V  V0  1  0.87896765  0.12607686  0.74906464  1
  V  V1  1  0.00160197  0.36791768  0.37903466  1
  V  V2  1  0.50106705  0.76156438  0.74980556  1
  V  V3  1  0.62239016  0.25036181  0.86961984  1
  V  V4  1  0.37954410  0.62310459  0.25112818  1
  V  V5  1  0.12353436  0.49744576  0.62884183  1
  V  V6  1  0.00192127  0.24538759  0.25199276  1
  V  V7  1  0.12399760  0.00176640  0.62585567  1
  V  V8  1  0.25236196  0.26454408  0.00298625  1
  V  V9  1  0.86940913  0.61426199  0.25557525  1
  V  V10  1  0.36120497  0.87630790  -0.00045426  1
  V  V11  1  0.12727215  0.12590071  0.00156426  1
  V  V12  1  0.12551061  0.64362920  0.00169837  1
  V  V13  1  0.37512239  0.75171669  0.62432702  1
  V  V14  1  0.13085525  0.12744568  0.48762478  1
  V  V15  1  0.62031886  0.49195270  0.62766330  1
  V  V16  1  0.74361673  0.49831266  0.74722559  1
  V  V17  1  0.63035124  0.38549210  0.24741075  1
  V  V18  1  0.87831217  0.87470442  0.48973780  1
  V  V19  1  0.50554153  0.12428619  0.62474109  1
  V  V20  1  0.87878224  0.37311176  0.00164812  1
  V  V21  1  0.00231877  0.62508848  0.13234625  1
  V  V22  1  0.13321313  0.00263935  0.12960176  1
  V  V23  1  0.53152853  0.41161883  0.91302961  1
  V  V24  1  0.50176162  0.24823290  0.24750221  1
  V  V25  1  0.37970939  -0.00305756  0.87216279  1
  V  V26  1  0.36890960  0.74952432  0.12268383  1
  V  V27  1  0.00633829  0.37743573  0.86692415  1
  V  V28  1  0.87813429  0.25501266  0.62052098  1
  V  V29  1  0.75227423  0.12729788  0.87390284  1
  V  V30  1  0.37739415  0.62607154  0.75380708  1
  V  V31  1  0.36155986  0.00305698  0.37037118  1
  V  V32  1  0.37710746  0.12586319  0.74957289  1
  V  V33  1  -0.00195789  0.62676703  0.62864529  1
  V  V34  1  -0.00243875  0.86236116  0.87619138  1
  V  V35  1  0.74921731  0.75079837  0.50024359  1
  V  V36  1  0.25483649  0.61698423  0.37587793  1
  V  V37  1  0.24580095  0.37355321  0.62813454  1
  V  V38  1  0.24446371  0.64118771  0.87989395  1
  V  V39  1  0.87590135  0.63077595  0.75153612  1
  V  V40  1  0.62241890  0.75218107  0.37263245  1
  V  V41  1  0.12323115  0.62336046  0.50111286  1
  V  V42  1  0.13179089  0.87869660  0.25452893  1
  V  V43  1  0.00164171  -0.00313356  0.49143742  1
  V  V44  1  0.12014342  0.75277728  0.37643597  1
  V  V45  1  0.00382820  0.50185510  0.00148058  1
  V  V46  1  0.36056615  0.12365492  0.25019948  1
  V  V47  1  0.87737924  0.50105250  0.87200481  1
  V  V48  1  0.74335670  0.00358232  0.74419635  1
  V  V49  1  -0.00311560  0.75512226  0.25510311  1
  V  V50  1  0.62909966  0.12485854  -0.00017873  1
  V  V51  1  0.49630549  0.49991601  0.49379140  1
  V  V52  1  0.25497917  0.49319066  0.24958690  1
  V  V53  1  0.50144285  0.00051710  0.49570019  1
  V  V54  1  0.62806656  -0.01099087  0.12353453  1
  V  V55  1  0.75993653  0.12394225  0.36408031  1
  V  V56  1  -0.01057989  0.12540383  0.12551334  1
  V  V57  1  0.74231868  0.62801929  0.88089975  1
  V  V58  1  0.74449850  0.88066028  0.62375549  1
  V  V59  1  0.87754544  0.75435717  0.62959291  1
  V  V60  1  0.74947214  0.37224606  0.62748545  1
  V  V61  1  0.87886904  -0.00129715  0.88270944  1
  V  V62  1  0.25036073  0.75104044  0.49913769  1
  V  V63  1  0.37223115  0.26083139  0.12147372  1
  V  V64  1  0.11805940  0.86074156  0.75112823  1
  V  V65  1  0.62704562  0.12167875  0.49837491  1
  V  V66  1  0.00236015  0.12603204  0.62180269  1
  V  V67  1  0.50008918  0.12344036  0.12389398  1
  V  V68  1  0.12808345  0.25363777  0.86732793  1
  V  V69  1  0.62576124  0.62449909  0.50330538  1
  V  V70  1  0.37431494  0.37895875  0.49346018  1
  V  V71  1  0.24893813  0.24744691  0.48661345  1
  V  V72  1  0.61952681  0.75753573  0.88104091  1
  V  V73  1  0.24541520  0.49907501  0.75279051  1
  V  V74  1  0.62634118  0.25000205  0.36956171  1
  V  V75  1  0.75503737  0.25323911  0.49558768  1
  V  V76  1  0.76002045  -0.00676640  0.24058423  1
  V  V77  1  0.13052688  0.49068865  0.12641904  1
  V  V78  1  0.37592607  0.25226148  0.62391512  1
  V  V79  1  0.75390311  0.38979477  0.12630746  1
  V  V80  1  0.24614457  0.00185833  0.74987030  1
  V  V81  1  0.50206402  0.26555191  0.75255341  1
  V  V82  1  0.50031105  -0.00706949  -0.00444137  1
  V  V83  1  0.36977085  0.49276094  0.88985242  1
  V  V84  1  -0.00791089  0.49528422  0.50027012  1
  Zn  Zn85  1  0.00085811  -0.00268481  0.00137151  1
  Zn  Zn86  1  0.74502007  0.61743480  0.36914968  1
  Zn  Zn87  1  0.62020012  0.88180397  0.74586631  1
  Zn  Zn88  1  0.74682552  0.76795794  0.01325321  1
  Zn  Zn89  1  0.13008049  0.37026050  0.25501220  1
  Zn  Zn90  1  0.75056971  0.25042541  0.00252315  1
  Zn  Zn91  1  0.00708954  0.25501211  0.74573141  1
  Zn  Zn92  1  0.50442009  0.62076074  0.10555799  1
  Zn  Zn93  1  0.86961914  0.24766346  0.13120323  1
  Zn  Zn94  1  0.25161046  0.12732238  0.87629806  1
  Zn  Zn95  1  0.49928397  0.75274303  0.24724992  1
  Zn  Zn96  1  0.50029200  0.62358098  0.62883514  1
  Zn  Zn97  1  0.62813635  0.86806763  0.24147278  1
  Zn  Zn98  1  0.86619966  0.48889035  0.37834534  1
  Zn  Zn99  1  0.61836276  0.50192451  0.10054583  1
  Zn  Zn100  1  0.24788075  0.87513439  0.62475290  1
  Zn  Zn101  1  0.49793580  0.37775085  0.37029549  1
  Zn  Zn102  1  0.87998867  -0.00046713  0.36816548  1
  Zn  Zn103  1  0.86423864  0.76196207  0.12791533  1
  Zn  Zn104  1  0.24418425  0.87135056  0.12381689  1
  Zn  Zn105  1  0.49964856  0.87723342  0.36977502  1
  Zn  Zn106  1  0.37618126  0.87578012  0.49650933  1
  Zn  Zn107  1  0.18393762  0.19260942  0.18525583  1
  Zn  Zn108  1  0.18951732  0.18671943  0.68310966  1
  Zn  Zn109  1  0.18923058  0.68605870  0.18952281  1
  Zn  Zn110  1  0.18985201  0.68432072  0.68734886  1
  Zn  Zn111  1  0.69370967  0.18612393  0.18266637  1
  Zn  Zn112  1  0.68643970  0.18814171  0.68643818  1
  Zn  Zn113  1  0.68585766  0.68412983  0.17615233  1
  Zn  Zn114  1  0.68627496  0.68634320  0.69001299  1
  Zn  Zn115  1  0.31716914  0.31269336  0.31007826  1
  Zn  Zn116  1  0.31237897  0.31424483  0.81230742  1
  Zn  Zn117  1  0.31279231  0.81187377  0.31295789  1
  Zn  Zn118  1  0.31050948  0.81892744  0.81057744  1
  Zn  Zn119  1  0.81794025  0.31652956  0.30767236  1
  Zn  Zn120  1  0.81420982  0.31225854  0.81133401  1
  Zn  Zn121  1  0.80762275  0.80679243  0.30928137  1
  Zn  Zn122  1  0.80766587  0.81616810  0.81877038  1
  Zn  Zn123  1  0.18348364  0.43575057  0.43885555  1
  Zn  Zn124  1  0.18575243  0.44300305  0.93836157  1
  Zn  Zn125  1  0.18602558  0.93568037  0.43769315  1
  Zn  Zn126  1  0.18099580  0.93940047  0.93243260  1
  Zn  Zn127  1  0.68709276  0.43529614  0.43785429  1
  Zn  Zn128  1  0.70184799  0.43381647  0.93313685  1
  Zn  Zn129  1  0.69054525  0.93903580  0.43317068  1
  Zn  Zn130  1  0.68668726  0.93801221  0.92999383  1
  Zn  Zn131  1  0.31138725  0.06719561  0.06269504  1
  Zn  Zn132  1  0.31493231  0.06372047  0.56096671  1
  Zn  Zn133  1  0.30960678  0.56845842  0.06470451  1
  Zn  Zn134  1  0.31273574  0.56339369  0.56473850  1
  Zn  Zn135  1  0.82023206  -0.07141462  0.06195495  1
  Zn  Zn136  1  0.81511273  0.06410017  0.55902385  1
  Zn  Zn137  1  0.82020492  0.58442130  0.05430735  1
  Zn  Zn138  1  0.81021560  0.56289639  0.56173162  1
  Zn  Zn139  1  0.44087018  0.44284598  0.18157544  1
  Zn  Zn140  1  0.43322885  0.43937245  0.69030357  1
  Zn  Zn141  1  0.43847222  0.93495697  0.18818910  1
  Zn  Zn142  1  0.43532338  0.94004524  0.67963845  1
  Zn  Zn143  1  0.94210090  0.43546312  0.19083007  1
  Zn  Zn144  1  0.93414421  0.43874714  0.68669371  1
  Zn  Zn145  1  0.94835139  0.93808639  0.19054634  1
  Zn  Zn146  1  0.93667741  0.93885220  0.68707956  1
  Zn  Zn147  1  0.06502130  0.06501160  0.31037770  1
  Zn  Zn148  1  0.06177622  0.06494360  0.81421867  1
  Zn  Zn149  1  0.06406002  0.55906772  0.31523440  1
  Zn  Zn150  1  0.06374618  0.57006143  0.81446895  1
  Zn  Zn151  1  0.56561832  0.06121020  0.30910757  1
  Zn  Zn152  1  0.56163459  0.06552589  0.81199830  1
  Zn  Zn153  1  0.56301488  0.56569393  0.31333289  1
  Zn  Zn154  1  0.56046085  0.58011551  0.92676381  1
  Zn  Zn155  1  0.43548633  0.18715528  0.43402131  1
  Zn  Zn156  1  0.43777120  0.18744450  0.93814955  1
  Zn  Zn157  1  0.43942711  0.68608997  0.43695428  1
  Zn  Zn158  1  0.42700742  0.69938122  0.93106181  1
  Zn  Zn159  1  0.94010468  0.18787224  0.43623426  1
  Zn  Zn160  1  0.94162830  0.18939539  0.93849076  1
  Zn  Zn161  1  0.93673459  0.68542968  0.43919356  1
  Zn  Zn162  1  0.93089859  0.68947994  0.94560893  1
  Zn  Zn163  1  0.06300426  0.31087738  0.06206566  1
  Zn  Zn164  1  0.06654093  0.31209448  0.55825976  1
  Zn  Zn165  1  0.04399260  0.82072132  0.07148560  1
  Zn  Zn166  1  0.06043945  0.81360218  0.56500597  1
  Zn  Zn167  1  0.56645492  0.31218749  0.06555520  1
  Zn  Zn168  1  0.56355816  0.31136595  0.56014841  1
  Zn  Zn169  1  0.55025153  0.80746932  0.05949547  1
  Zn  Zn170  1  0.56099293  0.81448001  0.56140885  1
  O  O171  1  0.12039657  0.12083254  0.11838957  1
  O  O172  1  0.11892296  0.11927451  0.61913221  1
  O  O173  1  0.11693147  0.61872614  0.12338156  1
  O  O174  1  0.11806644  0.61992260  0.62123669  1
  O  O175  1  0.62184757  0.11652401  0.11496797  1
  O  O176  1  0.61374706  0.13229748  0.61407981  1
  O  O177  1  0.61914781  0.61398165  0.12514911  1
  O  O178  1  0.62336503  0.61312649  0.62065201  1
  O  O179  1  0.37893662  0.37220505  0.38949505  1
  O  O180  1  0.36863001  0.39308808  0.87343225  1
  O  O181  1  0.37622208  0.88903070  0.37502435  1
  O  O182  1  0.36985182  0.88932624  0.88106702  1
  O  O183  1  0.89328723  0.37481242  0.37349131  1
  O  O184  1  0.88165904  0.38123124  0.88102211  1
  O  O185  1  0.87037092  0.87373071  0.38730531  1
  O  O186  1  0.89068496  0.88634781  0.85929984  1
  O  O187  1  0.26326546  0.00101497  0.38072068  1
  O  O188  1  0.25413409  0.00343397  0.86199481  1
  O  O189  1  0.24311904  0.51109260  0.37104059  1
  O  O190  1  0.25461690  0.50751935  0.86857570  1
  O  O191  1  0.75178680  0.00902409  0.36278349  1
  O  O192  1  0.75958320  0.00943473  0.86228142  1
  O  O193  1  0.75531924  0.50634369  0.38989337  1
  O  O194  1  0.75838322  0.50209513  0.86080231  1
  O  O195  1  0.24137672  0.50715725  0.13672973  1
  O  O196  1  0.24451940  0.49471385  0.63206508  1
  O  O197  1  0.23661468  1.00075048  0.12284935  1
  O  O198  1  0.24720197  0.99875981  0.63462240  1
  O  O199  1  0.74880589  0.49080061  0.11025079  1
  O  O200  1  0.74510057  0.48942639  0.62558075  1
  O  O201  1  0.74636970  0.99529290  0.13397312  1
  O  O202  1  0.75784213  0.99366856  0.63147999  1
  O  O203  1  0.00562645  0.36683615  0.26036082  1
  O  O204  1  -0.00530531  0.37487867  0.76280960  1
  O  O205  1  0.01108831  0.86032718  0.25322996  1
  O  O206  1  0.01198940  0.87866916  0.75487468  1
  O  O207  1  0.50773708  0.36245422  0.25015626  1
  O  O208  1  0.49421934  0.36604414  0.75674813  1
  O  O209  1  0.50901351  0.87285075  0.25203704  1
  O  O210  1  0.49947038  0.86636724  0.73987137  1
  O  O211  1  0.49952336  0.13541050  0.24381792  1
  O  O212  1  0.49510528  0.12826904  0.73897710  1
  O  O213  1  0.48401724  0.62650116  0.25836110  1
  O  O214  1  0.48127089  0.63983154  0.74867195  1
  O  O215  1  1.00410067  0.13616801  0.24268980  1
  O  O216  1  0.99413057  0.12890981  0.74136472  1
  O  O217  1  0.99833825  0.63266956  0.24881806  1
  O  O218  1  0.98541997  0.62024418  0.74480370  1
  O  O219  1  0.36057905  0.24258785  0.00597190  1
  O  O220  1  0.37113560  0.25664663  0.50596598  1
  O  O221  1  0.37285065  0.76682625  0.00638626  1
  O  O222  1  0.36741501  0.74904738  0.50662486  1
  O  O223  1  0.87769512  0.26465466  -0.00048434  1
  O  O224  1  0.86633499  0.24318302  0.50824160  1
  O  O225  1  0.84950544  0.70391083  0.02034324  1
  O  O226  1  0.86961995  0.75612231  0.50662571  1
  O  O227  1  0.13699590  0.23992861  0.50402688  1
  O  O228  1  0.13560703  0.24666207  0.99381229  1
  O  O229  1  0.13031474  0.74537500  0.49655994  1
  O  O230  1  0.11552605  0.74153683  1.01271421  1
  O  O231  1  0.63069671  0.24132690  0.48984021  1
  O  O232  1  0.62423309  0.24059387  0.99081509  1
  O  O233  1  0.62791150  0.74098262  0.49859374  1
  O  O234  1  0.62385270  0.75866560  0.98424344  1
  O  O235  1  0.49474682  0.24350482  0.12941353  1
  O  O236  1  0.49599537  0.24666274  0.63208020  1
  O  O237  1  0.48399020  0.74559171  0.12777239  1
  O  O238  1  0.49103775  0.74745278  0.62907772  1
  O  O239  1  0.99951583  0.24373575  0.13310217  1
  O  O240  1  0.99416127  0.24713974  0.62477094  1
  O  O241  1  0.99835819  0.73865454  0.13934033  1
  O  O242  1  0.98508622  0.74458336  0.62113607  1
  O  O243  1  0.00079835  0.25650404  0.36709385  1
  O  O244  1  0.01067172  0.25958624  0.87317510  1
  O  O245  1  0.01281802  0.74280833  0.37220593  1
  O  O246  1  -0.01194255  0.76295896  0.87718810  1
  O  O247  1  0.50950172  0.24963398  0.36606800  1
  O  O248  1  0.50829278  0.24063900  0.86337427  1
  O  O249  1  0.50841571  0.75400763  0.37593308  1
  O  O250  1  0.51064245  0.75274626  0.86388056  1
  O  O251  1  0.24314644  0.13586285  0.50775607  1
  O  O252  1  0.23863933  0.13253611  0.99783956  1
  O  O253  1  0.24556585  0.63199328  0.49523187  1
  O  O254  1  0.23904097  0.62572840  0.99042522  1
  O  O255  1  0.74327289  0.13342434  0.49372255  1
  O  O256  1  0.73542467  0.12689682  0.99038268  1
  O  O257  1  0.73634393  0.63181932  0.50611798  1
  O  O258  1  0.73435145  0.60098246  0.97706746  1
  O  O259  1  0.24702080  0.36298998  -0.00169200  1
  O  O260  1  0.25631269  0.37070523  0.50618665  1
  O  O261  1  0.25785610  0.88590304  0.00032636  1
  O  O262  1  0.25024157  0.86151827  0.50181831  1
  O  O263  1  0.76317993  0.37176117  0.00506828  1
  O  O264  1  0.74397001  0.35927204  0.50982696  1
  O  O265  1  0.76368622  0.87693451  -0.01935909  1
  O  O266  1  0.75802010  0.87310689  0.50621983  1
  O  O267  1  0.13429557  0.50004800  0.24280986  1
  O  O268  1  0.13754997  0.50767983  0.74572273  1
  O  O269  1  0.11965655  0.99050412  0.24388125  1
  O  O270  1  0.13203228  1.00072178  0.74426195  1
  O  O271  1  0.62180002  0.48485235  0.25888809  1
  O  O272  1  0.64117467  0.50176736  0.73959102  1
  O  O273  1  0.63467779  0.99909528  0.23741101  1
  O  O274  1  0.63870740  1.00322200  0.75145620  1
  O  O275  1  0.37928163  0.00848310  0.26178913  1
  O  O276  1  0.36869682  0.00284887  0.75408100  1
  O  O277  1  0.36586188  0.50816471  0.24716674  1
  O  O278  1  0.36291780  0.51086288  0.75229149  1
  O  O279  1  0.86447073  -0.00486779  0.24949550  1
  O  O280  1  0.87016721  0.01404418  0.75170654  1
  O  O281  1  0.88350304  0.51124202  0.25713803  1
  O  O282  1  0.86585443  0.50865905  0.75096972  1
  O  O283  1  0.10857609  0.37913353  0.37395157  1
  O  O284  1  0.11713668  0.36852472  0.87959161  1
  O  O285  1  0.12751654  0.86408167  0.37019193  1
  O  O286  1  0.11256192  0.87746656  0.85978488  1
  O  O287  1  0.62527352  0.36180240  0.36891189  1
  O  O288  1  0.62386270  0.36056489  0.87420501  1
  O  O289  1  0.62559108  0.86072214  0.38022285  1
  O  O290  1  0.62867819  0.86175532  0.86283028  1
  O  O291  1  0.38206354  0.12987452  0.13247474  1
  O  O292  1  0.38600390  0.13295077  0.62773841  1
  O  O293  1  0.37374596  0.63312044  0.13448943  1
  O  O294  1  0.37235362  0.63657786  0.63369773  1
  O  O295  1  0.89112844  0.12768744  0.11691930  1
  O  O296  1  0.88119035  0.13471647  0.62922874  1
  O  O297  1  0.89236465  0.61430915  0.14240127  1
  O  O298  1  0.87669206  0.63333406  0.63185491  1
  O  O299  1  0.25622618  0.24840012  0.11122944  1
  O  O300  1  0.25710508  0.25896303  0.62100968  1
  O  O301  1  0.26208997  0.75126576  0.12843844  1
  O  O302  1  0.25575540  0.74928316  0.61607415  1
  O  O303  1  0.75334451  0.26107847  0.12070170  1
  O  O304  1  0.75597048  0.25404349  0.61816347  1
  O  O305  1  0.74889588  0.76323301  0.12946000  1
  O  O306  1  0.75857657  0.75722357  0.61978082  1
  O  O307  1  0.25584982  0.25312240  0.38749541  1
  O  O308  1  0.24580642  0.25004709  0.88435889  1
  O  O309  1  0.24134573  0.74206921  0.38294431  1
  O  O310  1  0.25216361  0.74004434  0.87009290  1
  O  O311  1  0.74713241  0.24577103  0.37799574  1
  O  O312  1  0.74288586  0.24434802  0.87406000  1
  O  O313  1  0.74212291  0.74303261  0.38407423  1
  O  O314  1  0.73911634  0.74246048  0.87612563  1
  O  O315  1  0.01301980  0.12889017  0.00738409  1
  O  O316  1  0.00842930  0.11965901  0.50450614  1
  O  O317  1  0.00606108  0.61970534  0.01047804  1
  O  O318  1  0.00457221  0.61721876  0.50814631  1
  O  O319  1  0.50898577  0.11634212  0.00313305  1
  O  O320  1  0.50781719  0.12366988  0.50401038  1
  O  O321  1  0.49262584  0.63544847  -0.00747153  1
  O  O322  1  0.50857471  0.61780475  0.50515281  1
  O  O323  1  0.49197994  0.38156500  0.50092250  1
  O  O324  1  0.49287797  0.35683658  0.98654677  1
  O  O325  1  0.49784611  0.88790178  0.49916103  1
  O  O326  1  0.48706498  0.88972670  1.00175665  1
  O  O327  1  1.00371496  0.38027046  0.49044826  1
  O  O328  1  0.99594379  0.38098479  0.99180621  1
  O  O329  1  0.99117349  0.88488623  0.50586324  1
  O  O330  1  1.00861593  0.87954565  0.97899636  1
  O  O331  1  0.50499502  0.49716699  0.39043369  1
  O  O332  1  0.48069678  0.49971367  0.87126541  1
  O  O333  1  0.49722695  1.00282169  0.38454885  1
  O  O334  1  0.49139671  1.00486487  0.88114945  1
  O  O335  1  0.99829222  0.49136822  0.38568868  1
  O  O336  1  0.99753410  0.49530276  0.87908953  1
  O  O337  1  0.99850089  1.00506202  0.38715676  1
  O  O338  1  0.99244973  0.99508871  0.87363256  1
  O  O339  1  0.01188779  0.01185828  0.12356622  1
  O  O340  1  0.00332269  0.00721476  0.61559093  1
  O  O341  1  0.01025211  0.50569714  0.12316952  1
  O  O342  1  0.00557122  0.50278305  0.62143853  1
  O  O343  1  0.50733044  0.00634952  0.11679212  1
  O  O344  1  0.49408556  0.01245239  0.60949016  1
  O  O345  1  0.50465265  0.50417790  0.11859088  1
  O  O346  1  0.50714656  0.49993608  0.62222829  1
  O  O347  1  0.24914774  0.38844205  0.25862359  1
  O  O348  1  0.25527766  0.38563511  0.74019508  1
  O  O349  1  0.23517770  0.86979329  0.24833046  1
  O  O350  1  0.23517664  0.88329801  0.74879475  1
  O  O351  1  0.74364438  0.37335859  0.23957988  1
  O  O352  1  0.75624608  0.38076642  0.73582782  1
  O  O353  1  0.74529551  0.89013742  0.25754594  1
  O  O354  1  0.75229398  0.88743384  0.74077495  1
  O  O355  1  0.26183857  0.13271813  0.24520620  1
  O  O356  1  0.25878468  0.11866680  0.74923925  1
  O  O357  1  0.25701748  0.61774218  0.25968693  1
  O  O358  1  0.25590915  0.62049791  0.75798642  1
  O  O359  1  0.74738911  0.11159490  0.25440376  1
  O  O360  1  0.75840212  0.12173998  0.75115333  1
  O  O361  1  0.76802964  0.62662195  0.24929314  1
  O  O362  1  0.75806879  0.61733077  0.75370985  1
  O  O363  1  0.37879762  0.11366182  0.36495641  1
  O  O364  1  0.37321643  0.11482298  0.86787608  1
  O  O365  1  0.36255505  0.63116531  0.36947528  1
  O  O366  1  0.36227103  0.61945945  0.86896755  1
  O  O367  1  0.86236873  0.12305047  0.37978398  1
  O  O368  1  0.87398106  0.12244001  0.86667850  1
  O  O369  1  0.87664221  0.62335460  0.36349897  1
  O  O370  1  0.86720218  0.62032040  0.86689924  1
  O  O371  1  0.12204470  0.38775087  0.12635923  1
  O  O372  1  0.13814707  0.37973102  0.62177706  1
  O  O373  1  0.12234551  0.88450521  0.13371359  1
  O  O374  1  0.12406845  0.88242595  0.63583407  1
  O  O375  1  0.63426662  0.38005337  0.13019274  1
  O  O376  1  0.63238496  0.38349845  0.62176155  1
  O  O377  1  0.61804247  0.88713956  0.11749518  1
  O  O378  1  0.64065304  0.87261023  0.62426278  1
  O  O379  1  0.11028582  0.25447268  0.24535988  1
  O  O380  1  0.12840362  0.24614197  0.76323339  1
  O  O381  1  0.11974679  0.75280062  0.25988853  1
  O  O382  1  0.12498074  0.76250690  0.74353212  1
  O  O383  1  0.62054887  0.25374127  0.25365635  1
  O  O384  1  0.61524007  0.24421977  0.75779309  1
  O  O385  1  0.62371109  0.74758425  0.26134780  1
  O  O386  1  0.61430577  0.75379844  0.75102176  1
  O  O387  1  0.38358926  0.24283681  0.24445005  1
  O  O388  1  0.38196073  0.24534801  0.74559415  1
  O  O389  1  0.37403864  0.74227970  0.24380454  1
  O  O390  1  0.37720725  0.74931704  0.74335480  1
  O  O391  1  0.89431652  0.25426089  0.24669359  1
  O  O392  1  0.87712091  0.23957422  0.74221188  1
  O  O393  1  0.88398392  0.74050261  0.25156139  1
  O  O394  1  0.86525259  0.74152053  0.74220110  1
  O  O395  1  0.38420150  0.49224350  0.50919218  1
  O  O396  1  0.36416753  0.50135256  0.98820510  1
  O  O397  1  0.38247051  1.00260634  0.48764951  1
  O  O398  1  0.38049896  1.00002756  0.99156543  1
  O  O399  1  0.88946238  0.50280619  0.50516303  1
  O  O400  1  0.88389945  0.49397332  0.99256775  1
  O  O401  1  0.88356763  0.99219377  0.49762243  1
  O  O402  1  0.87926837  1.00613614  0.98431071  1
  O  O403  1  0.12311598  0.01023939  0.00536840  1
  O  O404  1  0.11993749  0.00353567  0.50660247  1
  O  O405  1  0.12060606  0.50788790  0.00947226  1
  O  O406  1  0.11649569  0.50535891  0.50915431  1
  O  O407  1  0.61839108  0.00519270  0.00004024  1
  O  O408  1  0.62068442  0.01497357  0.49205174  1
  O  O409  1  0.60273447  0.47866541  -0.03103203  1
  O  O410  1  0.61682275  0.50491319  0.50945484  1
  O  O411  1  0.37670336  0.35897659  0.13295536  1
  O  O412  1  0.36581170  0.37148613  0.61734602  1
  O  O413  1  0.36950091  0.87168959  0.11721835  1
  O  O414  1  0.36946099  0.86356707  0.62070042  1
  O  O415  1  0.87217553  0.37715750  0.11752676  1
  O  O416  1  0.86907253  0.36172708  0.62670090  1
  O  O417  1  0.90288143  0.87108371  0.11302178  1
  O  O418  1  0.86825022  0.86921216  0.61917800  1
  O  O419  1  0.12736719  0.12032492  0.38852222  1
  O  O420  1  0.12594833  0.13524206  0.88310536  1
  O  O421  1  0.13268194  0.63099963  0.38303231  1
  O  O422  1  0.13280237  0.62562816  0.88673541  1
  O  O423  1  0.63497164  0.13488400  0.37761742  1
  O  O424  1  0.63020496  0.13248206  0.87917359  1
  O  O425  1  0.62442787  0.63399432  0.38567189  1
  O  O426  1  0.63167155  0.64335124  0.86276878  1
