# generated using pymatgen
data_V85Zn86O256
_symmetry_space_group_name_H-M   'P 1'
_cell_length_a   16.93348414
_cell_length_b   16.92151832
_cell_length_c   16.93090571
_cell_angle_alpha   90.03386859
_cell_angle_beta   90.05885847
_cell_angle_gamma   90.04909997
_symmetry_Int_Tables_number   1
_chemical_formula_structural   V85Zn86O256
_chemical_formula_sum   'V85 Zn86 O256'
_cell_volume   4851.38096823
_cell_formula_units_Z   1
loop_
 _symmetry_equiv_pos_site_id
 _symmetry_equiv_pos_as_xyz
  1  'x, y, z'
loop_
 _atom_site_type_symbol
 _atom_site_label
 _atom_site_symmetry_multiplicity
 _atom_site_fract_x
 _atom_site_fract_y
 _atom_site_fract_z
 _atom_site_occupancy
  V  V0  1  0.00850429  0.14028257  0.62864687  1
  V  V1  1  -0.00269561  0.75107076  0.24911215  1
  V  V2  1  0.49995001  0.49912263  0.49906995  1
  V  V3  1  0.50461400  0.87613019  0.87789983  1
  V  V4  1  -0.01672670  0.12989971  0.12896961  1
  V  V5  1  0.87299819  0.62474881  0.24826341  1
  V  V6  1  0.75133110  0.87712353  0.11835777  1
  V  V7  1  0.75255753  0.01087328  0.24893668  1
  V  V8  1  0.86813923  0.36517867  0.49906030  1
  V  V9  1  0.12361160  0.62736716  -0.00894098  1
  V  V10  1  0.75072332  0.74838105  0.49956652  1
  V  V11  1  0.62931472  0.87544155  0.75687874  1
  V  V12  1  0.12738722  0.37373352  0.75275792  1
  V  V13  1  -0.00246650  0.36438308  0.87339747  1
  V  V14  1  0.62657225  0.37067842  0.24710052  1
  V  V15  1  0.49974231  0.62226355  0.12433345  1
  V  V16  1  0.85811940  0.25389190  0.63180230  1
  V  V17  1  0.62142114  0.00867342  0.12634732  1
  V  V18  1  0.12622341  0.24670554  0.38067665  1
  V  V19  1  -0.00782778  0.25238610  0.25343560  1
  V  V20  1  -0.00344991  0.49269991  0.00345078  1
  V  V21  1  0.62108527  0.75353877  0.37131211  1
  V  V22  1  0.37024075  0.37100225  0.50276150  1
  V  V23  1  0.00742255  0.01104482  0.50195176  1
  V  V24  1  0.12953223  0.37829699  0.25869061  1
  V  V25  1  0.62768483  0.00340430  0.61997860  1
  V  V26  1  0.38697510  0.87471680  0.49293382  1
  V  V27  1  0.25000551  0.88048659  0.12794436  1
  V  V28  1  0.36463578  0.49945461  0.87170879  1
  V  V29  1  0.37090740  0.62327791  0.74981001  1
  V  V30  1  0.63097136  0.49511777  0.62234289  1
  V  V31  1  0.49991786  0.12260476  0.61279942  1
  V  V32  1  0.12632385  0.88252343  0.74848990  1
  V  V33  1  0.74798363  0.62431889  0.36999441  1
  V  V34  1  0.87602825  0.00963057  0.37093273  1
  V  V35  1  0.13227424  0.50139807  0.12676441  1
  V  V36  1  0.86381420  0.63357895  0.75467586  1
  V  V37  1  0.36841435  0.61843889  0.24828566  1
  V  V38  1  0.49773839  0.37660442  0.87539491  1
  V  V39  1  0.62552842  0.49754975  0.11829741  1
  V  V40  1  0.87544573  0.49581003  0.87879353  1
  V  V41  1  0.00829768  0.87353179  0.87827633  1
  V  V42  1  -0.00218962  0.87868162  0.37551155  1
  V  V43  1  0.61875978  0.87990794  0.25313231  1
  V  V44  1  0.88030574  0.49293725  0.37640928  1
  V  V45  1  0.12734914  0.00756475  0.12635066  1
  V  V46  1  0.37036568  0.74746527  0.12577276  1
  V  V47  1  0.12253372  0.74902723  0.37360569  1
  V  V48  1  0.49641697  0.00828882  -0.00011599  1
  V  V49  1  0.50598014  0.74681614  0.75839798  1
  V  V50  1  0.87491304  0.75108446  0.11508927  1
  V  V51  1  -0.00217862  0.62068520  0.62634309  1
  V  V52  1  0.62443132  0.24630714  0.38631413  1
  V  V53  1  0.87715424  0.87763825  0.49800616  1
  V  V54  1  0.25044856  0.11494034  0.38072521  1
  V  V55  1  0.50574422  0.62394656  0.62678066  1
  V  V56  1  0.87916466  0.75111917  0.62046405  1
  V  V57  1  0.37096760  0.24216497  0.62991682  1
  V  V58  1  0.62495180  0.37188811  0.74441117  1
  V  V59  1  0.25030031  0.87796179  0.62287992  1
  V  V60  1  0.80908302  0.31612380  0.06389972  1
  V  V61  1  0.24812191  0.36567239  0.11909344  1
  V  V62  1  0.62993276  0.25136236  0.87720775  1
  V  V63  1  0.49706074  0.23611168  0.75178296  1
  V  V64  1  0.24727871  0.75137603  -0.01423325  1
  V  V65  1  0.87881942  0.00109967  0.87429879  1
  V  V66  1  0.37194981  0.49742876  0.37321633  1
  V  V67  1  0.49660608  0.24388661  0.24173589  1
  V  V68  1  0.13444647  0.50053748  0.63301252  1
  V  V69  1  0.36948662  0.11716446  0.24199850  1
  V  V70  1  0.12330485  0.62175587  0.50090008  1
  V  V71  1  0.49767135  0.37225441  0.37295901  1
  V  V72  1  0.75331123  0.12696135  0.87655511  1
  V  V73  1  0.75421705  0.49125666  0.74660413  1
  V  V74  1  0.25104933  0.74953861  0.49871687  1
  V  V75  1  0.37451209  0.87921538  -0.00179731  1
  V  V76  1  0.13345283  0.24442290  0.87918969  1
  V  V77  1  0.26816861  0.11782041  0.87702518  1
  V  V78  1  0.12756915  0.88198473  0.25076071  1
  V  V79  1  0.75047841  0.49476056  0.24443603  1
  V  V80  1  0.24662206  0.61712094  0.37026676  1
  V  V81  1  0.74721805  0.12997616  0.38984809  1
  V  V82  1  0.00850042  0.74858811  0.75377042  1
  V  V83  1  0.62724632  0.13046128  0.00283170  1
  V  V84  1  0.75263944  0.87641997  0.62623918  1
  Zn  Zn85  1  0.24196383  0.24383749  0.50601293  1
  Zn  Zn86  1  0.37303042  0.24479793  0.11854687  1
  Zn  Zn87  1  0.62523870  0.62434745  0.49816077  1
  Zn  Zn88  1  0.38027211  0.74883715  0.62370578  1
  Zn  Zn89  1  0.00081369  0.62322309  0.12395260  1
  Zn  Zn90  1  0.75367261  0.00286858  0.74929719  1
  Zn  Zn91  1  0.25229852  0.37575090  0.63207084  1
  Zn  Zn92  1  0.49519508  0.75419198  0.25444427  1
  Zn  Zn93  1  0.00197108  0.00330714  0.00113207  1
  Zn  Zn94  1  0.27655718  0.01715404  0.74451382  1
  Zn  Zn95  1  0.12942739  0.13192911  0.00481191  1
  Zn  Zn96  1  0.88102661  0.13235058  0.75337532  1
  Zn  Zn97  1  0.87545859  0.87457135  -0.00279319  1
  Zn  Zn98  1  0.13014795  0.01056709  0.62076197  1
  Zn  Zn99  1  0.74603888  0.62957958  0.88702241  1
  Zn  Zn100  1  0.62611022  0.65974052  -0.01636424  1
  Zn  Zn101  1  0.24457790  0.62761672  0.86645706  1
  Zn  Zn102  1  0.36848038  0.37267330  -0.00356494  1
  Zn  Zn103  1  0.50994339  -0.00133820  0.48786969  1
  Zn  Zn104  1  -0.00070531  0.49393648  0.49796625  1
  Zn  Zn105  1  0.38243808  -0.00704750  0.36698332  1
  Zn  Zn106  1  0.49854616  0.50422470  -0.00435912  1
  Zn  Zn107  1  0.18803709  0.18998743  0.19703056  1
  Zn  Zn108  1  0.18566844  0.19108289  0.69697730  1
  Zn  Zn109  1  0.18585999  0.68947607  0.18342725  1
  Zn  Zn110  1  0.18783918  0.69181630  0.68565125  1
  Zn  Zn111  1  0.69187091  0.19085035  0.19078676  1
  Zn  Zn112  1  0.68613936  0.18320511  0.68946109  1
  Zn  Zn113  1  0.67596730  0.70148230  0.15783193  1
  Zn  Zn114  1  0.69997310  0.69533502  0.71270991  1
  Zn  Zn115  1  0.30824594  0.30745155  0.31031262  1
  Zn  Zn116  1  0.30946213  0.30956710  0.81160878  1
  Zn  Zn117  1  0.30953052  0.80876360  0.31244362  1
  Zn  Zn118  1  0.33111629  0.84140194  0.79666622  1
  Zn  Zn119  1  0.81021808  0.31175264  0.31416156  1
  Zn  Zn120  1  0.81180914  0.31354851  0.81472793  1
  Zn  Zn121  1  0.80768567  0.81691874  0.30691240  1
  Zn  Zn122  1  0.82118084  0.81403710  0.80991428  1
  Zn  Zn123  1  0.18605919  0.43622297  0.44262728  1
  Zn  Zn124  1  0.18376650  0.43867629  0.93806059  1
  Zn  Zn125  1  0.18854933  0.93865412  0.43698979  1
  Zn  Zn126  1  0.18756086  0.94391211  0.93768265  1
  Zn  Zn127  1  0.68951523  0.43395933  0.43504736  1
  Zn  Zn128  1  0.69089020  0.43982531  0.93601615  1
  Zn  Zn129  1  0.69024084  0.93769463  0.43632202  1
  Zn  Zn130  1  0.68873431  0.94167040  0.93860008  1
  Zn  Zn131  1  0.30799905  0.06423678  0.05778803  1
  Zn  Zn132  1  0.31702016  0.06014373  0.55918679  1
  Zn  Zn133  1  0.30889527  0.55829868  0.05600590  1
  Zn  Zn134  1  0.31467367  0.56323087  0.56243710  1
  Zn  Zn135  1  0.81177536  0.06407850  0.05730440  1
  Zn  Zn136  1  0.81918963  0.06587563  0.56418283  1
  Zn  Zn137  1  0.80943710  0.56331180  0.06030389  1
  Zn  Zn138  1  0.81010149  0.55959783  0.56171543  1
  Zn  Zn139  1  0.43536954  0.43661134  0.18785710  1
  Zn  Zn140  1  0.43848948  0.43638319  0.68998879  1
  Zn  Zn141  1  0.43943370  0.94156700  0.18436866  1
  Zn  Zn142  1  0.44119455  0.93718036  0.68161698  1
  Zn  Zn143  1  0.93972045  0.43136973  0.18681856  1
  Zn  Zn144  1  0.93899179  0.43180904  0.68825493  1
  Zn  Zn145  1  0.93814631  0.94145170  0.18728155  1
  Zn  Zn146  1  0.94147435  0.94267089  0.68774057  1
  Zn  Zn147  1  0.06331404  0.06779265  0.31034173  1
  Zn  Zn148  1  0.06360932  0.06333428  0.80834691  1
  Zn  Zn149  1  0.06090440  0.56125457  0.30901593  1
  Zn  Zn150  1  0.05790861  0.55838682  0.81239822  1
  Zn  Zn151  1  0.55923153  0.06599952  0.31512447  1
  Zn  Zn152  1  0.56355079  0.05906749  0.81339276  1
  Zn  Zn153  1  0.56123321  0.56238389  0.30658078  1
  Zn  Zn154  1  0.56612021  0.56161077  0.81659049  1
  Zn  Zn155  1  0.43329246  0.18673272  0.43404911  1
  Zn  Zn156  1  0.43741638  0.19238037  0.94170191  1
  Zn  Zn157  1  0.43800007  0.68595545  0.43684313  1
  Zn  Zn158  1  0.43639437  0.68889445  0.93734517  1
  Zn  Zn159  1  0.93684429  0.19057255  0.43847501  1
  Zn  Zn160  1  0.93687307  0.18991534  0.94723875  1
  Zn  Zn161  1  0.93700760  0.68305188  0.43630869  1
  Zn  Zn162  1  0.93989090  0.68406852  0.93635606  1
  Zn  Zn163  1  0.06011537  0.31182914  0.06421509  1
  Zn  Zn164  1  0.05609411  0.31972504  0.56073761  1
  Zn  Zn165  1  0.06415844  0.81274845  0.06158160  1
  Zn  Zn166  1  0.06432776  0.81404990  0.56182475  1
  Zn  Zn167  1  0.56262470  0.31398431  0.06144838  1
  Zn  Zn168  1  0.55671287  0.31092741  0.56369490  1
  Zn  Zn169  1  0.55693704  0.81970505  0.07018173  1
  Zn  Zn170  1  0.56843439  0.80935684  0.56672481  1
  O  O171  1  0.13101508  0.11505488  0.12946337  1
  O  O172  1  0.11383751  0.12981676  0.62619540  1
  O  O173  1  0.12373196  0.61720046  0.11789122  1
  O  O174  1  0.11870535  0.61885190  0.62283789  1
  O  O175  1  0.63289055  0.11777954  0.11768133  1
  O  O176  1  0.61574295  0.11427530  0.63022944  1
  O  O177  1  0.60930653  0.60827496  0.14412542  1
  O  O178  1  0.61523142  0.61460098  0.62552002  1
  O  O179  1  0.37623077  0.37702695  0.38074346  1
  O  O180  1  0.38069940  0.38175292  0.87041173  1
  O  O181  1  0.36747403  0.87192530  0.38856359  1
  O  O182  1  0.38724206  0.86823893  0.89454625  1
  O  O183  1  0.87175767  0.38116370  0.38484203  1
  O  O184  1  0.88328459  0.38588272  0.86887515  1
  O  O185  1  0.87906441  0.88370537  0.37868773  1
  O  O186  1  0.88589960  0.88217034  0.87542521  1
  O  O187  1  0.25392033  0.01120376  0.37594581  1
  O  O188  1  0.24821570  0.01428412  0.87078859  1
  O  O189  1  0.25342251  0.51121660  0.38137891  1
  O  O190  1  0.26106403  0.50298033  0.87737448  1
  O  O191  1  0.75578571  0.00991408  0.37039735  1
  O  O192  1  0.75966414  0.00790005  0.87394966  1
  O  O193  1  0.75552972  0.50718685  0.36565216  1
  O  O194  1  0.75849897  0.50143193  0.86341251  1
  O  O195  1  0.23676743  0.49347422  0.12320572  1
  O  O196  1  0.23798990  0.49991665  0.62098732  1
  O  O197  1  0.24370617  0.98732189  0.12206603  1
  O  O198  1  0.24951600  0.99274751  0.62674489  1
  O  O199  1  0.74085453  0.50457834  0.13844427  1
  O  O200  1  0.73533517  0.49061106  0.62181775  1
  O  O201  1  0.74735101  0.99745610  0.13179138  1
  O  O202  1  0.74696690  0.99566722  0.62693759  1
  O  O203  1  0.01469512  0.36125203  0.24381925  1
  O  O204  1  0.01224633  0.38160164  0.76252107  1
  O  O205  1  0.00585183  0.87012220  0.25594172  1
  O  O206  1  0.00969195  0.86996581  0.75376484  1
  O  O207  1  0.50338405  0.36832366  0.25696232  1
  O  O208  1  0.50617763  0.36557027  0.75887320  1
  O  O209  1  0.51404023  0.87405308  0.24240832  1
  O  O210  1  0.51006278  0.86816078  0.75957026  1
  O  O211  1  0.48319777  0.13329622  0.25426441  1
  O  O212  1  0.50329078  0.13322467  0.74624427  1
  O  O213  1  0.48679934  0.62726903  0.24106702  1
  O  O214  1  0.49531859  0.63078901  0.74494262  1
  O  O215  1  1.00425201  0.13687233  0.23814768  1
  O  O216  1  0.99786666  0.12214926  0.73246290  1
  O  O217  1  0.99366397  0.63475019  0.24791616  1
  O  O218  1  0.99195162  0.63227497  0.74543068  1
  O  O219  1  0.38370612  0.26110630  0.00798381  1
  O  O220  1  0.37566792  0.25602600  0.51223165  1
  O  O221  1  0.36766242  0.75529156  0.00927099  1
  O  O222  1  0.36731896  0.75536385  0.49797263  1
  O  O223  1  0.86877719  0.25624583  0.00604554  1
  O  O224  1  0.87359990  0.25897973  0.50777492  1
  O  O225  1  0.87934676  0.75098488  0.01150083  1
  O  O226  1  0.87173059  0.75471420  0.50301262  1
  O  O227  1  0.12308461  0.26223707  0.48429554  1
  O  O228  1  0.12149170  0.25270393  0.98354045  1
  O  O229  1  0.13099523  0.74338216  0.49322253  1
  O  O230  1  0.13446560  0.74006743  1.00621823  1
  O  O231  1  0.61951853  0.25796230  0.48553557  1
  O  O232  1  0.61659867  0.23838053  0.99204548  1
  O  O233  1  0.63367261  0.74897876  0.49073773  1
  O  O234  1  0.63452972  0.74429724  1.05582326  1
  O  O235  1  0.50059375  0.25402873  0.13918451  1
  O  O236  1  0.49477015  0.24013733  0.63261562  1
  O  O237  1  0.48162131  0.74359415  0.12986060  1
  O  O238  1  0.50243587  0.73885974  0.63207984  1
  O  O239  1  1.00681988  0.23817578  0.13715255  1
  O  O240  1  0.99370264  0.24168779  0.62162965  1
  O  O241  1  0.99257039  0.75147452  0.13344904  1
  O  O242  1  0.99982187  0.73791472  0.62574837  1
  O  O243  1  0.00953628  0.23798712  0.36124304  1
  O  O244  1  0.00320326  0.26129189  0.88005828  1
  O  O245  1  0.00442808  0.75479748  0.36896096  1
  O  O246  1  -0.00525374  0.75919395  0.86472097  1
  O  O247  1  0.50498224  0.25351244  0.36715124  1
  O  O248  1  0.50963327  0.25398226  0.86701254  1
  O  O249  1  0.51674217  0.74095242  0.37250241  1
  O  O250  1  0.50086875  0.76186952  0.87165008  1
  O  O251  1  0.25524134  0.12586790  0.48594412  1
  O  O252  1  0.24575079  0.12402377  0.98385791  1
  O  O253  1  0.24516906  0.63163376  0.49319309  1
  O  O254  1  0.24270398  0.63438099  0.99604407  1
  O  O255  1  0.74848847  0.11941326  0.48825357  1
  O  O256  1  0.74023283  0.12155340  0.98730133  1
  O  O257  1  0.74812725  0.63042462  0.49031429  1
  O  O258  1  0.73921341  0.62370784  0.99962917  1
  O  O259  1  0.24623825  0.37880501  0.01557838  1
  O  O260  1  0.26167938  0.37200543  0.50381517  1
  O  O261  1  0.25624034  0.87133694  0.00552549  1
  O  O262  1  0.25254567  0.86765152  0.50585903  1
  O  O263  1  0.74588522  0.36939705  0.00291337  1
  O  O264  1  0.76740405  0.38067858  0.49868319  1
  O  O265  1  0.75243845  0.88082430  0.01418291  1
  O  O266  1  0.75857085  0.86871591  0.50504350  1
  O  O267  1  0.11816711  0.48654065  0.24346673  1
  O  O268  1  0.12277011  0.49435437  0.74214787  1
  O  O269  1  0.12048724  0.98822595  0.24468341  1
  O  O270  1  0.12701638  0.98820097  0.74417784  1
  O  O271  1  0.63123726  0.48955558  0.24677400  1
  O  O272  1  0.62961431  0.48959602  0.74267022  1
  O  O273  1  0.63041653  1.00002144  0.24341107  1
  O  O274  1  0.62697877  0.99066372  0.74099112  1
  O  O275  1  0.37574874  0.01244690  0.24797303  1
  O  O276  1  0.36295532  -0.05146214  0.75744734  1
  O  O277  1  0.37481023  0.51116614  0.25645755  1
  O  O278  1  0.37980721  0.51164030  0.75648615  1
  O  O279  1  0.86858395  -0.00346284  0.26333921  1
  O  O280  1  0.87575600  0.00321683  0.76244837  1
  O  O281  1  0.86840505  0.50110735  0.25545303  1
  O  O282  1  0.86895145  0.50239859  0.75467577  1
  O  O283  1  0.12999516  0.37161685  0.36362701  1
  O  O284  1  0.12018481  0.36819899  0.87127147  1
  O  O285  1  0.12029086  0.87032258  0.36762122  1
  O  O286  1  0.11661479  0.87940623  0.86623925  1
  O  O287  1  0.61836217  0.36904039  0.36581130  1
  O  O288  1  0.61989361  0.36944905  0.86514265  1
  O  O289  1  0.63446263  0.86590262  0.36496211  1
  O  O290  1  0.62386051  0.87767142  0.86575460  1
  O  O291  1  0.36508557  0.12582009  0.13820965  1
  O  O292  1  0.38389136  0.13020484  0.62490850  1
  O  O293  1  0.37416320  0.62802769  0.13003885  1
  O  O294  1  0.38744430  0.62446739  0.63091780  1
  O  O295  1  0.88509436  0.12101946  0.12691770  1
  O  O296  1  0.88167789  0.14002807  0.62650756  1
  O  O297  1  0.87711880  0.63402030  0.13191948  1
  O  O298  1  0.88183290  0.63074717  0.62812118  1
  O  O299  1  0.24646027  0.26291962  0.12692178  1
  O  O300  1  0.25734238  0.25001978  0.62484126  1
  O  O301  1  0.25654234  0.75951903  0.11828910  1
  O  O302  1  0.25175660  0.75281745  0.60909183  1
  O  O303  1  0.75296388  0.25812764  0.12737226  1
  O  O304  1  0.75941032  0.24552389  0.62550693  1
  O  O305  1  0.76891393  0.76760897  0.14520797  1
  O  O306  1  0.75886280  0.75627638  0.62176173  1
  O  O307  1  0.24286373  0.24037354  0.37939237  1
  O  O308  1  0.23934504  0.23985188  0.87414472  1
  O  O309  1  0.24206373  0.74082113  0.38288144  1
  O  O310  1  0.25738160  0.75330006  0.88562307  1
  O  O311  1  0.74195385  0.23673584  0.37110160  1
  O  O312  1  0.73684733  0.24466002  0.87071246  1
  O  O313  1  0.74368533  0.74241728  0.37629556  1
  O  O314  1  0.77702706  0.71043653  0.80921121  1
  O  O315  1  0.00561259  0.12658496  0.01877667  1
  O  O316  1  -0.00529733  0.12066463  0.51275167  1
  O  O317  1  0.00799210  0.61617253  0.00221172  1
  O  O318  1  0.00579309  0.62215762  0.50861334  1
  O  O319  1  0.50930758  0.11379018  -0.00860360  1
  O  O320  1  0.49793590  0.12410944  0.50985541  1
  O  O321  1  0.50240353  0.62690553  0.01357019  1
  O  O322  1  0.50211669  0.61840616  0.50829456  1
  O  O323  1  0.48776480  0.37870723  0.49405484  1
  O  O324  1  0.50426457  0.37723605  0.98286582  1
  O  O325  1  0.48828657  0.86761426  0.50374617  1
  O  O326  1  0.49567033  0.88309823  0.99769257  1
  O  O327  1  0.97924790  0.38095456  0.50327525  1
  O  O328  1  1.00767036  0.38662356  0.99220916  1
  O  O329  1  0.99523232  0.88220287  0.49319581  1
  O  O330  1  1.00029553  0.87696109  0.99037371  1
  O  O331  1  0.49327227  0.49446286  0.37875354  1
  O  O332  1  0.49169218  0.49140960  0.87314693  1
  O  O333  1  0.49676615  0.99874604  0.37656978  1
  O  O334  1  0.50672293  0.98585371  0.88435950  1
  O  O335  1  0.98334984  0.50742578  0.37424366  1
  O  O336  1  0.99426291  0.49067807  0.88348840  1
  O  O337  1  0.99292895  1.00193194  0.37914877  1
  O  O338  1  0.99638881  0.99333021  0.87557803  1
  O  O339  1  0.00765987  0.01440458  0.12883476  1
  O  O340  1  0.00025281  0.01222673  0.61540802  1
  O  O341  1  0.01026158  0.49894292  0.11876605  1
  O  O342  1  0.00457846  0.51198591  0.62801262  1
  O  O343  1  0.51160822  -0.00083199  0.11465337  1
  O  O344  1  0.50803510  0.00627867  0.62074220  1
  O  O345  1  0.50372544  0.50588933  0.12289497  1
  O  O346  1  0.50833787  0.50416285  0.62040210  1
  O  O347  1  0.23516376  0.37260591  0.24177324  1
  O  O348  1  0.23473445  0.37299703  0.75006726  1
  O  O349  1  0.23904274  0.86672164  0.24094576  1
  O  O350  1  0.23622909  0.85449109  0.73048191  1
  O  O351  1  0.73870875  0.38300615  0.25791472  1
  O  O352  1  0.73965886  0.38170112  0.75080085  1
  O  O353  1  0.74130136  0.89067579  0.24389078  1
  O  O354  1  0.74501549  0.87738354  0.74535529  1
  O  O355  1  0.26347564  0.12965211  0.26172117  1
  O  O356  1  0.24790326  0.12528363  0.76743698  1
  O  O357  1  0.25376097  0.63123789  0.25931250  1
  O  O358  1  0.26647561  0.63683560  0.74861658  1
  O  O359  1  0.74773134  0.11407879  0.25858279  1
  O  O360  1  0.75265969  0.12317637  0.76425264  1
  O  O361  1  0.75606128  0.61783036  0.25569781  1
  O  O362  1  0.75557600  0.59623043  0.72241922  1
  O  O363  1  0.36369738  0.12339236  0.36676782  1
  O  O364  1  0.36745899  0.12571730  0.87655184  1
  O  O365  1  0.36636752  0.62086969  0.36759403  1
  O  O366  1  0.37559264  0.61775076  0.86695711  1
  O  O367  1  0.86204482  0.12039824  0.37841411  1
  O  O368  1  0.87076384  0.12161973  0.87594416  1
  O  O369  1  0.86408330  0.61935094  0.36937319  1
  O  O370  1  0.88054797  0.60903497  0.86947929  1
  O  O371  1  0.13266700  0.37978813  0.13230981  1
  O  O372  1  0.12358275  0.38332987  0.63352652  1
  O  O373  1  0.13021793  0.88299536  0.13183078  1
  O  O374  1  0.13204594  0.88026243  0.62785406  1
  O  O375  1  0.61658203  0.38269125  0.13926404  1
  O  O376  1  0.61401264  0.37936237  0.63684363  1
  O  O377  1  0.63405148  0.89198909  0.13310873  1
  O  O378  1  0.63235235  0.87949099  0.63629984  1
  O  O379  1  0.12036368  0.26028351  0.26077134  1
  O  O380  1  0.12139252  0.25951575  0.76698243  1
  O  O381  1  0.11375114  0.75764615  0.25158378  1
  O  O382  1  0.11313888  0.75800787  0.74258127  1
  O  O383  1  0.61666485  0.25462552  0.25710171  1
  O  O384  1  0.61746084  0.25454555  0.75560897  1
  O  O385  1  0.62525906  0.76199108  0.25426820  1
  O  O386  1  0.61335717  0.76047875  0.74556181  1
  O  O387  1  0.38092194  0.24186523  0.24564806  1
  O  O388  1  0.38400100  0.25558062  0.73841972  1
  O  O389  1  0.37297862  0.73941964  0.24411041  1
  O  O390  1  0.39170273  0.74701260  0.74712682  1
  O  O391  1  0.89320773  0.25841736  0.25566117  1
  O  O392  1  0.87162073  0.25202422  0.73650914  1
  O  O393  1  0.88628657  0.74886065  0.24856217  1
  O  O394  1  0.89586807  0.75482279  0.73354643  1
  O  O395  1  0.37992422  0.49263075  0.49446565  1
  O  O396  1  0.37848299  0.49449280  0.98886355  1
  O  O397  1  0.37890067  0.98212100  0.49841677  1
  O  O398  1  0.38503108  0.99171521  1.00926836  1
  O  O399  1  0.87468921  0.49456008  0.49129050  1
  O  O400  1  0.88542411  0.50429430  0.99233121  1
  O  O401  1  0.88414353  0.99715907  0.48985215  1
  O  O402  1  0.88026150  0.99918393  0.98730784  1
  O  O403  1  0.12136612  0.00272692  0.01337104  1
  O  O404  1  0.11090910  -0.00277339  0.49900415  1
  O  O405  1  0.11870197  0.50803603  0.00742886  1
  O  O406  1  0.12000941  0.50491987  0.50909550  1
  O  O407  1  0.61995086  0.00981250  0.00704065  1
  O  O408  1  0.62525314  -0.01186620  0.51557184  1
  O  O409  1  0.62173253  0.49431240  0.01443981  1
  O  O410  1  0.61821191  0.49823818  0.50473798  1
  O  O411  1  0.35465686  0.37872563  0.13028795  1
  O  O412  1  0.37511893  0.36807662  0.61861747  1
  O  O413  1  0.36833864  0.86812336  0.12063147  1
  O  O414  1  0.36690482  0.86791386  0.60872977  1
  O  O415  1  0.86729337  0.38072948  0.11890588  1
  O  O416  1  0.87557982  0.36125541  0.61843505  1
  O  O417  1  0.87068786  0.87173798  0.12294265  1
  O  O418  1  0.87407152  0.87243546  0.61802048  1
  O  O419  1  0.14113530  0.13117315  0.36743763  1
  O  O420  1  0.11910039  0.13845401  0.87682919  1
  O  O421  1  0.12958430  0.62761788  0.37810686  1
  O  O422  1  0.12596873  0.61972436  0.88586747  1
  O  O423  1  0.63708863  0.13245681  0.37261308  1
  O  O424  1  0.63162686  0.13135865  0.88063783  1
  O  O425  1  0.63583692  0.62918371  0.37136027  1
  O  O426  1  0.62870138  0.63183808  0.87428687  1
