# generated using pymatgen
data_V85Zn86O256
_symmetry_space_group_name_H-M   'P 1'
_cell_length_a   16.94135230
_cell_length_b   16.93507172
_cell_length_c   16.95863750
_cell_angle_alpha   90.06430822
_cell_angle_beta   89.99663308
_cell_angle_gamma   90.00731161
_symmetry_Int_Tables_number   1
_chemical_formula_structural   V85Zn86O256
_chemical_formula_sum   'V85 Zn86 O256'
_cell_volume   4865.48113739
_cell_formula_units_Z   1
loop_
 _symmetry_equiv_pos_site_id
 _symmetry_equiv_pos_as_xyz
  1  'x, y, z'
loop_
 _atom_site_type_symbol
 _atom_site_label
 _atom_site_symmetry_multiplicity
 _atom_site_fract_x
 _atom_site_fract_y
 _atom_site_fract_z
 _atom_site_occupancy
  V  V0  1  0.37723464  0.74846766  0.62472358  1
  V  V1  1  0.87606686  0.37671247  0.00042651  1
  V  V2  1  0.12745997  0.49833032  0.62650183  1
  V  V3  1  0.62779659  0.76685979  0.37333722  1
  V  V4  1  0.37478663  -0.00083644  0.85553461  1
  V  V5  1  0.12074815  0.75079916  0.37426665  1
  V  V6  1  0.38294760  0.12177700  0.24642212  1
  V  V7  1  0.50323238  0.00167568  0.49672647  1
  V  V8  1  0.88412990  0.75606520  0.12737825  1
  V  V9  1  0.87871168  0.00112252  0.37897805  1
  V  V10  1  0.74340163  0.87943391  0.12894890  1
  V  V11  1  0.62095106  0.62805801  0.00289875  1
  V  V12  1  0.87559857  0.62586054  0.75221716  1
  V  V13  1  0.38102796  0.24433543  0.12403449  1
  V  V14  1  0.24637822  0.49825669  0.25214566  1
  V  V15  1  0.49933329  0.50321531  0.00587852  1
  V  V16  1  0.63207077  0.00579630  0.62732320  1
  V  V17  1  0.87601373  0.24651164  0.12405617  1
  V  V18  1  0.87237595  0.50318497  0.37131476  1
  V  V19  1  0.37731057  0.50000272  0.37636218  1
  V  V20  1  0.01110430  0.11420031  0.12240941  1
  V  V21  1  0.00453413  0.37628648  0.37164235  1
  V  V22  1  0.86759927  0.74886399  0.61705829  1
  V  V23  1  0.00206625  0.74850584  0.74997898  1
  V  V24  1  0.37637342  0.36654146  0.50370097  1
  V  V25  1  0.12222365  0.87179386  0.24260252  1
  V  V26  1  0.74619963  0.37830449  0.62386540  1
  V  V27  1  -0.00325948  0.23758862  0.74912098  1
  V  V28  1  0.38665354  0.62948005  0.23854568  1
  V  V29  1  0.62382315  0.37597555  0.25072602  1
  V  V30  1  0.61240875  0.00603970  0.12643690  1
  V  V31  1  0.62325951  0.50283681  0.12722999  1
  V  V32  1  0.87775619  0.50202567  0.87700510  1
  V  V33  1  0.74361209  -0.00028975  0.25088057  1
  V  V34  1  0.87355502  0.63493350  0.24929379  1
  V  V35  1  0.12910569  0.62452231  0.49984903  1
  V  V36  1  0.62638184  0.36582514  0.74991132  1
  V  V37  1  0.24438986  -0.00574021  0.23636459  1
  V  V38  1  0.74142492  0.50075385  0.75019815  1
  V  V39  1  0.61591622  0.75565055  0.87487497  1
  V  V40  1  0.63301944  0.63300778  0.50527023  1
  V  V41  1  0.37705545  0.62439237  0.75066925  1
  V  V42  1  0.10972115  0.12048282  0.49721151  1
  V  V43  1  0.61406215  0.12945422  -0.00114846  1
  V  V44  1  0.74950236  0.12805905  0.37417982  1
  V  V45  1  0.00239787  0.49939623  0.49970476  1
  V  V46  1  0.24982936  0.36400749  0.62477199  1
  V  V47  1  0.00357958  0.62502617  0.62605263  1
  V  V48  1  0.12047427  0.37065653  0.76041290  1
  V  V49  1  0.87392245  0.00201097  0.86383623  1
  V  V50  1  0.00143051  0.87949464  0.87532502  1
  V  V51  1  0.12731102  0.25300001  0.37132967  1
  V  V52  1  0.87449169  0.88751068  -0.00148761  1
  V  V53  1  0.13235872  0.87832511  0.74628317  1
  V  V54  1  0.23606387  0.24345513  -0.00543392  1
  V  V55  1  0.24597338  0.37106704  0.13094369  1
  V  V56  1  0.48741566  0.24811162  0.74808266  1
  V  V57  1  0.00420313  0.25473349  0.24751619  1
  V  V58  1  0.75057688  0.62885397  0.87725457  1
  V  V59  1  0.13378150  0.74999190  0.87285782  1
  V  V60  1  0.62462862  0.88681413  0.75585459  1
  V  V61  1  0.37375983  0.37167468  0.00184298  1
  V  V62  1  0.50686607  0.36916992  0.87707271  1
  V  V63  1  0.25521643  0.88689679  0.62505979  1
  V  V64  1  0.38200934  0.87307114  0.49747489  1
  V  V65  1  0.74559121  0.12155619  0.86829038  1
  V  V66  1  0.87557214  0.37664191  0.50107678  1
  V  V67  1  0.37633451  0.49567133  0.87672508  1
  V  V68  1  0.74930543  0.75441837  0.00040477  1
  V  V69  1  0.12280518  0.49867911  0.12836052  1
  V  V70  1  0.12442065  0.62961209  0.00301673  1
  V  V71  1  0.38063737  0.87889491  0.00719163  1
  V  V72  1  0.48507746  0.12947459  0.62567748  1
  V  V73  1  0.74608986  0.24912067  -0.00861666  1
  V  V74  1  0.25821151  0.75436815  0.01755728  1
  V  V75  1  0.25511918  0.62819863  0.37533474  1
  V  V76  1  0.25190511  0.49363427  0.75147225  1
  V  V77  1  0.24830076  0.11985107  0.37478327  1
  V  V78  1  0.00115011  0.87870158  0.37964745  1
  V  V79  1  0.75006987  0.37450624  0.12532386  1
  V  V80  1  0.37691184  -0.00808041  0.37217714  1
  V  V81  1  0.50717659  0.50104781  0.50949193  1
  V  V82  1  0.10854386  0.00016502  0.61710249  1
  V  V83  1  0.50085709  0.37485683  0.37610466  1
  V  V84  1  0.62551275  0.24696043  0.37558984  1
  Zn  Zn85  1  0.75179487  0.63731539  0.37766018  1
  Zn  Zn86  1  0.87965381  0.24595534  0.62137851  1
  Zn  Zn87  1  0.50545341  0.62221516  0.62800657  1
  Zn  Zn88  1  0.49825372  -0.00137658  -0.00820053  1
  Zn  Zn89  1  0.25293178  0.24387273  0.50051170  1
  Zn  Zn90  1  0.25286916  0.75166577  0.49963429  1
  Zn  Zn91  1  0.25266150  0.62382938  0.87712518  1
  Zn  Zn92  1  0.00002731  0.50430102  0.00327320  1
  Zn  Zn93  1  0.74946323  0.50571673  0.25029252  1
  Zn  Zn94  1  0.50388846  0.24140590  0.24651601  1
  Zn  Zn95  1  0.86807341  0.11746981  0.73554052  1
  Zn  Zn96  1  0.23809310  0.10973786  0.86476772  1
  Zn  Zn97  1  0.74842451  0.87696282  0.62534149  1
  Zn  Zn98  1  0.00484976  0.63606111  0.13342039  1
  Zn  Zn99  1  0.62274025  0.13104213  0.50397309  1
  Zn  Zn100  1  0.50071975  0.76767375  0.24702909  1
  Zn  Zn101  1  0.49897798  0.75377349  0.75282502  1
  Zn  Zn102  1  0.00219151  0.36830277  0.87839270  1
  Zn  Zn103  1  0.87594270  0.12439473  0.24835749  1
  Zn  Zn104  1  0.74980905  0.25177020  0.50148586  1
  Zn  Zn105  1  0.87398986  0.87440436  0.49847608  1
  Zn  Zn106  1  0.07835592  0.05528285  -0.02727430  1
  Zn  Zn107  1  0.18928905  0.18427495  0.18707395  1
  Zn  Zn108  1  0.17610137  0.18037279  0.68661582  1
  Zn  Zn109  1  0.18939478  0.68751837  0.19223679  1
  Zn  Zn110  1  0.19559015  0.68833972  0.68731578  1
  Zn  Zn111  1  0.68690152  0.18633582  0.18590610  1
  Zn  Zn112  1  0.68613237  0.19058152  0.68502117  1
  Zn  Zn113  1  0.65625047  0.70734881  0.17355620  1
  Zn  Zn114  1  0.68464847  0.68798648  0.69044334  1
  Zn  Zn115  1  0.31378184  0.31055875  0.31214106  1
  Zn  Zn116  1  0.28434749  0.26725773  0.78876981  1
  Zn  Zn117  1  0.31442547  0.81136704  0.30708094  1
  Zn  Zn118  1  0.31724456  0.81901711  0.81584217  1
  Zn  Zn119  1  0.81353348  0.31477783  0.31072342  1
  Zn  Zn120  1  0.81675747  0.31161220  0.81211768  1
  Zn  Zn121  1  0.80537413  0.81290372  0.31512638  1
  Zn  Zn122  1  0.80771614  0.81610158  0.80852032  1
  Zn  Zn123  1  0.18966924  0.43534439  0.43778021  1
  Zn  Zn124  1  0.19002407  0.43592735  0.94256479  1
  Zn  Zn125  1  0.19077077  0.93600483  0.43818969  1
  Zn  Zn126  1  0.19869128  0.93509596  0.93528001  1
  Zn  Zn127  1  0.68691340  0.44228011  0.43838850  1
  Zn  Zn128  1  0.68802366  0.43802623  0.93721062  1
  Zn  Zn129  1  0.69657633  0.93831571  0.44849938  1
  Zn  Zn130  1  0.68593149  0.94355823  0.93846173  1
  Zn  Zn131  1  0.31007422  0.06485186  0.05678046  1
  Zn  Zn132  1  0.31020931  0.06210342  0.55919761  1
  Zn  Zn133  1  0.30881879  0.56352512  0.06328479  1
  Zn  Zn134  1  0.31617499  0.55681686  0.56322891  1
  Zn  Zn135  1  0.80938812  0.06571318  0.06033322  1
  Zn  Zn136  1  0.81278102  0.06450667  0.55763813  1
  Zn  Zn137  1  0.81023918  0.56684705  0.06710058  1
  Zn  Zn138  1  0.81227190  0.56162890  0.56537530  1
  Zn  Zn139  1  0.43533490  0.43741463  0.18895886  1
  Zn  Zn140  1  0.43621964  0.43141161  0.68765082  1
  Zn  Zn141  1  0.42960794  0.93654841  0.18001003  1
  Zn  Zn142  1  0.44774494  0.93673122  0.68522722  1
  Zn  Zn143  1  0.93931939  0.43867292  0.18869115  1
  Zn  Zn144  1  0.93636557  0.43635375  0.68825755  1
  Zn  Zn145  1  0.93443854  0.93560941  0.19576018  1
  Zn  Zn146  1  0.93869798  0.93300506  0.68925009  1
  Zn  Zn147  1  0.06158939  0.06265566  0.30642791  1
  Zn  Zn148  1  0.06416962  0.05968398  0.80353833  1
  Zn  Zn149  1  0.05983015  0.56719346  0.31016558  1
  Zn  Zn150  1  0.06409818  0.56054306  0.81535649  1
  Zn  Zn151  1  0.56230707  -0.06021196  0.31261804  1
  Zn  Zn152  1  0.55531731  0.06692200  0.81601497  1
  Zn  Zn153  1  0.56612654  0.56624267  0.32177265  1
  Zn  Zn154  1  0.56176735  0.56379866  0.81702099  1
  Zn  Zn155  1  0.43933614  0.18365811  0.43201160  1
  Zn  Zn156  1  0.42802926  0.18478477  0.92970930  1
  Zn  Zn157  1  0.44678738  0.68909002  0.43365774  1
  Zn  Zn158  1  0.43653771  0.68542565  0.94092388  1
  Zn  Zn159  1  0.93451388  0.19036551  0.43475994  1
  Zn  Zn160  1  0.94018457  0.18570831  0.93394598  1
  Zn  Zn161  1  0.94265571  0.68694031  0.43517059  1
  Zn  Zn162  1  0.94105659  0.69504927  0.94164789  1
  Zn  Zn163  1  0.06063623  0.31559156  0.06545872  1
  Zn  Zn164  1  0.06427036  0.30850387  0.56357079  1
  Zn  Zn165  1  0.07962897  0.85180867  0.04185888  1
  Zn  Zn166  1  0.06135375  0.81191932  0.55978501  1
  Zn  Zn167  1  0.56192446  0.31172290  0.06313402  1
  Zn  Zn168  1  0.56449519  0.31372194  0.56632503  1
  Zn  Zn169  1  0.55469568  0.81545930  0.06904672  1
  Zn  Zn170  1  0.56374101  0.81368336  0.56624964  1
  O  O171  1  0.11121819  0.12370019  0.12789244  1
  O  O172  1  0.12541039  0.10869764  0.61357911  1
  O  O173  1  0.12511040  0.62129855  0.12104798  1
  O  O174  1  0.12510597  0.61864882  0.62105416  1
  O  O175  1  0.63163172  0.11672678  0.11360375  1
  O  O176  1  0.61560734  0.12090706  0.62513237  1
  O  O177  1  0.63714465  0.60689206  0.11793340  1
  O  O178  1  0.62277270  0.63031381  0.61241008  1
  O  O179  1  0.38079250  0.38055062  0.37949142  1
  O  O180  1  0.38893331  0.38813023  0.88141767  1
  O  O181  1  0.36825580  0.88424946  0.38302073  1
  O  O182  1  0.37308915  0.88712848  0.88621754  1
  O  O183  1  0.88216375  0.38383100  0.37971703  1
  O  O184  1  0.87397616  0.38578009  0.88444854  1
  O  O185  1  0.88459474  0.88209413  0.37058553  1
  O  O186  1  0.87594116  0.88215344  0.87850256  1
  O  O187  1  0.25803193  0.00475379  0.37032371  1
  O  O188  1  0.26521700  -0.00464889  0.87074527  1
  O  O189  1  0.25405453  0.50551977  0.36837963  1
  O  O190  1  0.26071997  0.49869801  0.87115328  1
  O  O191  1  0.75157609  0.00938450  0.36790429  1
  O  O192  1  0.75909922  0.01081323  0.87861982  1
  O  O193  1  0.76469546  0.50019576  0.37397975  1
  O  O194  1  0.75994188  0.50652707  0.87172523  1
  O  O195  1  0.24181754  0.49474261  0.13290902  1
  O  O196  1  0.24647688  0.48999400  0.63243517  1
  O  O197  1  0.25024280  1.00351872  0.13871135  1
  O  O198  1  0.24495566  0.98886071  0.62126286  1
  O  O199  1  0.74281628  0.49035467  0.12552259  1
  O  O200  1  0.75733246  0.49013809  0.63876745  1
  O  O201  1  0.74632117  0.99762139  0.13232417  1
  O  O202  1  0.73453366  1.00617042  0.62376171  1
  O  O203  1  -0.00163973  0.36299522  0.25439435  1
  O  O204  1  0.00879862  0.37891957  0.75522403  1
  O  O205  1  0.01547295  0.87801410  0.25996447  1
  O  O206  1  0.01175874  0.86648192  0.75419093  1
  O  O207  1  0.51127872  0.37621398  0.25593719  1
  O  O208  1  0.50884740  0.37207444  0.75663683  1
  O  O209  1  0.48847067  0.88090898  0.25495762  1
  O  O210  1  0.51864734  0.87005045  0.74734580  1
  O  O211  1  0.48176717  0.12296420  0.25306267  1
  O  O212  1  0.49928561  0.14136520  0.74438753  1
  O  O213  1  0.48529338  0.61375999  0.25470146  1
  O  O214  1  0.48888143  0.62324052  0.74882832  1
  O  O215  1  0.99711771  0.13742026  0.24091960  1
  O  O216  1  0.99622874  0.13517749  0.74716284  1
  O  O217  1  0.98322538  0.62409132  0.24834251  1
  O  O218  1  0.99638335  0.62810933  0.74588069  1
  O  O219  1  0.37029562  0.25475739  0.00904520  1
  O  O220  1  0.37466852  0.26294695  0.49029970  1
  O  O221  1  0.36345192  0.75396657  -0.00585205  1
  O  O222  1  0.37824521  0.75633772  0.50521304  1
  O  O223  1  0.86998451  0.25818407  0.00562765  1
  O  O224  1  0.87264343  0.26654966  0.49655663  1
  O  O225  1  0.86158068  0.75571185  0.00577422  1
  O  O226  1  0.88282129  0.74477065  0.51551901  1
  O  O227  1  0.12548194  0.24062352  0.48778923  1
  O  O228  1  0.13761103  0.25803544  1.00493938  1
  O  O229  1  0.13023909  0.74226186  0.49368860  1
  O  O230  1  0.13815350  0.75056548  0.99232786  1
  O  O231  1  0.62812299  0.25363170  0.48999129  1
  O  O232  1  0.63602845  0.24430471  1.00777905  1
  O  O233  1  0.61832666  0.73858949  0.49552144  1
  O  O234  1  0.63471782  0.75149162  0.99276897  1
  O  O235  1  0.48532364  0.25639660  0.12911333  1
  O  O236  1  0.50477999  0.24439502  0.63719617  1
  O  O237  1  0.54584762  0.73764170  0.14491462  1
  O  O238  1  0.48714689  0.74742047  0.62794691  1
  O  O239  1  0.99425986  0.24600022  0.13118602  1
  O  O240  1  0.99707755  0.26071958  0.64207203  1
  O  O241  1  0.98395905  0.75695417  0.11867053  1
  O  O242  1  0.99684189  0.74261709  0.63192514  1
  O  O243  1  0.00606202  0.25500461  0.36572369  1
  O  O244  1  -0.00566032  0.25331187  0.85818304  1
  O  O245  1  0.01440669  0.75541025  0.37588153  1
  O  O246  1  0.01274253  0.75392757  0.86802520  1
  O  O247  1  0.50829409  0.25680327  0.37018909  1
  O  O248  1  0.49418405  0.25864112  0.86298480  1
  O  O249  1  0.52061553  0.74581152  0.36891059  1
  O  O250  1  0.51351346  0.74491507  0.87655990  1
  O  O251  1  0.24346130  0.12430937  0.48653179  1
  O  O252  1  0.24818807  0.13991949  0.99622763  1
  O  O253  1  0.24818654  0.62190831  0.48894162  1
  O  O254  1  0.24234248  0.63581316  0.99852883  1
  O  O255  1  0.74437886  0.12890757  0.48437319  1
  O  O256  1  0.74382441  0.13401094  0.99126764  1
  O  O257  1  0.73629367  0.61829357  0.50109696  1
  O  O258  1  0.74378695  0.63523589  0.99686164  1
  O  O259  1  0.25687159  0.37523946  0.01654764  1
  O  O260  1  0.25916941  0.37367510  0.50668740  1
  O  O261  1  0.26127939  0.85807040  -0.00216249  1
  O  O262  1  0.26399130  0.87363711  0.50746310  1
  O  O263  1  0.75832421  0.36953810  0.00382708  1
  O  O264  1  0.75730136  0.38086212  0.50820644  1
  O  O265  1  0.75678833  0.87117395  0.00397318  1
  O  O266  1  0.76165669  0.87796758  0.51347176  1
  O  O267  1  0.13819682  0.50811776  0.24501360  1
  O  O268  1  0.13301351  0.49428794  0.74579617  1
  O  O269  1  0.13648605  0.98770552  0.25468595  1
  O  O270  1  0.12158792  0.98869592  0.73052624  1
  O  O271  1  0.62544983  0.49515373  0.24434138  1
  O  O272  1  0.63760673  0.49439636  0.76000513  1
  O  O273  1  0.63539768  1.00112901  0.24245566  1
  O  O274  1  0.61848536  0.99298641  0.74565674  1
  O  O275  1  0.36235753  0.00345205  0.25483303  1
  O  O276  1  0.37757914  -0.00794819  0.75584402  1
  O  O277  1  0.36447019  0.50540894  0.25634239  1
  O  O278  1  0.37203160  0.50237363  0.75805537  1
  O  O279  1  0.86174904  0.00346668  0.25884965  1
  O  O280  1  0.87485819  -0.00147262  0.75880154  1
  O  O281  1  0.87443958  0.50568469  0.25764139  1
  O  O282  1  0.86744878  0.50576902  0.75976560  1
  O  O283  1  0.11863040  0.36492370  0.37996087  1
  O  O284  1  0.12333893  0.38486466  0.86378506  1
  O  O285  1  0.12108811  0.86833500  0.37247971  1
  O  O286  1  0.12413185  0.86694082  0.86128025  1
  O  O287  1  0.62328660  0.36931088  0.36786372  1
  O  O288  1  0.61356642  0.37981421  0.87007261  1
  O  O289  1  0.62432100  0.87235885  0.38584541  1
  O  O290  1  0.63098412  0.87082850  0.86500118  1
  O  O291  1  0.36592102  0.13397752  0.13304598  1
  O  O292  1  0.38547572  0.12408670  0.61837346  1
  O  O293  1  0.37305538  0.61831342  0.14038956  1
  O  O294  1  0.37512210  0.63116554  0.63251555  1
  O  O295  1  0.87736765  0.13788802  0.12463491  1
  O  O296  1  0.86648898  0.13299502  0.62416017  1
  O  O297  1  0.87564319  0.63799326  0.13119286  1
  O  O298  1  0.88224201  0.63140790  0.63138362  1
  O  O299  1  0.25503907  0.25639979  0.11996724  1
  O  O300  1  0.23899818  0.26134831  0.61813273  1
  O  O301  1  0.25179566  0.74620313  0.11523861  1
  O  O302  1  0.26321108  0.75752932  0.62128364  1
  O  O303  1  0.75866713  0.25527292  0.11785734  1
  O  O304  1  0.75077187  0.26677409  0.62291242  1
  O  O305  1  0.74957608  0.76190070  0.11686493  1
  O  O306  1  0.76681242  0.74388355  0.63081666  1
  O  O307  1  0.24255428  0.24090025  0.37369144  1
  O  O308  1  0.25570705  0.27177732  0.89977058  1
  O  O309  1  0.24473683  0.74190137  0.37775376  1
  O  O310  1  0.24040098  0.74676151  0.87183819  1
  O  O311  1  0.74488928  0.24608235  0.37413630  1
  O  O312  1  0.75594762  0.24671163  0.88768738  1
  O  O313  1  0.73747585  0.75376439  0.38538051  1
  O  O314  1  0.74459445  0.74697476  0.88239810  1
  O  O315  1  -0.00329849  0.12608761  0.01631725  1
  O  O316  1  0.01058203  0.12697363  0.49139924  1
  O  O317  1  0.01416403  0.62898220  0.00531484  1
  O  O318  1  0.00930473  0.61797679  0.50511087  1
  O  O319  1  0.51180279  0.13160755  -0.00613169  1
  O  O320  1  0.50103827  0.11968200  0.50593521  1
  O  O321  1  0.50715244  0.61435538  -0.00170169  1
  O  O322  1  0.50907203  0.61593123  0.50183230  1
  O  O323  1  0.49539952  0.38060420  0.49700653  1
  O  O324  1  0.49518891  0.37886683  0.99346137  1
  O  O325  1  0.48830487  0.88490252  0.50861466  1
  O  O326  1  0.48620579  0.87311617  0.99989294  1
  O  O327  1  0.99426274  0.38085667  0.49467459  1
  O  O328  1  0.98764713  0.37877797  0.99913985  1
  O  O329  1  0.99576061  0.87059524  0.48466707  1
  O  O330  1  0.98057561  0.85809502  0.98545244  1
  O  O331  1  0.49675741  0.49237966  0.38510872  1
  O  O332  1  0.49668796  0.49438763  0.88711857  1
  O  O333  1  0.49159706  1.00179963  0.38852197  1
  O  O334  1  0.48368602  1.00289639  0.87656347  1
  O  O335  1  0.99275248  0.49687636  0.37905531  1
  O  O336  1  0.98656734  0.50251873  0.88034910  1
  O  O337  1  0.99076757  0.99294238  0.36593214  1
  O  O338  1  0.98973386  0.99168652  0.87228358  1
  O  O339  1  -0.00829285  0.01667454  0.13553762  1
  O  O340  1  0.01024752  -0.00985566  0.61832372  1
  O  O341  1  0.01321891  0.50211488  0.12541047  1
  O  O342  1  0.00633417  0.50602966  0.62036495  1
  O  O343  1  0.51051523  -0.00037649  0.12094613  1
  O  O344  1  0.50573050  0.01093796  0.61573272  1
  O  O345  1  0.50728932  0.49129058  0.11357614  1
  O  O346  1  0.49376651  0.49985093  0.61269745  1
  O  O347  1  0.25490686  0.38340940  0.24041610  1
  O  O348  1  0.23977039  0.37123695  0.74245957  1
  O  O349  1  0.24158469  0.88692365  0.25523920  1
  O  O350  1  0.23891784  0.86583976  0.73907465  1
  O  O351  1  0.73884904  0.37805066  0.24472276  1
  O  O352  1  0.74411525  0.38070798  0.74766362  1
  O  O353  1  0.75410815  0.88609256  0.23882627  1
  O  O354  1  0.73133697  0.87060214  0.74207349  1
  O  O355  1  0.25093430  0.11237045  0.25905878  1
  O  O356  1  0.25139187  0.16216061  0.76379528  1
  O  O357  1  0.25911245  0.61906252  0.26078623  1
  O  O358  1  0.26315649  0.61590745  0.75218795  1
  O  O359  1  0.75066530  0.12046700  0.25907092  1
  O  O360  1  0.74952636  0.13792230  0.76567143  1
  O  O361  1  0.76503503  0.62311634  0.25434322  1
  O  O362  1  0.75419072  0.61795009  0.75670845  1
  O  O363  1  0.36666019  0.11414643  0.36889636  1
  O  O364  1  0.36608279  0.10516180  0.87850503  1
  O  O365  1  0.36904174  0.61873454  0.37367748  1
  O  O366  1  0.37618693  0.61282714  0.86926834  1
  O  O367  1  0.86672912  0.12134910  0.37084015  1
  O  O368  1  0.86768288  0.11545569  0.87295598  1
  O  O369  1  0.87403477  0.62050188  0.37078959  1
  O  O370  1  0.87081004  0.62235658  0.87377763  1
  O  O371  1  0.13296497  0.38610398  0.12413600  1
  O  O372  1  0.13107746  0.38334928  0.62930850  1
  O  O373  1  0.12407669  0.86189242  0.14520527  1
  O  O374  1  0.13232480  0.88093799  0.62496237  1
  O  O375  1  0.62836853  0.38282028  0.13181282  1
  O  O376  1  0.63308137  0.37857341  0.63623430  1
  O  O377  1  0.63848023  0.89080310  0.11341512  1
  O  O378  1  0.62369312  0.88685691  0.63409779  1
  O  O379  1  0.11920475  0.24485010  0.26184985  1
  O  O380  1  0.10877878  0.26137890  0.74529942  1
  O  O381  1  0.13504958  0.76189128  0.26205128  1
  O  O382  1  0.12199407  0.75259829  0.75388640  1
  O  O383  1  0.62350351  0.25881392  0.25374031  1
  O  O384  1  0.61747846  0.26338725  0.75108828  1
  O  O385  1  0.63654331  0.75937099  0.27256903  1
  O  O386  1  0.62276352  0.75567595  0.76021440  1
  O  O387  1  0.37293377  0.23912253  0.24276881  1
  O  O388  1  0.39124158  0.26845494  0.74463839  1
  O  O389  1  0.38050732  0.73401048  0.25458283  1
  O  O390  1  0.37622372  0.74177295  0.74543913  1
  O  O391  1  0.88239803  0.25080810  0.24019430  1
  O  O392  1  0.88703334  0.25254962  0.74565313  1
  O  O393  1  0.86869117  0.74778132  0.23979356  1
  O  O394  1  0.88258552  0.74313234  0.74608721  1
  O  O395  1  0.38227369  0.49011865  0.49305466  1
  O  O396  1  0.38059074  0.49629044  0.99642184  1
  O  O397  1  0.38032696  0.99344017  0.49123323  1
  O  O398  1  0.37556156  0.98756512  1.00304932  1
  O  O399  1  0.88107992  0.49395640  0.49334182  1
  O  O400  1  0.87389705  0.49514965  0.99619202  1
  O  O401  1  0.87175158  1.00012754  0.48224868  1
  O  O402  1  0.87048792  0.99098034  0.99275883  1
  O  O403  1  0.11441813  -0.04388178  0.00458932  1
  O  O404  1  0.12768822  0.00418801  0.50871106  1
  O  O405  1  0.12678846  0.51198982  0.00953700  1
  O  O406  1  0.12224421  0.50476672  0.50546102  1
  O  O407  1  0.62059605  0.01076285  0.00715713  1
  O  O408  1  0.61664336  0.00474865  0.50793849  1
  O  O409  1  0.61806430  0.50309983  0.00667769  1
  O  O410  1  0.61597127  0.51219586  0.49557324  1
  O  O411  1  0.36688278  0.36770993  0.12270897  1
  O  O412  1  0.36382752  0.37859727  0.61493629  1
  O  O413  1  0.37121036  0.87054877  0.10707004  1
  O  O414  1  0.37108401  0.86951885  0.61992437  1
  O  O415  1  0.87197160  0.36774036  0.11894800  1
  O  O416  1  0.86838047  0.37716660  0.61481649  1
  O  O417  1  0.86633931  0.87426594  0.11732878  1
  O  O418  1  0.87818358  0.85705856  0.62834815  1
  O  O419  1  0.13068536  0.12794884  0.37832287  1
  O  O420  1  0.12442735  0.10542382  0.88397150  1
  O  O421  1  0.13296797  0.63190708  0.37756205  1
  O  O422  1  0.12760938  0.63178184  0.88431424  1
  O  O423  1  0.63140380  0.14250109  0.37317213  1
  O  O424  1  0.63367302  0.11981447  0.88526776  1
  O  O425  1  0.63172479  0.63242724  0.38806992  1
  O  O426  1  0.63194604  0.63349260  0.88265508  1
