# generated using pymatgen
data_V85Zn86O256
_symmetry_space_group_name_H-M   'P 1'
_cell_length_a   16.95582059
_cell_length_b   16.95931642
_cell_length_c   16.95561854
_cell_angle_alpha   90.06044198
_cell_angle_beta   90.12748975
_cell_angle_gamma   90.05600622
_symmetry_Int_Tables_number   1
_chemical_formula_structural   V85Zn86O256
_chemical_formula_sum   'V85 Zn86 O256'
_cell_volume   4875.72573292
_cell_formula_units_Z   1
loop_
 _symmetry_equiv_pos_site_id
 _symmetry_equiv_pos_as_xyz
  1  'x, y, z'
loop_
 _atom_site_type_symbol
 _atom_site_label
 _atom_site_symmetry_multiplicity
 _atom_site_fract_x
 _atom_site_fract_y
 _atom_site_fract_z
 _atom_site_occupancy
  V  V0  1  0.48943410  0.63071232  0.12895896  1
  V  V1  1  0.14564509  0.40025150  0.27533862  1
  V  V2  1  0.13810693  0.24422559  0.37859629  1
  V  V3  1  -0.00202044  0.87748291  0.37274748  1
  V  V4  1  0.74479759  0.88622139  0.63250249  1
  V  V5  1  0.00481909  0.49796137  0.49179185  1
  V  V6  1  0.13021833  0.50207476  0.63393235  1
  V  V7  1  0.75177088  0.37432170  0.63584024  1
  V  V8  1  0.62699657  0.87210299  0.24175850  1
  V  V9  1  0.38303102  0.74796253  0.62762962  1
  V  V10  1  0.26289779  0.12405699  0.87293028  1
  V  V11  1  0.87789510  0.12906880  0.74808452  1
  V  V12  1  0.37731190  0.37320072  -0.00234393  1
  V  V13  1  0.36393499  0.50017319  0.87415657  1
  V  V14  1  0.38132157  -0.00350662  0.37704369  1
  V  V15  1  0.87069186  0.61589416  0.25474441  1
  V  V16  1  0.73309922  0.49642875  0.75659320  1
  V  V17  1  0.48581520  0.74918002  0.24828269  1
  V  V18  1  -0.00383265  0.62084258  0.62558629  1
  V  V19  1  0.12550537  -0.00036173  0.62696624  1
  V  V20  1  0.12586664  0.00392416  0.12390160  1
  V  V21  1  -0.00848771  0.63624727  0.11855797  1
  V  V22  1  0.62292941  -0.00582073  0.10980412  1
  V  V23  1  0.00042207  0.00646485  -0.00326680  1
  V  V24  1  0.00629977  0.23997322  0.24356917  1
  V  V25  1  0.26241098  0.00304827  0.75449805  1
  V  V26  1  0.50221073  0.87230407  0.37584724  1
  V  V27  1  -0.00084460  0.74946134  0.74973775  1
  V  V28  1  0.36680031  0.62357933  0.75014427  1
  V  V29  1  0.75196126  0.12588996  0.86855512  1
  V  V30  1  -0.05914649  0.44276749  0.05288119  1
  V  V31  1  0.62291252  0.12987959  -0.00314880  1
  V  V32  1  0.76407408  0.25636661  0.00985999  1
  V  V33  1  0.62890308  0.25776574  0.86920374  1
  V  V34  1  0.87096379  0.74898959  0.62595220  1
  V  V35  1  0.75087413  0.12515256  0.37261727  1
  V  V36  1  0.12826274  0.62670276  0.50094893  1
  V  V37  1  0.12072275  0.62576420  -0.00181965  1
  V  V38  1  0.25386118  -0.00097230  0.25219239  1
  V  V39  1  0.74673286  0.74609556  0.49969241  1
  V  V40  1  0.00304003  0.13581935  0.62846772  1
  V  V41  1  0.00133860  0.00062035  0.50082377  1
  V  V42  1  0.25314318  0.86913102  0.12537285  1
  V  V43  1  0.74541724  0.63255948  0.87709711  1
  V  V44  1  0.12556386  0.12781171  0.00313222  1
  V  V45  1  0.49491239  0.24917302  0.74814754  1
  V  V46  1  0.74722503  -0.00130401  0.23990389  1
  V  V47  1  0.12231087  0.25195404  0.87299131  1
  V  V48  1  0.25659984  0.74398300  -0.00114298  1
  V  V49  1  0.86291940  0.87898127  -0.00006134  1
  V  V50  1  0.87358054  0.87406292  0.50144790  1
  V  V51  1  0.62917764  0.12422154  0.50932186  1
  V  V52  1  0.25303282  0.25286375  0.00157852  1
  V  V53  1  0.63120845  0.49919440  0.13354091  1
  V  V54  1  0.50919388  -0.00235715  0.50591328  1
  V  V55  1  0.12542140  0.87629307  0.75054763  1
  V  V56  1  0.37820570  0.24604774  0.12531329  1
  V  V57  1  0.12137787  0.87792964  0.24773864  1
  V  V58  1  -0.00722240  0.75522803  0.24735285  1
  V  V59  1  0.60082557  0.75009004  0.87110725  1
  V  V60  1  0.49817134  0.39528714  0.37748379  1
  V  V61  1  0.50190245  0.50144941  0.00150199  1
  V  V62  1  0.50560066  0.38024463  0.86667891  1
  V  V63  1  0.25221910  0.74869101  0.49736610  1
  V  V64  1  0.49686353  0.12249572  0.62968050  1
  V  V65  1  0.50201034  0.61493664  0.62578616  1
  V  V66  1  0.13154706  0.38054408  0.75850790  1
  V  V67  1  0.48902396  0.89794760  0.87137039  1
  V  V68  1  -0.00919358  0.37818653  0.86796605  1
  V  V69  1  0.24802738  0.36650183  0.62205955  1
  V  V70  1  0.12281952  0.75216159  0.37639136  1
  V  V71  1  0.13776554  0.12436721  0.50326467  1
  V  V72  1  0.00720863  0.36541270  0.38651590  1
  V  V73  1  0.87231097  0.00066272  0.37145100  1
  V  V74  1  0.87150776  0.61939387  0.75226864  1
  V  V75  1  0.26337151  0.38882526  0.13937378  1
  V  V76  1  0.12233421  0.50025326  0.12145199  1
  V  V77  1  0.25132197  0.87330760  0.62659134  1
  V  V78  1  0.76214449  0.24864863  0.50015787  1
  V  V79  1  0.37582340  0.88837563  0.00057763  1
  V  V80  1  0.50263019  0.11958095  0.12340494  1
  V  V81  1  0.62654007  0.74593830  0.37024651  1
  V  V82  1  0.82914196  0.43296170  0.44228213  1
  V  V83  1  0.50500871  0.24850068  0.25711695  1
  V  V84  1  0.00023846  0.87690497  0.87388761  1
  Zn  Zn85  1  0.63635750  0.37484555  0.25103151  1
  Zn  Zn86  1  0.36940997  0.24478933  0.61955066  1
  Zn  Zn87  1  0.37900569  0.87059767  0.50063549  1
  Zn  Zn88  1  0.61629370  0.48560102  0.62395307  1
  Zn  Zn89  1  0.24266379  0.62174929  0.86997545  1
  Zn  Zn90  1  0.12553969  0.74896069  0.87498765  1
  Zn  Zn91  1  0.62773707  0.25143054  0.37498935  1
  Zn  Zn92  1  0.25890802  0.12315586  0.38178283  1
  Zn  Zn93  1  0.62254064  0.62909283  0.00311697  1
  Zn  Zn94  1  0.87192418  0.14247359  0.22175580  1
  Zn  Zn95  1  0.75231970  0.61069007  0.37176639  1
  Zn  Zn96  1  0.31691625  0.53459413  0.29724750  1
  Zn  Zn97  1  0.88432116  0.25930124  0.62624082  1
  Zn  Zn98  1  0.87154936  0.49894433  0.88248645  1
  Zn  Zn99  1  0.73738829  0.76431775  0.00032360  1
  Zn  Zn100  1  0.77121418  0.37999027  0.12877553  1
  Zn  Zn101  1  0.61098571  0.61921808  0.49169379  1
  Zn  Zn102  1  0.37878319  0.12241144  0.25349351  1
  Zn  Zn103  1  0.38107021  0.37771166  0.49622531  1
  Zn  Zn104  1  0.85808747  0.76327959  0.12906419  1
  Zn  Zn105  1  0.87472414  0.00132444  0.86506059  1
  Zn  Zn106  1  0.61424455  0.88282314  0.74255488  1
  Zn  Zn107  1  0.19184335  0.18920078  0.19042622  1
  Zn  Zn108  1  0.18451228  0.18785498  0.69528615  1
  Zn  Zn109  1  0.18032204  0.69171246  0.17984817  1
  Zn  Zn110  1  0.18890721  0.68869393  0.68716321  1
  Zn  Zn111  1  0.68724369  0.18809396  0.18590706  1
  Zn  Zn112  1  0.68767943  0.19189878  0.68819260  1
  Zn  Zn113  1  0.68743100  0.68713410  0.18233727  1
  Zn  Zn114  1  0.68243080  0.69520377  0.69513486  1
  Zn  Zn115  1  0.32050915  0.30694130  0.31681323  1
  Zn  Zn116  1  0.31264806  0.31162011  0.81033278  1
  Zn  Zn117  1  0.30767110  0.70293299  0.31036255  1
  Zn  Zn118  1  0.31422087  0.80957433  0.81392123  1
  Zn  Zn119  1  0.81433787  0.30891716  0.30262504  1
  Zn  Zn120  1  0.81422064  0.30681716  0.80918320  1
  Zn  Zn121  1  0.80855404  0.81559049  0.31192533  1
  Zn  Zn122  1  0.81167725  0.81084224  0.81444059  1
  Zn  Zn123  1  0.21967545  0.45474499  0.44988720  1
  Zn  Zn124  1  0.18427125  0.43918843  0.94831390  1
  Zn  Zn125  1  0.19089628  0.93548289  0.43769169  1
  Zn  Zn126  1  0.19066718  0.93796289  0.93596063  1
  Zn  Zn127  1  0.66113842  0.43803847  0.44582092  1
  Zn  Zn128  1  0.68993451  0.43716495  0.94480932  1
  Zn  Zn129  1  0.68737737  0.93470406  0.43726433  1
  Zn  Zn130  1  0.67366989  0.94933014  0.90329547  1
  Zn  Zn131  1  0.30963101  0.06420361  0.06246775  1
  Zn  Zn132  1  0.31959068  0.05626666  0.56664991  1
  Zn  Zn133  1  0.32570336  0.54826707  0.09154397  1
  Zn  Zn134  1  0.31477499  0.55707842  0.56024651  1
  Zn  Zn135  1  0.80750750  0.06382164  0.05226010  1
  Zn  Zn136  1  0.81734739  0.06389237  0.56377894  1
  Zn  Zn137  1  0.80423570  0.57604088  0.06701714  1
  Zn  Zn138  1  0.79604327  0.56296155  0.56752333  1
  Zn  Zn139  1  0.44560244  0.43282132  0.18937706  1
  Zn  Zn140  1  0.43101576  0.43814574  0.69189156  1
  Zn  Zn141  1  0.43859165  0.93441155  0.18597677  1
  Zn  Zn142  1  0.43789922  0.93776477  0.68484952  1
  Zn  Zn143  1  0.96479323  0.44987090  0.22180735  1
  Zn  Zn144  1  0.93639182  0.43789589  0.68738263  1
  Zn  Zn145  1  0.91928511  0.97433473  0.16406067  1
  Zn  Zn146  1  0.93410234  0.94271895  0.68756639  1
  Zn  Zn147  1  0.06442261  0.06457703  0.31392215  1
  Zn  Zn148  1  0.06665600  0.06550751  0.81158226  1
  Zn  Zn149  1  0.15013982  0.57353548  0.30693622  1
  Zn  Zn150  1  0.05628855  0.55869597  0.81775969  1
  Zn  Zn151  1  0.56593863  0.06246637  0.31226198  1
  Zn  Zn152  1  0.56737748  0.06247549  0.80717644  1
  Zn  Zn153  1  0.56301733  0.56783842  0.30596376  1
  Zn  Zn154  1  0.55319978  0.56908610  0.80947481  1
  Zn  Zn155  1  0.43450319  0.19015012  0.44507979  1
  Zn  Zn156  1  0.44301132  0.18793645  0.93564328  1
  Zn  Zn157  1  0.43027752  0.66797991  0.43420581  1
  Zn  Zn158  1  0.42907160  0.68412703  0.94347537  1
  Zn  Zn159  1  0.94200459  0.18322875  0.43642972  1
  Zn  Zn160  1  0.93993242  0.19094591  0.93588198  1
  Zn  Zn161  1  0.93787760  0.68588410  0.43676859  1
  Zn  Zn162  1  0.93246827  0.69390742  0.93575661  1
  Zn  Zn163  1  0.07343157  0.31390235  0.06965236  1
  Zn  Zn164  1  0.07586829  0.31249728  0.56182647  1
  Zn  Zn165  1  0.06179400  0.81577854  0.05931042  1
  Zn  Zn166  1  0.06007772  0.81263868  0.56505753  1
  Zn  Zn167  1  0.56380793  0.31266845  0.06014137  1
  Zn  Zn168  1  0.56473432  0.30880781  0.55765572  1
  Zn  Zn169  1  0.55749514  0.81191580  0.05656594  1
  Zn  Zn170  1  0.56566398  0.80794663  0.56270564  1
  O  O171  1  0.13473093  0.12004490  0.11143753  1
  O  O172  1  0.12110321  0.12071155  0.62126312  1
  O  O173  1  0.10959727  0.62036149  0.11930384  1
  O  O174  1  0.11629763  0.61930546  0.62236871  1
  O  O175  1  0.61986065  0.11847349  0.11648769  1
  O  O176  1  0.62166275  0.12761537  0.61419579  1
  O  O177  1  0.61583717  0.61251366  0.12327637  1
  O  O178  1  0.60423379  0.63350939  0.63372717  1
  O  O179  1  0.39491848  0.37464110  0.36898455  1
  O  O180  1  0.38133677  0.38197917  0.87896559  1
  O  O181  1  0.38687140  0.88855898  0.38082297  1
  O  O182  1  0.38256306  0.87264667  0.88491149  1
  O  O183  1  0.88589184  0.37364473  0.37894058  1
  O  O184  1  0.88781632  0.37366953  0.87207732  1
  O  O185  1  0.87715634  0.88065284  0.38344773  1
  O  O186  1  0.88669993  0.87899058  0.87676649  1
  O  O187  1  0.26095214  -0.00266238  0.36757390  1
  O  O188  1  0.24416240  0.01156472  0.86656420  1
  O  O189  1  0.21280484  0.47851917  0.33721101  1
  O  O190  1  0.26148394  0.50042701  0.88741059  1
  O  O191  1  0.75388606  0.00448212  0.36767047  1
  O  O192  1  0.76046588  0.02478120  0.89057914  1
  O  O193  1  0.76372972  0.48873692  0.38869414  1
  O  O194  1  0.75009350  0.50668965  0.87080384  1
  O  O195  1  0.22647812  0.49929674  0.11092224  1
  O  O196  1  0.23310682  0.49050583  0.62720348  1
  O  O197  1  0.24219690  0.99365368  0.12866632  1
  O  O198  1  0.24540581  0.99250640  0.63189514  1
  O  O199  1  0.73344021  0.49853170  0.11557131  1
  O  O200  1  0.75171842  0.49194259  0.64403697  1
  O  O201  1  0.73697661  1.00243401  0.13432435  1
  O  O202  1  0.75334803  0.98406239  0.61667294  1
  O  O203  1  0.02143901  0.36542571  0.27115465  1
  O  O204  1  0.00831891  0.37774616  0.76351920  1
  O  O205  1  0.00471941  0.87307358  0.25477393  1
  O  O206  1  0.00345312  0.87229791  0.75501731  1
  O  O207  1  0.50669620  0.36611574  0.26014980  1
  O  O208  1  0.49895002  0.37138685  0.76093799  1
  O  O209  1  0.51027908  0.86941414  0.25386941  1
  O  O210  1  0.49493033  0.88122860  0.76720742  1
  O  O211  1  0.50160242  0.12979195  0.24028752  1
  O  O212  1  0.50931640  0.13400882  0.74109633  1
  O  O213  1  0.50006618  0.63403558  0.23764967  1
  O  O214  1  0.48226476  0.62460747  0.73650875  1
  O  O215  1  0.99999286  0.13613864  0.25320636  1
  O  O216  1  0.99800422  0.12308655  0.73801529  1
  O  O217  1  0.98611877  0.64061908  0.23524578  1
  O  O218  1  0.99028392  0.62759985  0.74641551  1
  O  O219  1  0.37281620  0.25280300  0.00543350  1
  O  O220  1  0.37873445  0.26254994  0.50731234  1
  O  O221  1  0.36020543  0.75884341  -0.00138296  1
  O  O222  1  0.36558714  0.74644130  0.50537799  1
  O  O223  1  0.86233029  0.24570763  0.00061012  1
  O  O224  1  0.86564601  0.24137074  0.50229360  1
  O  O225  1  0.87323654  0.77164410  -0.00248547  1
  O  O226  1  0.86980592  0.75640363  0.50480317  1
  O  O227  1  0.12336410  0.23385732  0.49188386  1
  O  O228  1  0.13287496  0.24586715  0.99611457  1
  O  O229  1  0.12857128  0.74489368  0.49965942  1
  O  O230  1  0.13118273  0.74126613  1.00047600  1
  O  O231  1  0.63952377  0.23980216  0.49509113  1
  O  O232  1  0.63094490  0.24574573  0.99131937  1
  O  O233  1  0.63128491  0.74272699  0.49089543  1
  O  O234  1  0.61977889  0.74627913  0.98523105  1
  O  O235  1  0.49790034  0.23999266  0.13169456  1
  O  O236  1  0.50581203  0.24302650  0.63383297  1
  O  O237  1  0.50855102  0.73755234  0.13241897  1
  O  O238  1  0.48606105  0.74493099  0.62124142  1
  O  O239  1  1.01335426  0.25411271  0.14523706  1
  O  O240  1  1.00424111  0.23895215  0.61832716  1
  O  O241  1  0.99515433  0.75033881  0.13081291  1
  O  O242  1  0.99076417  0.74311938  0.63056409  1
  O  O243  1  0.01287987  0.25114048  0.37446250  1
  O  O244  1  0.01052105  0.26779242  0.88652268  1
  O  O245  1  0.00247796  0.75884402  0.36822951  1
  O  O246  1  0.00155794  0.75979618  0.86703993  1
  O  O247  1  0.50270445  0.24021777  0.36211814  1
  O  O248  1  0.50774714  0.25932279  0.86859371  1
  O  O249  1  0.51004831  0.75002168  0.36803042  1
  O  O250  1  0.50088794  0.74273663  0.87258958  1
  O  O251  1  0.24124195  0.11443523  0.50391934  1
  O  O252  1  0.24359896  0.13205169  0.99317625  1
  O  O253  1  0.23551271  0.63474759  0.51056330  1
  O  O254  1  0.23924024  0.63405873  1.00334637  1
  O  O255  1  0.74695120  0.12933424  0.49541083  1
  O  O256  1  0.74040030  0.13879363  0.99522331  1
  O  O257  1  0.76005156  0.64080309  0.49173140  1
  O  O258  1  0.74324370  0.62594716  0.98449241  1
  O  O259  1  0.25867514  0.37151642  0.01205657  1
  O  O260  1  0.22303656  0.36320561  0.52495964  1
  O  O261  1  0.25618155  0.86908281  0.00461732  1
  O  O262  1  0.25221670  0.86734839  0.50920202  1
  O  O263  1  0.75100616  0.36191028  0.00889795  1
  O  O264  1  0.76250471  0.37095392  0.49721009  1
  O  O265  1  0.76301563  0.88519236  -0.01890442  1
  O  O266  1  0.75274709  0.86395422  0.50738879  1
  O  O267  1  0.09918069  0.49723201  0.23490610  1
  O  O268  1  0.11836596  0.49362093  0.74548028  1
  O  O269  1  0.13082268  0.99892188  0.24201893  1
  O  O270  1  0.13068281  0.99289996  0.74387978  1
  O  O271  1  0.62525214  0.49942308  0.23650751  1
  O  O272  1  0.63108079  0.50432534  0.74882209  1
  O  O273  1  0.63021621  0.99274260  0.24085534  1
  O  O274  1  0.63953658  0.98011944  0.79372676  1
  O  O275  1  0.36994820  -0.00226063  0.25740595  1
  O  O276  1  0.36110003  -0.00194500  0.74545142  1
  O  O277  1  0.34251511  0.47855084  0.19903524  1
  O  O278  1  0.37476169  0.50732172  0.76429663  1
  O  O279  1  0.86130147  -0.01422676  0.26453456  1
  O  O280  1  0.87773911  0.01869877  0.75003415  1
  O  O281  1  0.87931418  0.51705459  0.24988540  1
  O  O282  1  0.87041863  0.51168023  0.75497584  1
  O  O283  1  0.12428497  0.36088119  0.37985940  1
  O  O284  1  0.11919932  0.37294856  0.87509344  1
  O  O285  1  0.11854177  0.87246637  0.36893317  1
  O  O286  1  0.11484854  0.87454656  0.86963792  1
  O  O287  1  0.61245431  0.37121397  0.37099803  1
  O  O288  1  0.61638044  0.37017533  0.88227776  1
  O  O289  1  0.61978708  0.86741629  0.36611548  1
  O  O290  1  0.59448961  0.86298239  0.89163744  1
  O  O291  1  0.38389819  0.13167744  0.12250537  1
  O  O292  1  0.39222072  0.12643127  0.62169078  1
  O  O293  1  0.38967694  0.63478617  0.12371777  1
  O  O294  1  0.37762469  0.62686229  0.62920229  1
  O  O295  1  0.88270423  0.08017419  0.13181469  1
  O  O296  1  0.88725177  0.12716665  0.62892360  1
  O  O297  1  0.87768805  0.63399046  0.13271320  1
  O  O298  1  0.87597930  0.62807964  0.63325736  1
  O  O299  1  0.26266603  0.25521373  0.12222687  1
  O  O300  1  0.25036725  0.26260834  0.63939450  1
  O  O301  1  0.24389665  0.76413910  0.11735852  1
  O  O302  1  0.25528515  0.75556352  0.61587354  1
  O  O303  1  0.75259755  0.24745402  0.11284936  1
  O  O304  1  0.75422481  0.25684548  0.61685615  1
  O  O305  1  0.74663956  0.74997639  0.11235614  1
  O  O306  1  0.75380301  0.75195202  0.61799149  1
  O  O307  1  0.24276331  0.24167440  0.37274132  1
  O  O308  1  0.24364695  0.24713455  0.88186384  1
  O  O309  1  0.23992912  0.75533873  0.39039321  1
  O  O310  1  0.24514913  0.74628236  0.88434452  1
  O  O311  1  0.75340637  0.24034992  0.38057328  1
  O  O312  1  0.74460850  0.24727065  0.88408921  1
  O  O313  1  0.73726428  0.75473238  0.38106517  1
  O  O314  1  0.74166828  0.74527787  0.87871717  1
  O  O315  1  0.00971702  0.11488594  -0.00742500  1
  O  O316  1  0.00923659  0.11611599  0.50767527  1
  O  O317  1  0.00213329  0.63811143  0.01052753  1
  O  O318  1  0.00435839  0.61740297  0.50729145  1
  O  O319  1  0.51454329  0.13186929  0.00674815  1
  O  O320  1  0.51158275  0.11805463  0.50680784  1
  O  O321  1  0.49872030  0.61846446  0.01041677  1
  O  O322  1  0.49564764  0.62528364  0.51831418  1
  O  O323  1  0.50492309  0.37752873  0.48294305  1
  O  O324  1  0.49509350  0.38121934  0.98964270  1
  O  O325  1  0.50471033  0.88109842  0.49506770  1
  O  O326  1  0.48017442  0.87340532  0.99466735  1
  O  O327  1  1.00739901  0.37831695  0.49429310  1
  O  O328  1  1.00109057  0.37863218  0.99936787  1
  O  O329  1  0.99438496  0.88118736  0.49479140  1
  O  O330  1  0.99734520  0.88553021  0.98937108  1
  O  O331  1  0.50328667  0.49431765  0.37110040  1
  O  O332  1  0.49348904  0.49606403  0.88241016  1
  O  O333  1  0.49864390  0.99508337  0.38110346  1
  O  O334  1  0.49292233  0.99544616  0.87864217  1
  O  O335  1  1.00395804  0.48657512  0.39078391  1
  O  O336  1  0.99415052  0.48360877  0.88079598  1
  O  O337  1  0.99128182  0.99686816  0.37856278  1
  O  O338  1  1.00281279  0.99427823  0.88044631  1
  O  O339  1  0.02049750  -0.00700818  0.11091388  1
  O  O340  1  0.00770506  0.00525343  0.61848541  1
  O  O341  1  -0.00091669  0.50848831  0.11514211  1
  O  O342  1  0.00848402  0.50130635  0.61673176  1
  O  O343  1  0.50706503  0.01215003  0.12818669  1
  O  O344  1  0.50242848  0.00637072  0.61779927  1
  O  O345  1  0.50357922  0.51136631  0.12021807  1
  O  O346  1  0.49970251  0.50928319  0.62887462  1
  O  O347  1  0.23886029  0.35480517  0.24781784  1
  O  O348  1  0.23661497  0.37563139  0.74814498  1
  O  O349  1  0.24088391  0.88806063  0.23890639  1
  O  O350  1  0.24418030  0.88000505  0.74702411  1
  O  O351  1  0.74893429  0.36785690  0.23797177  1
  O  O352  1  0.75059907  0.38344856  0.74849287  1
  O  O353  1  0.73445193  0.88319807  0.25210122  1
  O  O354  1  0.75826668  0.87223008  0.73286921  1
  O  O355  1  0.25496586  0.10981982  0.24996326  1
  O  O356  1  0.24404667  0.11593710  0.76102651  1
  O  O357  1  0.23735486  0.62922780  0.25372693  1
  O  O358  1  0.25951068  0.62489115  0.75064821  1
  O  O359  1  0.75396532  0.11793116  0.25569277  1
  O  O360  1  0.75830348  0.13349196  0.75876672  1
  O  O361  1  0.76594422  0.63097758  0.25170520  1
  O  O362  1  0.75217177  0.62009357  0.75942737  1
  O  O363  1  0.37778282  0.11082074  0.37602117  1
  O  O364  1  0.36199434  0.13192242  0.87889935  1
  O  O365  1  0.36680328  0.61823474  0.35813502  1
  O  O366  1  0.37132304  0.61676802  0.86834965  1
  O  O367  1  0.86495247  0.11425950  0.37589780  1
  O  O368  1  0.87079963  0.13055820  0.86558311  1
  O  O369  1  0.87502159  0.63119246  0.35878111  1
  O  O370  1  0.86490021  0.62581421  0.86893628  1
  O  O371  1  0.13462978  0.38701666  0.13770293  1
  O  O372  1  0.12706053  0.38064876  0.64141517  1
  O  O373  1  0.13324856  0.88315203  0.12687351  1
  O  O374  1  0.13065475  0.87920725  0.63117947  1
  O  O375  1  0.61360431  0.39380770  0.12456282  1
  O  O376  1  0.64509187  0.37233257  0.61439062  1
  O  O377  1  0.61438261  0.88415505  0.12858867  1
  O  O378  1  0.63884929  0.86952638  0.62795257  1
  O  O379  1  0.11963885  0.24316116  0.26396261  1
  O  O380  1  0.12543465  0.25938305  0.76741107  1
  O  O381  1  0.11068391  0.75728711  0.25352574  1
  O  O382  1  0.11713385  0.75807008  0.74884328  1
  O  O383  1  0.61787249  0.24966039  0.25212127  1
  O  O384  1  0.61874087  0.25034307  0.76389165  1
  O  O385  1  0.62055522  0.75644245  0.25467881  1
  O  O386  1  0.62608629  0.76403741  0.76924729  1
  O  O387  1  0.38537504  0.24402510  0.24089094  1
  O  O388  1  0.39090857  0.25506692  0.74567734  1
  O  O389  1  0.38750376  0.76404901  0.25284380  1
  O  O390  1  0.36654932  0.74075694  0.73744758  1
  O  O391  1  0.89878139  0.24832140  0.25633596  1
  O  O392  1  0.87806185  0.23724323  0.74386126  1
  O  O393  1  0.88358336  0.75727530  0.24754181  1
  O  O394  1  0.87842175  0.73856791  0.74648487  1
  O  O395  1  0.32805440  0.47935557  0.48307250  1
  O  O396  1  0.38632246  0.49439123  0.99963759  1
  O  O397  1  0.39102641  0.99705711  0.49510832  1
  O  O398  1  0.36517711  0.98694201  0.99835732  1
  O  O399  1  0.88064761  0.49838937  0.50366307  1
  O  O400  1  0.87227456  0.50055002  1.00269754  1
  O  O401  1  0.87917819  0.99486292  0.48944412  1
  O  O402  1  0.88651903  0.99319289  0.99054755  1
  O  O403  1  0.12362065  0.00915777  0.00365634  1
  O  O404  1  0.12124237  0.00400618  0.50603779  1
  O  O405  1  0.11748095  0.51614226  0.00527485  1
  O  O406  1  0.12166787  0.51074691  0.50767108  1
  O  O407  1  0.63067116  0.00869488  0.00643908  1
  O  O408  1  0.61650681  0.00720861  0.49429191  1
  O  O409  1  0.61146384  0.50285613  0.00453063  1
  O  O410  1  0.65027360  0.51775780  0.51898027  1
  O  O411  1  0.38316530  0.35729837  0.11612847  1
  O  O412  1  0.35460530  0.38079458  0.62659586  1
  O  O413  1  0.36630980  0.88015855  0.11277886  1
  O  O414  1  0.37031633  0.86477986  0.62248469  1
  O  O415  1  0.89437335  0.39176288  0.12632270  1
  O  O416  1  0.86191067  0.37402468  0.62849916  1
  O  O417  1  0.87542610  0.88297075  0.10378487  1
  O  O418  1  0.86864151  0.86943003  0.61882388  1
  O  O419  1  0.13131742  0.12609442  0.38667225  1
  O  O420  1  0.12976784  0.13577220  0.88478980  1
  O  O421  1  0.11341161  0.63789783  0.39159828  1
  O  O422  1  0.12260581  0.62631600  0.88356530  1
  O  O423  1  0.63975321  0.12281366  0.38255782  1
  O  O424  1  0.63193830  0.13633700  0.88144354  1
  O  O425  1  0.63228894  0.63123282  0.37332524  1
  O  O426  1  0.62560798  0.63745816  0.87170821  1
