# generated using pymatgen
data_V85Zn86O256
_symmetry_space_group_name_H-M   'P 1'
_cell_length_a   16.92030535
_cell_length_b   16.92255951
_cell_length_c   16.91091285
_cell_angle_alpha   90.04033473
_cell_angle_beta   90.04559529
_cell_angle_gamma   90.06584492
_symmetry_Int_Tables_number   1
_chemical_formula_structural   V85Zn86O256
_chemical_formula_sum   'V85 Zn86 O256'
_cell_volume   4842.17816931
_cell_formula_units_Z   1
loop_
 _symmetry_equiv_pos_site_id
 _symmetry_equiv_pos_as_xyz
  1  'x, y, z'
loop_
 _atom_site_type_symbol
 _atom_site_label
 _atom_site_symmetry_multiplicity
 _atom_site_fract_x
 _atom_site_fract_y
 _atom_site_fract_z
 _atom_site_occupancy
  V  V0  1  0.87278112  0.49619230  0.87163571  1
  V  V1  1  0.49978995  0.26084303  0.74930102  1
  V  V2  1  0.49885017  0.62184120  0.12530338  1
  V  V3  1  0.12081482  0.63090171  0.50513276  1
  V  V4  1  0.87711297  0.25355241  0.61953634  1
  V  V5  1  0.37650597  0.37307644  -0.00470734  1
  V  V6  1  0.75152429  0.87546470  0.12518115  1
  V  V7  1  0.87872837  0.62101268  0.25670190  1
  V  V8  1  0.88044918  0.87357212  -0.00532808  1
  V  V9  1  0.49889657  0.37985063  0.38941520  1
  V  V10  1  0.37489999  0.75616449  0.12369013  1
  V  V11  1  0.87469298  0.12442418  0.74428961  1
  V  V12  1  0.62658991  0.74577996  0.87494180  1
  V  V13  1  0.36489871  0.75006581  0.62336710  1
  V  V14  1  0.62242743  0.25562575  0.88016916  1
  V  V15  1  0.37555944  0.49546607  0.87277398  1
  V  V16  1  0.24711446  0.37512165  0.12666806  1
  V  V17  1  0.00273268  0.87835071  0.38125712  1
  V  V18  1  0.24842657  0.49572091  0.74430540  1
  V  V19  1  0.23307646  0.88108241  0.13189974  1
  V  V20  1  0.49893409  0.61991123  0.61910010  1
  V  V21  1  0.62237752  0.12603802  0.50064651  1
  V  V22  1  0.75417325  0.49731414  0.25571605  1
  V  V23  1  0.75184089  0.61820409  0.86854058  1
  V  V24  1  0.61976702  -0.00166568  0.11991957  1
  V  V25  1  0.74782131  0.00112023  0.74929305  1
  V  V26  1  0.12494844  0.24920133  0.87411641  1
  V  V27  1  0.62582316  0.49747728  0.12428325  1
  V  V28  1  0.62725964  0.62097086  -0.00046230  1
  V  V29  1  0.13162234  0.01098327  0.61787360  1
  V  V30  1  -0.01436710  0.37371494  0.37544687  1
  V  V31  1  0.62228627  0.62751810  0.49499107  1
  V  V32  1  0.13279202  0.88490287  0.75482764  1
  V  V33  1  0.62372919  -0.00113753  0.62622512  1
  V  V34  1  0.24828249  0.50093822  0.25305442  1
  V  V35  1  0.50004190  0.74921602  0.75003100  1
  V  V36  1  0.88240815  0.62141127  0.74601488  1
  V  V37  1  0.00014775  0.37406717  0.87505538  1
  V  V38  1  0.49838389  0.49627881  -0.00498393  1
  V  V39  1  0.62826939  0.50139162  0.62711871  1
  V  V40  1  0.00447104  0.76094595  0.25134550  1
  V  V41  1  0.49924528  0.87715705  0.88672723  1
  V  V42  1  0.37031036  0.03581784  0.37748466  1
  V  V43  1  0.62207987  0.25055693  0.37695589  1
  V  V44  1  0.88374343  0.74760321  0.62229651  1
  V  V45  1  0.24542847  0.62838011  0.87655149  1
  V  V46  1  0.49993587  -0.00451416  0.50141264  1
  V  V47  1  -0.00056231  0.24528237  0.74382034  1
  V  V48  1  0.24807327  0.24674271  -0.00049950  1
  V  V49  1  0.75100720  0.87214372  0.62434414  1
  V  V50  1  0.13905222  0.24498392  0.38861261  1
  V  V51  1  0.75000274  0.26215836  0.50010172  1
  V  V52  1  0.24116092  0.01009741  0.25365606  1
  V  V53  1  0.37435317  0.62429413  0.25166068  1
  V  V54  1  0.37254550  0.62431374  0.74928898  1
  V  V55  1  0.74358097  0.12511414  0.88140767  1
  V  V56  1  0.75302811  0.38013957  0.63501348  1
  V  V57  1  0.00312007  0.62205978  0.12614469  1
  V  V58  1  0.74756537  0.63294992  0.37292301  1
  V  V59  1  0.62224244  0.37559529  0.25077974  1
  V  V60  1  0.87598484  0.74905504  0.12532272  1
  V  V61  1  0.13021901  0.75569825  0.37692502  1
  V  V62  1  -0.01165914  0.49989832  0.49459215  1
  V  V63  1  0.24944607  0.62798268  0.38292124  1
  V  V64  1  0.12578395  0.11479047  0.00226618  1
  V  V65  1  0.25509805  0.12094858  0.85773898  1
  V  V66  1  -0.00147742  0.01515447  0.50631973  1
  V  V67  1  0.74953237  0.36406768  0.12193013  1
  V  V68  1  0.50613842  0.74738885  0.25336012  1
  V  V69  1  0.00196549  0.11802833  0.12787992  1
  V  V70  1  0.00063117  0.75914156  0.75790060  1
  V  V71  1  0.49370901  0.24665535  0.25296291  1
  V  V72  1  0.36481674  0.86919260  0.49543435  1
  V  V73  1  0.88349940  -0.00268116  0.87264066  1
  V  V74  1  0.37080509  0.24284737  0.12985306  1
  V  V75  1  0.87311930  0.36406384  -0.00143129  1
  V  V76  1  0.75094940  0.12361805  0.37547485  1
  V  V77  1  0.11825883  0.50294780  0.62223680  1
  V  V78  1  0.49229438  0.12701473  0.62961899  1
  V  V79  1  0.49960148  0.86785845  0.37781562  1
  V  V80  1  0.49662428  0.12150738  0.11777748  1
  V  V81  1  0.62609080  0.87579838  0.25661021  1
  V  V82  1  0.35525513  0.37998349  0.50643476  1
  V  V83  1  0.36211834  0.25096881  0.62381339  1
  V  V84  1  0.12623736  0.37390099  0.74210128  1
  Zn  Zn85  1  0.37819714  0.89085608  0.00971690  1
  Zn  Zn86  1  0.62215343  0.12009143  -0.00474396  1
  Zn  Zn87  1  0.62489103  0.38368849  0.75599330  1
  Zn  Zn88  1  0.12355276  0.37235671  0.25587942  1
  Zn  Zn89  1  0.87663141  0.00061102  0.37435596  1
  Zn  Zn90  1  0.87499104  0.12454421  0.24978266  1
  Zn  Zn91  1  0.75001437  0.00091992  0.25326746  1
  Zn  Zn92  1  0.00250195  0.49833342  0.00063372  1
  Zn  Zn93  1  0.37789035  0.50328212  0.38377998  1
  Zn  Zn94  1  0.75275677  0.74635660  -0.00089279  1
  Zn  Zn95  1  0.25043891  0.88119040  0.62403461  1
  Zn  Zn96  1  0.87505590  0.24490044  0.12481873  1
  Zn  Zn97  1  0.62475353  0.87372704  0.75089252  1
  Zn  Zn98  1  0.12425846  0.49840715  0.12298701  1
  Zn  Zn99  1  0.87610113  0.87518952  0.50013736  1
  Zn  Zn100  1  0.00120993  0.24881928  0.25124167  1
  Zn  Zn101  1  0.12465849  0.62530849  -0.00041633  1
  Zn  Zn102  1  0.37496588  0.00719646  0.87335367  1
  Zn  Zn103  1  0.24820715  0.75448853  0.00107349  1
  Zn  Zn104  1  0.74953654  0.75083429  0.49670265  1
  Zn  Zn105  1  0.00618785  -0.00720621  -0.00024663  1
  Zn  Zn106  1  0.12330232  0.75926323  0.87915784  1
  Zn  Zn107  1  0.17998935  0.18728077  0.19386336  1
  Zn  Zn108  1  0.18399987  0.18810096  0.68119082  1
  Zn  Zn109  1  0.18716085  0.69150513  0.19087389  1
  Zn  Zn110  1  0.18283140  0.68844118  0.69021228  1
  Zn  Zn111  1  0.68053457  0.18516363  0.18909252  1
  Zn  Zn112  1  0.68434594  0.18929949  0.69042832  1
  Zn  Zn113  1  0.68811912  0.68755484  0.18769101  1
  Zn  Zn114  1  0.69134697  0.68543608  0.68723465  1
  Zn  Zn115  1  0.31196002  0.31339320  0.31600129  1
  Zn  Zn116  1  0.31157626  0.30918217  0.80910449  1
  Zn  Zn117  1  0.31158020  0.81475223  0.30842759  1
  Zn  Zn118  1  0.31295997  0.81470082  0.81253312  1
  Zn  Zn119  1  0.81486218  0.30762495  0.30939675  1
  Zn  Zn120  1  0.80847581  0.30804305  0.81265304  1
  Zn  Zn121  1  0.81774125  0.81327422  0.31180097  1
  Zn  Zn122  1  0.81154889  0.81113714  0.81065073  1
  Zn  Zn123  1  0.17895634  0.43714480  0.43408284  1
  Zn  Zn124  1  0.18632033  0.43979340  0.93638184  1
  Zn  Zn125  1  0.18601577  0.94480441  0.43443746  1
  Zn  Zn126  1  0.19851689  0.93892529  0.93751382  1
  Zn  Zn127  1  0.68548593  0.44414493  0.44032021  1
  Zn  Zn128  1  0.69055871  0.43536020  0.93754829  1
  Zn  Zn129  1  0.68719505  0.93577392  0.43871965  1
  Zn  Zn130  1  0.69012450  0.93525216  0.93743561  1
  Zn  Zn131  1  0.31293951  0.05798859  0.05944515  1
  Zn  Zn132  1  0.31182816  0.06831090  0.55010399  1
  Zn  Zn133  1  0.31090642  0.56274701  0.06265370  1
  Zn  Zn134  1  0.30865281  0.55993719  0.56286669  1
  Zn  Zn135  1  0.81413754  0.05841394  0.06228900  1
  Zn  Zn136  1  0.81298009  0.06468670  0.55958330  1
  Zn  Zn137  1  0.81553000  0.55602226  0.06207435  1
  Zn  Zn138  1  0.80954380  0.56501121  0.56303599  1
  Zn  Zn139  1  0.43377795  0.43429710  0.18879434  1
  Zn  Zn140  1  0.43699228  0.43683710  0.68204044  1
  Zn  Zn141  1  0.43219731  0.94357941  0.19778734  1
  Zn  Zn142  1  0.43117008  0.93675142  0.69407295  1
  Zn  Zn143  1  0.93595309  0.43550964  0.18850720  1
  Zn  Zn144  1  0.93913251  0.43630218  0.68473069  1
  Zn  Zn145  1  0.93651964  0.94302403  0.18900163  1
  Zn  Zn146  1  0.94128328  0.93622648  0.68480863  1
  Zn  Zn147  1  0.06757078  0.06582966  0.31706059  1
  Zn  Zn148  1  0.06585676  0.06389497  0.80934816  1
  Zn  Zn149  1  0.06406119  0.56192414  0.31521472  1
  Zn  Zn150  1  0.05913471  0.56313278  0.81155305  1
  Zn  Zn151  1  0.55129219  0.06405164  0.31246477  1
  Zn  Zn152  1  0.53741054  0.05257309  0.80129911  1
  Zn  Zn153  1  0.56412870  0.56000468  0.31461662  1
  Zn  Zn154  1  0.56011840  0.56050928  0.80984575  1
  Zn  Zn155  1  0.42012341  0.18728397  0.44162633  1
  Zn  Zn156  1  0.43744166  0.18914326  0.93631344  1
  Zn  Zn157  1  0.43759154  0.68868699  0.43854422  1
  Zn  Zn158  1  0.43450955  0.68602608  0.93933095  1
  Zn  Zn159  1  0.93656827  0.19104319  0.43670072  1
  Zn  Zn160  1  0.93874939  0.18264520  0.93538826  1
  Zn  Zn161  1  0.93880388  0.68669076  0.43743239  1
  Zn  Zn162  1  0.93869982  0.68624810  0.93799796  1
  Zn  Zn163  1  0.06103483  0.30680919  0.06334880  1
  Zn  Zn164  1  0.06176132  0.31555023  0.55748305  1
  Zn  Zn165  1  0.06273547  0.80858530  0.06058137  1
  Zn  Zn166  1  0.06499145  0.81751282  0.56566829  1
  Zn  Zn167  1  0.55919651  0.31031290  0.06123412  1
  Zn  Zn168  1  0.56335939  0.31352624  0.56698464  1
  Zn  Zn169  1  0.56621253  0.80735208  0.06584918  1
  Zn  Zn170  1  0.56310844  0.80710189  0.56380974  1
  O  O171  1  0.11341453  0.12856508  0.11432095  1
  O  O172  1  0.11994289  0.10928388  0.63094244  1
  O  O173  1  0.11212232  0.62597976  0.12923083  1
  O  O174  1  0.12694168  0.61925328  0.61537180  1
  O  O175  1  0.62001893  0.11576704  0.11832963  1
  O  O176  1  0.61941864  0.11896206  0.61802620  1
  O  O177  1  0.62051241  0.61745784  0.12026020  1
  O  O178  1  0.61894195  0.62103495  0.62085526  1
  O  O179  1  0.38236117  0.37518905  0.39059241  1
  O  O180  1  0.36744689  0.38035713  0.88497524  1
  O  O181  1  0.38507242  0.86346401  0.38402137  1
  O  O182  1  0.39134135  0.87369113  0.87614632  1
  O  O183  1  0.88573006  0.37527825  0.37452513  1
  O  O184  1  0.87633404  0.37845605  0.87795481  1
  O  O185  1  0.88824875  0.87603205  0.37827475  1
  O  O186  1  0.86710928  0.88391372  0.88218039  1
  O  O187  1  0.25974841  -0.00338426  0.36475188  1
  O  O188  1  0.25212992  0.01627134  0.86954517  1
  O  O189  1  0.25117671  0.50844107  0.36902519  1
  O  O190  1  0.25495504  0.50641636  0.86369993  1
  O  O191  1  0.74964756  0.01008433  0.37788778  1
  O  O192  1  0.75452374  0.00490869  0.86593565  1
  O  O193  1  0.74421147  0.50829029  0.36139371  1
  O  O194  1  0.75822772  0.50625940  0.87411350  1
  O  O195  1  0.25029306  0.49201708  0.13300721  1
  O  O196  1  0.23720379  0.50504417  0.63729612  1
  O  O197  1  0.25676648  0.98784930  0.13794826  1
  O  O198  1  0.23803767  1.00548199  0.61179350  1
  O  O199  1  0.74482596  0.49212079  0.13454781  1
  O  O200  1  0.74326606  0.49139866  0.62149238  1
  O  O201  1  0.74360399  0.98802929  0.12832653  1
  O  O202  1  0.74577145  0.99325085  0.62885776  1
  O  O203  1  0.00071686  0.37866650  0.26422730  1
  O  O204  1  0.00534468  0.36578173  0.75542472  1
  O  O205  1  -0.00426970  0.86563650  0.25662045  1
  O  O206  1  0.01090263  0.86709281  0.74788281  1
  O  O207  1  0.50376879  0.36565339  0.25452385  1
  O  O208  1  0.50376042  0.36555095  0.74394640  1
  O  O209  1  0.50554057  0.86753963  0.25883694  1
  O  O210  1  0.50393861  0.85888845  0.76013021  1
  O  O211  1  0.51675140  0.14426261  0.23216092  1
  O  O212  1  0.50983199  0.14192522  0.73225595  1
  O  O213  1  0.49685407  0.63042069  0.24756827  1
  O  O214  1  0.49195414  0.63301728  0.74502265  1
  O  O215  1  1.00200494  0.12124627  0.23668833  1
  O  O216  1  0.99132148  0.13744824  0.75385062  1
  O  O217  1  0.99345228  0.62996569  0.24788630  1
  O  O218  1  0.98897509  0.63563955  0.75205337  1
  O  O219  1  0.36895414  0.25714540  0.00715210  1
  O  O220  1  0.37975902  0.26665972  0.51354283  1
  O  O221  1  0.37291546  0.74825225  0.01570467  1
  O  O222  1  0.38233672  0.75804526  0.51206057  1
  O  O223  1  0.87522672  0.26064877  -0.00381517  1
  O  O224  1  0.86469616  0.24457520  0.51241846  1
  O  O225  1  0.87323919  0.75513173  0.00605047  1
  O  O226  1  0.87260546  0.74879982  0.50922288  1
  O  O227  1  0.12608577  0.25454802  0.49011825  1
  O  O228  1  0.13002579  0.24321037  0.99150778  1
  O  O229  1  0.11728197  0.74035084  0.49322278  1
  O  O230  1  0.12871423  0.74468764  0.99497952  1
  O  O231  1  0.63078634  0.24628604  0.49655854  1
  O  O232  1  0.61937295  0.24832722  0.98401871  1
  O  O233  1  0.63091733  0.73388305  0.50671482  1
  O  O234  1  0.62837631  0.73816093  0.99316708  1
  O  O235  1  0.48917790  0.24801282  0.13149787  1
  O  O236  1  0.49355744  0.24504992  0.62916832  1
  O  O237  1  0.49463180  0.74146173  0.13251408  1
  O  O238  1  0.49432037  0.74042697  0.63409083  1
  O  O239  1  0.99714313  0.23529629  0.12532515  1
  O  O240  1  0.98955441  0.25795470  0.63154864  1
  O  O241  1  0.99580265  0.74375455  0.13467459  1
  O  O242  1  0.98881079  0.75539733  0.63494349  1
  O  O243  1  -0.00076607  0.26566155  0.37825919  1
  O  O244  1  0.00522124  0.25401590  0.86567776  1
  O  O245  1  0.00644149  0.75740384  0.36977224  1
  O  O246  1  0.00083549  0.74844598  0.86209963  1
  O  O247  1  0.50029981  0.26238069  0.36993057  1
  O  O248  1  0.51165950  0.24426300  0.86380546  1
  O  O249  1  0.50116967  0.75722695  0.36744660  1
  O  O250  1  0.50742557  0.74903346  0.86926879  1
  O  O251  1  0.32350507  0.11035805  0.44429965  1
  O  O252  1  0.24099548  0.13204990  0.99901912  1
  O  O253  1  0.24177744  0.62170964  0.48897191  1
  O  O254  1  0.25017466  0.62674940  0.98970263  1
  O  O255  1  0.74211595  0.13393250  0.49247730  1
  O  O256  1  0.74876869  0.11821996  0.98463149  1
  O  O257  1  0.74413276  0.62508572  0.48824363  1
  O  O258  1  0.74577247  0.62155197  0.98972337  1
  O  O259  1  0.25654745  0.36934359  0.00633654  1
  O  O260  1  0.25715198  0.38081103  0.50040996  1
  O  O261  1  0.25523779  0.87565303  0.01679768  1
  O  O262  1  0.26236595  0.87832201  0.49900585  1
  O  O263  1  0.75886231  0.37940088  0.01111944  1
  O  O264  1  0.74472304  0.36586764  0.50534085  1
  O  O265  1  0.75953747  0.87125443  0.00887125  1
  O  O266  1  0.75157414  0.87247137  0.51136881  1
  O  O267  1  0.13784924  0.49859782  0.24846843  1
  O  O268  1  0.12708435  0.49436301  0.74320474  1
  O  O269  1  0.14117111  0.99814994  0.26033044  1
  O  O270  1  0.11759945  0.98985362  0.73674887  1
  O  O271  1  0.63038896  0.49394662  0.24273233  1
  O  O272  1  0.62256533  0.50159663  0.73551780  1
  O  O273  1  0.62454744  0.99086194  0.24229622  1
  O  O274  1  0.62833852  0.99750058  0.74230988  1
  O  O275  1  0.36685363  -0.00093233  0.27381210  1
  O  O276  1  0.42578308  0.01407135  0.77200023  1
  O  O277  1  0.36471994  0.50609587  0.25255669  1
  O  O278  1  0.36626394  0.50232289  0.75091201  1
  O  O279  1  0.86843522  0.00568885  0.25552194  1
  O  O280  1  0.87074447  0.00635274  0.75226741  1
  O  O281  1  0.86516419  0.50880779  0.24500524  1
  O  O282  1  0.88293370  0.50722707  0.76016617  1
  O  O283  1  0.11355147  0.36650442  0.37495711  1
  O  O284  1  0.12031841  0.36956382  0.86470996  1
  O  O285  1  0.11655510  0.86523011  0.38266135  1
  O  O286  1  0.13095369  0.87975656  0.86008114  1
  O  O287  1  0.61486890  0.37251033  0.37345920  1
  O  O288  1  0.62982161  0.36114930  0.87388322  1
  O  O289  1  0.61989687  0.87598230  0.36379900  1
  O  O290  1  0.62370567  0.85652595  0.87628731  1
  O  O291  1  0.37982952  0.13634360  0.12293513  1
  O  O292  1  0.38005947  0.13963273  0.61663285  1
  O  O293  1  0.37925652  0.63068235  0.13275819  1
  O  O294  1  0.38057844  0.63026296  0.62761234  1
  O  O295  1  0.88657771  0.12499608  0.12132222  1
  O  O296  1  0.86637686  0.13416112  0.63773384  1
  O  O297  1  0.88283594  0.62839924  0.13350603  1
  O  O298  1  0.86858796  0.63364208  0.63584301  1
  O  O299  1  0.25473647  0.25518702  0.12230122  1
  O  O300  1  0.26277193  0.24776245  0.62555425  1
  O  O301  1  0.25764429  0.76262288  0.12980594  1
  O  O302  1  0.26251041  0.74952084  0.62944556  1
  O  O303  1  0.74847272  0.26093727  0.13004086  1
  O  O304  1  0.75380823  0.25815006  0.61901418  1
  O  O305  1  0.75524342  0.75955121  0.12468033  1
  O  O306  1  0.76084995  0.75784603  0.62735062  1
  O  O307  1  0.23963116  0.25328332  0.37625384  1
  O  O308  1  0.24216078  0.24412219  0.87885176  1
  O  O309  1  0.24029330  0.74274413  0.36870802  1
  O  O310  1  0.25003320  0.74199258  0.87610091  1
  O  O311  1  0.74341750  0.24708153  0.38352187  1
  O  O312  1  0.73361409  0.23901894  0.86713853  1
  O  O313  1  0.75256668  0.73716542  0.37174493  1
  O  O314  1  0.74288695  0.74015116  0.87604364  1
  O  O315  1  0.00866110  0.12216972  0.00514069  1
  O  O316  1  -0.00525730  0.11349073  0.50106314  1
  O  O317  1  -0.00131634  0.62268070  0.01232035  1
  O  O318  1  0.01044440  0.61273208  0.49155874  1
  O  O319  1  0.50232173  0.13278454  0.01357021  1
  O  O320  1  0.50284369  0.11631529  0.50938836  1
  O  O321  1  0.50555713  0.61737556  0.00569668  1
  O  O322  1  0.50700030  0.62835694  0.50796863  1
  O  O323  1  0.50133145  0.37586053  0.49046987  1
  O  O324  1  0.48468593  0.38038684  1.00578412  1
  O  O325  1  0.49824107  0.87781926  0.49552117  1
  O  O326  1  0.49846314  0.85938432  0.98911864  1
  O  O327  1  0.99971352  0.39032581  0.49027391  1
  O  O328  1  0.99242250  0.37412924  0.99275650  1
  O  O329  1  0.99804966  0.88107164  0.49340491  1
  O  O330  1  0.98554479  0.87472797  1.00512160  1
  O  O331  1  0.49552298  0.48347575  0.36685564  1
  O  O332  1  0.48978891  0.50478816  0.88276549  1
  O  O333  1  0.49599925  0.98315192  0.38297014  1
  O  O334  1  0.52614829  0.97369275  0.88718501  1
  O  O335  1  1.00410115  0.49132276  0.38606232  1
  O  O336  1  0.99224437  0.49113809  0.87510217  1
  O  O337  1  1.00334804  0.99430877  0.38773573  1
  O  O338  1  0.98613271  1.00629096  0.87426828  1
  O  O339  1  -0.00168808  0.01235315  0.11888291  1
  O  O340  1  0.00835752  -0.00358277  0.61173006  1
  O  O341  1  0.00148638  0.50822868  0.12585958  1
  O  O342  1  0.00998758  0.49658141  0.61328354  1
  O  O343  1  0.50516570  0.01058014  0.13521556  1
  O  O344  1  0.50123258  0.00597549  0.61749748  1
  O  O345  1  0.50349545  0.50323867  0.11913781  1
  O  O346  1  0.50487436  0.51465424  0.62888987  1
  O  O347  1  0.25182901  0.38430633  0.24334567  1
  O  O348  1  0.23875761  0.38401742  0.75436019  1
  O  O349  1  0.25313627  0.88169826  0.23719156  1
  O  O350  1  0.23742106  0.87420451  0.74562168  1
  O  O351  1  0.74435333  0.38116696  0.24566266  1
  O  O352  1  0.74711309  0.37246212  0.73835601  1
  O  O353  1  0.74196066  0.87311484  0.24454565  1
  O  O354  1  0.74756052  0.88051831  0.73974571  1
  O  O355  1  0.25023362  0.10943266  0.24094584  1
  O  O356  1  0.24666142  0.13061580  0.75962231  1
  O  O357  1  0.25392698  0.61997080  0.25919116  1
  O  O358  1  0.25463915  0.61864982  0.75513996  1
  O  O359  1  0.74393346  0.12627374  0.26564868  1
  O  O360  1  0.75558103  0.11937880  0.75585357  1
  O  O361  1  0.75592389  0.61839632  0.25349944  1
  O  O362  1  0.76386635  0.62964377  0.76176247  1
  O  O363  1  0.43316770  0.11379867  0.35154632  1
  O  O364  1  0.35699817  0.13547339  0.87523483  1
  O  O365  1  0.36733842  0.62470795  0.37176994  1
  O  O366  1  0.36553164  0.61832645  0.86876676  1
  O  O367  1  0.86322900  0.12463917  0.37631128  1
  O  O368  1  0.86608545  0.11979534  0.86393589  1
  O  O369  1  0.86829547  0.62760662  0.36251800  1
  O  O370  1  0.86976749  0.61596825  0.87061363  1
  O  O371  1  0.13774529  0.37288358  0.12599609  1
  O  O372  1  0.11984016  0.38308383  0.63582345  1
  O  O373  1  0.13465004  0.87384354  0.12620305  1
  O  O374  1  0.13067891  0.88523792  0.63286026  1
  O  O375  1  0.63073976  0.37809995  0.12826390  1
  O  O376  1  0.63299140  0.38540626  0.62480541  1
  O  O377  1  0.63015289  0.87748097  0.13450036  1
  O  O378  1  0.63183050  0.87939447  0.62638183  1
  O  O379  1  0.11939620  0.25463173  0.26161523  1
  O  O380  1  0.11726665  0.25628186  0.75001469  1
  O  O381  1  0.11405835  0.74478748  0.26351864  1
  O  O382  1  0.11599770  0.76228762  0.75025446  1
  O  O383  1  0.61859925  0.25910623  0.25856334  1
  O  O384  1  0.61694027  0.25627577  0.75695536  1
  O  O385  1  0.61243422  0.75677278  0.24335217  1
  O  O386  1  0.61795827  0.74590452  0.75754017  1
  O  O387  1  0.38215189  0.25680124  0.24216294  1
  O  O388  1  0.38277954  0.25872761  0.73361341  1
  O  O389  1  0.38619306  0.74456422  0.24268002  1
  O  O390  1  0.38214544  0.74507180  0.74399077  1
  O  O391  1  0.88129533  0.24292051  0.24505967  1
  O  O392  1  0.88011735  0.24369652  0.74283685  1
  O  O393  1  0.88396631  0.74209273  0.24401707  1
  O  O394  1  0.88431382  0.74575487  0.74605325  1
  O  O395  1  0.37364042  0.48568391  0.50307212  1
  O  O396  1  0.37732422  0.49192411  0.99481642  1
  O  O397  1  0.38785866  0.98640354  0.48961042  1
  O  O398  1  0.37790693  1.00201898  0.98825810  1
  O  O399  1  0.89026690  0.50878342  0.50323766  1
  O  O400  1  0.87776993  0.48953784  0.98692040  1
  O  O401  1  0.88704098  0.99819048  0.50013361  1
  O  O402  1  0.87530606  0.99117502  0.98865276  1
  O  O403  1  0.12521366  0.01103915  -0.00741164  1
  O  O404  1  0.11483189  -0.00080363  0.50991898  1
  O  O405  1  0.12216835  0.50519786  0.00363716  1
  O  O406  1  0.11980143  0.50862296  0.50715252  1
  O  O407  1  0.62860847  -0.00546460  0.01620214  1
  O  O408  1  0.61409522  0.00235030  0.50446433  1
  O  O409  1  0.61870477  0.50162229  0.00366557  1
  O  O410  1  0.62752947  0.51448748  0.51281206  1
  O  O411  1  0.36350214  0.36724927  0.11886666  1
  O  O412  1  0.37443357  0.36820139  0.61386138  1
  O  O413  1  0.38036812  0.86654285  0.12766329  1
  O  O414  1  0.37354391  0.86853128  0.62028881  1
  O  O415  1  0.86737754  0.37282729  0.11562360  1
  O  O416  1  0.86634477  0.36619888  0.62816062  1
  O  O417  1  0.86723131  0.87082605  0.12065020  1
  O  O418  1  0.86756504  0.86701542  0.62478363  1
  O  O419  1  0.11759432  0.14558449  0.37884142  1
  O  O420  1  0.13368002  0.13071914  0.87869406  1
  O  O421  1  0.13155660  0.63300301  0.38288292  1
  O  O422  1  0.13745314  0.62540863  0.87021291  1
  O  O423  1  0.62533716  0.13157767  0.38183519  1
  O  O424  1  0.62937739  0.13045698  0.87419774  1
  O  O425  1  0.63251233  0.62122445  0.38249301  1
  O  O426  1  0.63241666  0.62866794  0.87622116  1
