# generated using pymatgen
data_V85Zn86O256
_symmetry_space_group_name_H-M   'P 1'
_cell_length_a   16.94096438
_cell_length_b   16.95514818
_cell_length_c   16.94396522
_cell_angle_alpha   89.95538299
_cell_angle_beta   90.08643759
_cell_angle_gamma   90.00896798
_symmetry_Int_Tables_number   1
_chemical_formula_structural   V85Zn86O256
_chemical_formula_sum   'V85 Zn86 O256'
_cell_volume   4866.91923441
_cell_formula_units_Z   1
loop_
 _symmetry_equiv_pos_site_id
 _symmetry_equiv_pos_as_xyz
  1  'x, y, z'
loop_
 _atom_site_type_symbol
 _atom_site_label
 _atom_site_symmetry_multiplicity
 _atom_site_fract_x
 _atom_site_fract_y
 _atom_site_fract_z
 _atom_site_occupancy
  V  V0  1  0.12617699  0.12345861  -0.00293252  1
  V  V1  1  0.61749361  0.75552597  0.87352382  1
  V  V2  1  0.37741255  0.37539088  -0.00067313  1
  V  V3  1  0.50312423  0.24991248  0.25216363  1
  V  V4  1  0.74879020  -0.00628651  0.73402327  1
  V  V5  1  0.00016821  0.50033518  -0.00098966  1
  V  V6  1  0.11757146  0.12578632  0.49247536  1
  V  V7  1  0.70164048  0.80268096  0.55592082  1
  V  V8  1  0.50216448  0.74978417  0.25150181  1
  V  V9  1  0.50241196  -0.00877282  -0.00479736  1
  V  V10  1  0.00215875  0.76113007  0.24907202  1
  V  V11  1  0.24986278  0.49849718  0.24968323  1
  V  V12  1  0.75388529  0.62484214  0.37932243  1
  V  V13  1  0.12592522  0.49974147  0.12325561  1
  V  V14  1  0.37527529  0.50181875  0.87510084  1
  V  V15  1  0.86795856  0.74951249  0.12242287  1
  V  V16  1  -0.00227045  0.25407415  0.74050031  1
  V  V17  1  0.63289076  0.74993489  0.37396999  1
  V  V18  1  0.24384674  0.63114043  0.87504086  1
  V  V19  1  -0.00548495  0.37322583  0.87190212  1
  V  V20  1  0.63014832  0.62195205  0.50525700  1
  V  V21  1  0.37435510  0.87497967  -0.00300292  1
  V  V22  1  0.25273585  0.75081491  0.49733516  1
  V  V23  1  0.25060232  0.25194339  -0.00235295  1
  V  V24  1  -0.00773849  0.12530052  0.61879905  1
  V  V25  1  0.00062106  0.49935138  0.51419659  1
  V  V26  1  0.38262925  0.62779613  0.75188001  1
  V  V27  1  0.24833079  0.87900755  0.13671736  1
  V  V28  1  0.00562364  0.74401436  0.75158193  1
  V  V29  1  0.12430296  0.74837472  0.37044855  1
  V  V30  1  0.23285946  0.37650990  0.63080183  1
  V  V31  1  0.37382711  0.37270431  0.50359760  1
  V  V32  1  0.48520374  -0.00140802  0.49458637  1
  V  V33  1  0.76115095  0.36855603  0.61996269  1
  V  V34  1  0.62648348  0.25303148  0.37914665  1
  V  V35  1  0.62222491  0.13033410  -0.01289006  1
  V  V36  1  0.25298193  0.87723820  0.61958706  1
  V  V37  1  0.62861404  0.87933577  0.25059804  1
  V  V38  1  0.62528707  0.36342980  0.75528905  1
  V  V39  1  0.50303393  0.62630289  0.12367426  1
  V  V40  1  0.12325125  0.25161046  0.86720398  1
  V  V41  1  -0.00706972  0.13253525  0.12394202  1
  V  V42  1  0.25051730  0.37494674  0.12260313  1
  V  V43  1  0.37473061  0.49955777  0.37624128  1
  V  V44  1  0.37418258  0.74863965  0.62765583  1
  V  V45  1  0.49760136  0.12283647  0.62779860  1
  V  V46  1  0.00278087  0.88034544  0.38563120  1
  V  V47  1  -0.00002709  -0.00047275  -0.00246340  1
  V  V48  1  0.12558879  0.36585603  0.25463591  1
  V  V49  1  0.75321300  0.63375169  0.88264820  1
  V  V50  1  0.37430527  0.00553535  0.86947640  1
  V  V51  1  0.87179653  -0.00181436  0.37121028  1
  V  V52  1  0.62702581  0.11622199  0.50326496  1
  V  V53  1  0.00090416  0.62660290  0.12643630  1
  V  V54  1  0.74896256  0.48685498  0.25171676  1
  V  V55  1  0.37116343  0.11517174  0.25150606  1
  V  V56  1  0.87639583  0.62549971  0.74760868  1
  V  V57  1  0.12562801  0.87394371  0.75370990  1
  V  V58  1  0.24814751  0.01182006  0.74670169  1
  V  V59  1  0.00172984  0.87072124  0.87526057  1
  V  V60  1  0.12852352  -0.00141050  0.13635755  1
  V  V61  1  0.00468575  0.36877130  0.38086736  1
  V  V62  1  0.63101539  0.00100100  0.12497346  1
  V  V63  1  0.62502244  0.49583087  0.62952422  1
  V  V64  1  0.86693549  0.87314972  -0.00262902  1
  V  V65  1  0.11666966  0.00026400  0.61756186  1
  V  V66  1  0.74990322  0.87478788  0.12468510  1
  V  V67  1  0.87952245  0.49277748  0.38059345  1
  V  V68  1  0.74758751  0.12152942  0.36259870  1
  V  V69  1  0.37448556  0.75078496  0.12284884  1
  V  V70  1  0.37743095  0.24963534  0.12571870  1
  V  V71  1  0.37533274  0.62279443  0.25058044  1
  V  V72  1  0.50281056  0.37496681  0.37466612  1
  V  V73  1  0.87130309  0.36879927  0.01770898  1
  V  V74  1  0.87424734  0.12813563  0.75053214  1
  V  V75  1  0.37463299  0.24723195  0.63054809  1
  V  V76  1  0.23906032  0.24994553  0.49445025  1
  V  V77  1  0.12360944  0.62041087  0.51700558  1
  V  V78  1  0.50469522  0.49860459  -0.00009233  1
  V  V79  1  0.24019339  0.75486006  -0.00261358  1
  V  V80  1  0.24506321  0.12108791  0.36995198  1
  V  V81  1  0.49986423  0.12101774  0.12548191  1
  V  V82  1  0.88685842  0.75086690  0.61652749  1
  V  V83  1  0.62931156  0.49391711  0.13164603  1
  V  V84  1  0.87582556  0.62459218  0.25214766  1
  Zn  Zn85  1  -0.00773990  0.25260327  0.24846263  1
  Zn  Zn86  1  0.87112746  -0.00077970  0.87136839  1
  Zn  Zn87  1  0.74426840  0.12740621  0.86734142  1
  Zn  Zn88  1  0.24079919  0.50105035  0.73876981  1
  Zn  Zn89  1  0.49686057  0.86937737  0.38547113  1
  Zn  Zn90  1  0.24730611  0.62203707  0.37624178  1
  Zn  Zn91  1  0.36220071  -0.01568683  0.37049425  1
  Zn  Zn92  1  0.76375487  0.24992032  0.49981058  1
  Zn  Zn93  1  0.63312014  0.62994740  0.00250584  1
  Zn  Zn94  1  0.87165079  0.49960104  0.87756861  1
  Zn  Zn95  1  0.75203038  0.25398802  -0.00048928  1
  Zn  Zn96  1  0.49983776  0.23902267  0.75646353  1
  Zn  Zn97  1  0.50343100  0.62721205  0.62833361  1
  Zn  Zn98  1  0.75199014  0.49801631  0.75288343  1
  Zn  Zn99  1  0.86784556  0.12571468  0.24304387  1
  Zn  Zn100  1  0.49166290  0.86795117  0.84037048  1
  Zn  Zn101  1  0.12193472  0.63103362  -0.00186603  1
  Zn  Zn102  1  0.51079543  0.36501752  0.88200826  1
  Zn  Zn103  1  0.63307645  0.87374017  0.74281232  1
  Zn  Zn104  1  0.49897104  0.50101040  0.50352299  1
  Zn  Zn105  1  0.87472977  0.88355287  0.50522807  1
  Zn  Zn106  1  0.25336360  0.13028971  0.86836570  1
  Zn  Zn107  1  0.18630998  0.18631405  0.18516031  1
  Zn  Zn108  1  0.18049236  0.19388789  0.67864447  1
  Zn  Zn109  1  0.18795521  0.68803429  0.18670141  1
  Zn  Zn110  1  0.19259923  0.68926897  0.69178240  1
  Zn  Zn111  1  0.68950811  0.19324020  0.18292953  1
  Zn  Zn112  1  0.68905651  0.18609617  0.68344566  1
  Zn  Zn113  1  0.69024792  0.68257787  0.19092680  1
  Zn  Zn114  1  0.68916433  0.68440945  0.69596989  1
  Zn  Zn115  1  0.31323687  0.30789521  0.31389294  1
  Zn  Zn116  1  0.31732688  0.31425857  0.81234786  1
  Zn  Zn117  1  0.31427508  0.80905311  0.31410669  1
  Zn  Zn118  1  0.31007193  0.81524475  0.81017082  1
  Zn  Zn119  1  0.81743267  0.30625502  0.31251858  1
  Zn  Zn120  1  0.80847247  0.30707846  0.81616686  1
  Zn  Zn121  1  0.81361959  0.81498765  0.31212996  1
  Zn  Zn122  1  0.81370665  0.81038811  0.80957490  1
  Zn  Zn123  1  0.18609808  0.43777986  0.44123852  1
  Zn  Zn124  1  0.17168553  0.45253902  0.90477125  1
  Zn  Zn125  1  0.18445623  0.93719474  0.43497259  1
  Zn  Zn126  1  0.18865035  0.93913936  0.93595953  1
  Zn  Zn127  1  0.68895951  0.43783886  0.43994212  1
  Zn  Zn128  1  0.69162648  0.44318345  0.93740983  1
  Zn  Zn129  1  0.68566293  0.94320748  0.43246922  1
  Zn  Zn130  1  0.68981491  0.94129234  0.92806803  1
  Zn  Zn131  1  0.31177776  0.06236402  0.05979760  1
  Zn  Zn132  1  0.30959880  0.06571047  0.55955221  1
  Zn  Zn133  1  0.31302193  0.56413510  0.05885159  1
  Zn  Zn134  1  0.30972827  0.56053176  0.56331610  1
  Zn  Zn135  1  0.80927277  0.06024285  0.05637129  1
  Zn  Zn136  1  0.81551468  0.06301536  0.55442125  1
  Zn  Zn137  1  0.81340648  0.55745561  0.06427821  1
  Zn  Zn138  1  0.81353315  0.56123474  0.56760536  1
  Zn  Zn139  1  0.44298819  0.43598619  0.18756353  1
  Zn  Zn140  1  0.43951111  0.43847934  0.69030289  1
  Zn  Zn141  1  0.44102828  0.93450273  0.18747798  1
  Zn  Zn142  1  0.42991319  0.94850018  0.68470879  1
  Zn  Zn143  1  0.93982782  0.43893294  0.19252440  1
  Zn  Zn144  1  0.93945558  0.44113429  0.69436093  1
  Zn  Zn145  1  0.93725042  0.94273153  0.18841421  1
  Zn  Zn146  1  0.93482994  0.93692573  0.68682854  1
  Zn  Zn147  1  0.05960707  0.06200130  0.31114570  1
  Zn  Zn148  1  0.05978216  0.06247113  0.80926103  1
  Zn  Zn149  1  0.06296316  0.56191711  0.31428658  1
  Zn  Zn150  1  0.06482434  0.56098931  0.80960054  1
  Zn  Zn151  1  0.56158201  0.06208582  0.31362954  1
  Zn  Zn152  1  0.56410860  0.05047974  0.80546624  1
  Zn  Zn153  1  0.56423843  0.56233390  0.31537375  1
  Zn  Zn154  1  0.56594976  0.56242933  0.81370738  1
  Zn  Zn155  1  0.43277467  0.18554136  0.43834282  1
  Zn  Zn156  1  0.44144791  0.18529538  0.93761157  1
  Zn  Zn157  1  0.44147807  0.68715672  0.44067094  1
  Zn  Zn158  1  0.43951281  0.68922956  0.93744316  1
  Zn  Zn159  1  0.93522261  0.18474858  0.42999255  1
  Zn  Zn160  1  0.93249406  0.19124496  0.93537433  1
  Zn  Zn161  1  0.94436007  0.68262656  0.43754770  1
  Zn  Zn162  1  0.93813382  0.69036988  0.93736886  1
  Zn  Zn163  1  0.06439176  0.31422841  0.05727249  1
  Zn  Zn164  1  -0.05964836  0.31488195  0.56047992  1
  Zn  Zn165  1  0.06007219  0.81715886  0.06554414  1
  Zn  Zn166  1  0.06588454  0.80911950  0.56332454  1
  Zn  Zn167  1  0.59531664  0.29838237  0.08200160  1
  Zn  Zn168  1  0.56338716  0.31017661  0.56333598  1
  Zn  Zn169  1  0.56745596  0.81019713  0.05682925  1
  Zn  Zn170  1  0.52691243  0.84669077  0.60930900  1
  O  O171  1  0.12080341  0.11527000  0.11608769  1
  O  O172  1  0.11437740  0.11864733  0.61598673  1
  O  O173  1  0.11966740  0.61800007  0.12150319  1
  O  O174  1  0.13016168  0.62586055  0.61581464  1
  O  O175  1  0.61621989  0.11488713  0.11661280  1
  O  O176  1  0.61627655  0.13227675  0.60810690  1
  O  O177  1  0.61754776  0.62136416  0.12324913  1
  O  O178  1  0.62760816  0.61810461  0.62169995  1
  O  O179  1  0.37872684  0.37854900  0.38564334  1
  O  O180  1  0.37344117  0.38741067  0.88364760  1
  O  O181  1  0.38490974  0.87377800  0.36771440  1
  O  O182  1  0.37738423  0.88337078  0.87756176  1
  O  O183  1  0.88436782  0.38834165  0.37373950  1
  O  O184  1  0.88608111  0.37562226  0.87950144  1
  O  O185  1  0.88298632  0.87986681  0.37620532  1
  O  O186  1  0.88285131  0.87348296  0.88240452  1
  O  O187  1  0.24789276  0.01391861  0.37677289  1
  O  O188  1  0.25469940  0.00232993  0.86357279  1
  O  O189  1  0.25898827  0.49950268  0.36982121  1
  O  O190  1  0.26921885  0.51670944  0.89375470  1
  O  O191  1  0.75574920  0.00960623  0.37265294  1
  O  O192  1  0.75389405  0.00845846  0.86165505  1
  O  O193  1  0.75951457  0.50451113  0.37370164  1
  O  O194  1  0.75273450  0.51622688  0.87190580  1
  O  O195  1  0.24591427  0.49442389  0.12761679  1
  O  O196  1  0.25042923  0.48316888  0.62279180  1
  O  O197  1  0.23742960  0.99433863  0.11878865  1
  O  O198  1  0.24387226  0.99445409  0.62810104  1
  O  O199  1  0.74154621  0.50460047  0.13729014  1
  O  O200  1  0.74423074  0.48846354  0.62898446  1
  O  O201  1  0.73716676  0.99455768  0.12116631  1
  O  O202  1  0.75826581  1.00202876  0.63459425  1
  O  O203  1  0.01003550  0.37706286  0.25978852  1
  O  O204  1  -0.00300852  0.36585333  0.75866546  1
  O  O205  1  -0.00369842  0.86370952  0.25455066  1
  O  O206  1  0.00580061  0.86820942  0.75621987  1
  O  O207  1  0.49109858  0.36492304  0.26594233  1
  O  O208  1  0.51729390  0.37472588  0.74925081  1
  O  O209  1  0.51349723  0.86416438  0.24556515  1
  O  O210  1  0.51221816  0.88067131  0.72522895  1
  O  O211  1  0.49223106  0.13074074  0.24648812  1
  O  O212  1  0.50694568  0.12017101  0.73224713  1
  O  O213  1  0.49666970  0.62971042  0.24325770  1
  O  O214  1  0.48689543  0.62156228  0.74948231  1
  O  O215  1  1.00482385  0.12664657  0.23154019  1
  O  O216  1  0.99441144  0.13086307  0.73946390  1
  O  O217  1  0.99374964  0.63141270  0.24488153  1
  O  O218  1  0.99515608  0.63623622  0.76118321  1
  O  O219  1  0.37134172  0.25339630  0.00827179  1
  O  O220  1  0.36556513  0.25692560  0.50501677  1
  O  O221  1  0.36988420  0.75760096  0.00575548  1
  O  O222  1  0.35762571  0.73886241  0.50407925  1
  O  O223  1  0.87743034  0.26444370  0.00544635  1
  O  O224  1  0.87634811  0.24801912  0.49984380  1
  O  O225  1  0.88335458  0.76084857  0.01197921  1
  O  O226  1  0.88270514  0.74350810  0.51483516  1
  O  O227  1  0.13770901  0.23898892  0.50256065  1
  O  O228  1  0.12973162  0.23827524  0.99435347  1
  O  O229  1  0.13155806  0.73730357  0.49635110  1
  O  O230  1  0.13690145  0.75360266  1.00557420  1
  O  O231  1  0.62170731  0.23926590  0.48862474  1
  O  O232  1  0.60008035  0.22846646  0.98879857  1
  O  O233  1  0.63609193  0.74449033  0.49633622  1
  O  O234  1  0.62564926  0.74660329  0.98236508  1
  O  O235  1  0.49989146  0.24302192  0.13519679  1
  O  O236  1  0.49119698  0.24122292  0.62426000  1
  O  O237  1  0.49757836  0.74061351  0.12670791  1
  O  O238  1  0.47759942  0.74434899  0.61211559  1
  O  O239  1  1.00762039  0.23390857  0.12044124  1
  O  O240  1  1.00147321  0.24358084  0.63453699  1
  O  O241  1  0.99375655  0.74734037  0.13231510  1
  O  O242  1  0.99375005  0.74811182  0.63397234  1
  O  O243  1  0.00001343  0.26612000  0.37422219  1
  O  O244  1  0.00419308  0.25427244  0.86519829  1
  O  O245  1  0.00505460  0.75523600  0.36732642  1
  O  O246  1  0.00038097  0.76249152  0.86811626  1
  O  O247  1  0.50248383  0.25536458  0.37145551  1
  O  O248  1  0.47993122  0.25773422  0.86515869  1
  O  O249  1  0.51553267  0.74861997  0.37274512  1
  O  O250  1  0.51106674  0.75359417  0.87299275  1
  O  O251  1  0.24079706  0.13123254  0.49230731  1
  O  O252  1  0.24161216  0.13193573  0.99648345  1
  O  O253  1  0.23750498  0.62814804  0.49816914  1
  O  O254  1  0.25054198  0.63911650  0.99577365  1
  O  O255  1  0.73693239  0.12648539  0.49317797  1
  O  O256  1  0.72989107  0.12353359  1.00054247  1
  O  O257  1  0.73987949  0.61777297  0.49473619  1
  O  O258  1  0.75463117  0.62278185  0.98681168  1
  O  O259  1  0.25763892  0.36804803  0.00630308  1
  O  O260  1  0.25508139  0.36767257  0.50561888  1
  O  O261  1  0.25587036  0.87062334  0.00407110  1
  O  O262  1  0.24062204  0.86425367  0.50839287  1
  O  O263  1  0.77007028  0.38242359  -0.00368502  1
  O  O264  1  0.74748991  0.37440732  0.51641193  1
  O  O265  1  0.76171016  0.88038547  0.00336559  1
  O  O266  1  0.75224260  0.86889682  0.49620976  1
  O  O267  1  0.13239562  0.49425890  0.24324068  1
  O  O268  1  0.14469122  0.48739346  0.79578034  1
  O  O269  1  0.12541901  1.00263686  0.23442711  1
  O  O270  1  0.12920059  0.99390746  0.73953227  1
  O  O271  1  0.63812500  0.51041086  0.24534029  1
  O  O272  1  0.62802110  0.49517826  0.74017937  1
  O  O273  1  0.61622902  0.99057384  0.23853783  1
  O  O274  1  0.64315214  0.99607750  0.74410262  1
  O  O275  1  0.38067586  0.01231359  0.24842200  1
  O  O276  1  0.36069932  -0.00094031  0.75706788  1
  O  O277  1  0.37048511  0.50267597  0.25528600  1
  O  O278  1  0.37033152  0.50633263  0.76011565  1
  O  O279  1  0.87946608  0.00678063  0.26222488  1
  O  O280  1  0.86946865  0.00919854  0.74872914  1
  O  O281  1  0.87085492  0.50634664  0.25947217  1
  O  O282  1  0.87567795  0.51255443  0.75544873  1
  O  O283  1  0.11818490  0.38236228  0.36593389  1
  O  O284  1  0.10820741  0.35593116  0.89216572  1
  O  O285  1  0.11676436  0.86017119  0.37992492  1
  O  O286  1  0.11946127  0.88033828  0.86165128  1
  O  O287  1  0.61473108  0.36700923  0.38259408  1
  O  O288  1  0.62776977  0.38305799  0.85919284  1
  O  O289  1  0.62299928  0.86800639  0.36719775  1
  O  O290  1  0.62150622  0.86470061  0.87201312  1
  O  O291  1  0.38011860  0.12931652  0.12968324  1
  O  O292  1  0.38328311  0.13597258  0.61478304  1
  O  O293  1  0.38312346  0.63013821  0.12940696  1
  O  O294  1  0.37062062  0.63069401  0.63464534  1
  O  O295  1  0.88995010  0.11588789  0.12027970  1
  O  O296  1  0.88804614  0.11978731  0.62775963  1
  O  O297  1  0.88012140  0.63264312  0.13003592  1
  O  O298  1  0.87141624  0.63625695  0.63858719  1
  O  O299  1  0.25610206  0.25533938  0.11914830  1
  O  O300  1  0.25616564  0.25710919  0.61531643  1
  O  O301  1  0.25498729  0.75802124  0.11772539  1
  O  O302  1  0.25392160  0.75741007  0.61743942  1
  O  O303  1  0.70522266  0.26577380  0.10322037  1
  O  O304  1  0.74634724  0.26524281  0.62140337  1
  O  O305  1  0.76235548  0.75296944  0.12934493  1
  O  O306  1  0.76015735  0.74714618  0.62056559  1
  O  O307  1  0.25389348  0.23813767  0.38404069  1
  O  O308  1  0.24201159  0.25006431  0.87755362  1
  O  O309  1  0.24161283  0.74660613  0.38073333  1
  O  O310  1  0.25751235  0.74462931  0.88585491  1
  O  O311  1  0.74033271  0.24385527  0.37887810  1
  O  O312  1  0.75495977  0.23901788  0.88589767  1
  O  O313  1  0.74047592  0.74346211  0.36958453  1
  O  O314  1  0.74495190  0.73931622  0.87331489  1
  O  O315  1  0.00634081  0.12106270  0.00630543  1
  O  O316  1  0.01022910  0.12982699  0.50363137  1
  O  O317  1  0.00051645  0.61839995  0.00568047  1
  O  O318  1  0.01497750  0.61527472  0.50047300  1
  O  O319  1  0.50388845  0.10819163  0.00350410  1
  O  O320  1  0.50718080  0.11689065  0.50073249  1
  O  O321  1  0.50126518  0.61665567  0.00791567  1
  O  O322  1  0.51740305  0.62280122  0.50145866  1
  O  O323  1  0.49163308  0.37404097  0.49070609  1
  O  O324  1  0.49682940  0.38958863  1.00070760  1
  O  O325  1  0.50474610  0.89630094  0.50536792  1
  O  O326  1  0.49335958  0.88375967  1.00368383  1
  O  O327  1  1.00375387  0.39121689  0.49532121  1
  O  O328  1  0.99026686  0.38124172  0.99640130  1
  O  O329  1  0.99788216  0.86708543  0.48894838  1
  O  O330  1  0.99452076  0.87942509  0.99224912  1
  O  O331  1  0.49346652  0.49156101  0.37635383  1
  O  O332  1  0.49229163  0.50172445  0.88423133  1
  O  O333  1  0.49775251  0.99887348  0.38664505  1
  O  O334  1  0.49220027  0.99085715  0.87720777  1
  O  O335  1  0.99504138  0.49463461  0.38230481  1
  O  O336  1  0.99700699  0.49133960  0.88395349  1
  O  O337  1  0.99622059  0.98603817  0.36889214  1
  O  O338  1  0.99935690  0.98779382  0.87862141  1
  O  O339  1  0.01203425  0.00503599  0.11757009  1
  O  O340  1  0.00829249  0.00769021  0.62824993  1
  O  O341  1  0.00618145  0.50632670  0.11984585  1
  O  O342  1  -0.00075579  0.49723264  0.61325602  1
  O  O343  1  0.50783655  0.00174869  0.11545970  1
  O  O344  1  0.48871055  0.01218251  0.60769458  1
  O  O345  1  0.50253655  0.51343729  0.12164274  1
  O  O346  1  0.50972635  0.50310631  0.62315982  1
  O  O347  1  0.24524407  0.37819806  0.24472895  1
  O  O348  1  0.25545247  0.37285830  0.73335642  1
  O  O349  1  0.25242442  0.86910903  0.23540688  1
  O  O350  1  0.24019048  0.88270476  0.74149024  1
  O  O351  1  0.75215692  0.38825729  0.26108958  1
  O  O352  1  0.74128558  0.37472229  0.74160724  1
  O  O353  1  0.73624887  0.86998035  0.24276290  1
  O  O354  1  0.75512332  0.88890982  0.74989363  1
  O  O355  1  0.25813866  0.13254877  0.25705743  1
  O  O356  1  0.24023023  0.11460275  0.74559356  1
  O  O357  1  0.25736034  0.61741475  0.25057285  1
  O  O358  1  0.25849817  0.62248368  0.75988838  1
  O  O359  1  0.74271434  0.12811365  0.25884910  1
  O  O360  1  0.75903205  0.11886202  0.74437662  1
  O  O361  1  0.76013553  0.61934395  0.26030801  1
  O  O362  1  0.76153077  0.62402209  0.76128599  1
  O  O363  1  0.36549943  0.12277757  0.36520823  1
  O  O364  1  0.37127824  0.10885320  0.88160981  1
  O  O365  1  0.37588514  0.61668945  0.36967461  1
  O  O366  1  0.37118386  0.62312863  0.86914585  1
  O  O367  1  0.86328086  0.11657897  0.37118119  1
  O  O368  1  0.88154662  0.11981646  0.86137165  1
  O  O369  1  0.87360828  0.61728377  0.37139369  1
  O  O370  1  0.86691683  0.63012457  0.86859623  1
  O  O371  1  0.12961300  0.38203875  0.13004340  1
  O  O372  1  0.13789633  0.36886750  0.62519436  1
  O  O373  1  0.13181101  0.89090875  0.11922639  1
  O  O374  1  0.12993134  0.88292113  0.63072677  1
  O  O375  1  0.60319994  0.39807608  0.13518876  1
  O  O376  1  0.63137454  0.37981535  0.63285730  1
  O  O377  1  0.63094268  0.87920495  0.12865698  1
  O  O378  1  0.64194234  0.85808843  0.61617922  1
  O  O379  1  0.12162870  0.26386754  0.24329060  1
  O  O380  1  0.11477579  0.24374374  0.75900858  1
  O  O381  1  0.11509400  0.74428531  0.25762660  1
  O  O382  1  0.11706258  0.76045092  0.74304824  1
  O  O383  1  0.61017842  0.24333054  0.26457748  1
  O  O384  1  0.62319094  0.26068260  0.74662606  1
  O  O385  1  0.62139451  0.75305914  0.25747302  1
  O  O386  1  0.63172931  0.75362539  0.76603197  1
  O  O387  1  0.38485224  0.24185072  0.24509839  1
  O  O388  1  0.37354327  0.25135909  0.73324243  1
  O  O389  1  0.38229716  0.74148337  0.24197480  1
  O  O390  1  0.36677828  0.74168854  0.73972746  1
  O  O391  1  0.87901062  0.23990405  0.24975687  1
  O  O392  1  0.88385776  0.23860382  0.75081318  1
  O  O393  1  0.88293007  0.74494493  0.24345343  1
  O  O394  1  0.88618582  0.74563252  0.74220720  1
  O  O395  1  0.37626623  0.49213283  0.49377575  1
  O  O396  1  0.38609727  0.49680012  0.99765252  1
  O  O397  1  0.38203453  1.00567930  0.49117730  1
  O  O398  1  0.38060240  0.99251139  0.99311985  1
  O  O399  1  0.89170791  0.51116180  0.49487553  1
  O  O400  1  0.88733944  0.49297256  1.00088571  1
  O  O401  1  0.87500114  0.99831398  0.48151583  1
  O  O402  1  0.88260130  0.99056787  0.99717255  1
  O  O403  1  0.12088010  0.01095260  0.00030691  1
  O  O404  1  0.12917539  0.00906300  0.51053292  1
  O  O405  1  0.11300576  0.50007973  0.00242608  1
  O  O406  1  0.11642827  0.51290334  0.49732836  1
  O  O407  1  0.61720431  0.00115743  0.00404297  1
  O  O408  1  0.61642954  0.01373318  0.49505409  1
  O  O409  1  0.62024683  0.50490352  0.00921353  1
  O  O410  1  0.62452255  0.50553998  0.51182725  1
  O  O411  1  0.37267443  0.36939579  0.12008828  1
  O  O412  1  0.37812970  0.36859002  0.61299297  1
  O  O413  1  0.36778705  0.87136233  0.11873225  1
  O  O414  1  0.35953589  0.86802277  0.62793790  1
  O  O415  1  0.87913697  0.37886940  0.11625923  1
  O  O416  1  0.86487355  0.37807040  0.62937521  1
  O  O417  1  0.86994720  0.87019675  0.12005241  1
  O  O418  1  0.87987180  0.85702227  0.62184944  1
  O  O419  1  0.12853071  0.12157736  0.38180319  1
  O  O420  1  0.12395103  0.13332454  0.88120365  1
  O  O421  1  0.12469998  0.63621947  0.38091910  1
  O  O422  1  0.14061069  0.62971154  0.87968305  1
  O  O423  1  0.62932118  0.13001347  0.38280228  1
  O  O424  1  0.61927657  0.11423761  0.88538596  1
  O  O425  1  0.63205248  0.63148943  0.38371817  1
  O  O426  1  0.63611757  0.63384448  0.87536973  1
