# generated using pymatgen
data_V85Zn86O256
_symmetry_space_group_name_H-M   'P 1'
_cell_length_a   16.93629388
_cell_length_b   16.94697581
_cell_length_c   16.93502837
_cell_angle_alpha   89.92212864
_cell_angle_beta   89.97149759
_cell_angle_gamma   90.00814471
_symmetry_Int_Tables_number   1
_chemical_formula_structural   V85Zn86O256
_chemical_formula_sum   'V85 Zn86 O256'
_cell_volume   4860.66913708
_cell_formula_units_Z   1
loop_
 _symmetry_equiv_pos_site_id
 _symmetry_equiv_pos_as_xyz
  1  'x, y, z'
loop_
 _atom_site_type_symbol
 _atom_site_label
 _atom_site_symmetry_multiplicity
 _atom_site_fract_x
 _atom_site_fract_y
 _atom_site_fract_z
 _atom_site_occupancy
  V  V0  1  0.88052504  0.49130336  0.37594732  1
  V  V1  1  0.88071767  0.75392039  0.61776116  1
  V  V2  1  0.62257472  0.74868519  0.36666936  1
  V  V3  1  0.12313365  0.49994550  0.12024499  1
  V  V4  1  -0.00244805  0.75089157  0.25313856  1
  V  V5  1  0.25424414  0.36841958  0.12704869  1
  V  V6  1  0.73958214  0.86941072  0.12412472  1
  V  V7  1  0.24524856  0.74360613  0.50285354  1
  V  V8  1  -0.00094646  0.25088205  0.25315188  1
  V  V9  1  0.00672006  0.37627358  0.87534950  1
  V  V10  1  0.00687657  0.62819912  0.62680076  1
  V  V11  1  0.00249282  0.51141052  -0.00772149  1
  V  V12  1  0.40431377  0.84020939  -0.01028982  1
  V  V13  1  0.49921518  0.25152089  0.74939828  1
  V  V14  1  -0.00489773  0.86901023  0.86630972  1
  V  V15  1  0.75789520  0.11788754  0.37490740  1
  V  V16  1  0.37522916  0.87453110  0.49883262  1
  V  V17  1  -0.01199073  0.88236746  0.38004037  1
  V  V18  1  0.61233607  0.86166020  0.76623405  1
  V  V19  1  -0.00200838  0.12207945  0.63066160  1
  V  V20  1  0.25033682  0.87953482  0.62908602  1
  V  V21  1  0.25666107  0.50284843  0.75623960  1
  V  V22  1  0.62273504  -0.00614145  0.62904908  1
  V  V23  1  0.11996921  0.24860668  0.37774064  1
  V  V24  1  0.62999059  0.51013037  0.62321443  1
  V  V25  1  0.74543737  0.62227241  0.38437987  1
  V  V26  1  0.13133413  0.50807622  0.61941394  1
  V  V27  1  0.50105265  0.37652930  0.37710000  1
  V  V28  1  0.75276608  0.37943611  0.62613007  1
  V  V29  1  0.86522918  0.49812957  0.86292637  1
  V  V30  1  0.62914296  0.38323838  0.74942275  1
  V  V31  1  0.37344545  0.11971296  0.76339439  1
  V  V32  1  0.49406921  0.37812696  0.87332105  1
  V  V33  1  0.87353358  0.62239420  0.25035192  1
  V  V34  1  0.49924601  0.63288077  0.12304258  1
  V  V35  1  0.37765544  0.37599244  0.50022597  1
  V  V36  1  0.13214814  -0.00421804  0.12426818  1
  V  V37  1  0.36925933  0.12290127  0.24772764  1
  V  V38  1  0.38451175  0.75306697  0.63467296  1
  V  V39  1  0.12928527  0.87194961  0.24832096  1
  V  V40  1  0.75551982  0.25086773  -0.00356308  1
  V  V41  1  0.49849877  -0.00276241  0.49831357  1
  V  V42  1  0.12234060  0.37512917  0.25682927  1
  V  V43  1  0.62983120  0.13204745  0.00196160  1
  V  V44  1  0.86977237  0.01573804  0.86668147  1
  V  V45  1  0.86637633  0.87823984  -0.00306846  1
  V  V46  1  0.00030520  0.62485295  0.12142074  1
  V  V47  1  0.75450863  -0.00552946  0.25000897  1
  V  V48  1  0.62437736  0.37498032  0.25094942  1
  V  V49  1  0.74511787  0.75317851  0.49983532  1
  V  V50  1  0.25062454  0.49964430  0.25116468  1
  V  V51  1  0.87624464  0.24944706  0.12609284  1
  V  V52  1  0.25111043  0.37579902  0.62663075  1
  V  V53  1  0.62716554  0.50081594  0.12397574  1
  V  V54  1  0.75144993  0.87742941  0.62313594  1
  V  V55  1  0.49824772  0.50036921  -0.00290905  1
  V  V56  1  0.24895443  0.24742058  0.50019631  1
  V  V57  1  0.24270564  0.62420953  0.88729731  1
  V  V58  1  0.87455019  0.24651072  0.62726505  1
  V  V59  1  -0.00056229  0.24837259  0.75143388  1
  V  V60  1  0.24981298  0.00004864  0.76968473  1
  V  V61  1  0.49494584  0.12757964  0.12523353  1
  V  V62  1  0.62209195  -0.00172361  0.12745048  1
  V  V63  1  0.38082693  0.62831991  0.75951494  1
  V  V64  1  0.75032537  0.49947241  0.25216389  1
  V  V65  1  0.37517093  0.37513271  0.00430303  1
  V  V66  1  0.62486361  0.24617832  0.37511590  1
  V  V67  1  0.50514908  0.51385926  0.50106430  1
  V  V68  1  0.25139764  0.24447026  -0.00542751  1
  V  V69  1  0.50791144  0.87619556  0.36421606  1
  V  V70  1  0.86966155  0.74931213  0.11951841  1
  V  V71  1  0.64147892  0.62655282  -0.01212347  1
  V  V72  1  0.37500003  0.63383107  0.24652274  1
  V  V73  1  0.86591693  0.62793541  0.74628577  1
  V  V74  1  0.23326492  0.76130156  0.01438972  1
  V  V75  1  -0.00247902  0.00225453  0.00177726  1
  V  V76  1  0.12414342  0.11480299  0.50102154  1
  V  V77  1  0.37459257  0.24831833  0.62488262  1
  V  V78  1  0.37623421  0.50306364  0.37478229  1
  V  V79  1  0.49250790  0.25094957  0.24664717  1
  V  V80  1  0.49342279  0.00996343  -0.02285150  1
  V  V81  1  0.62325471  0.11997760  0.49962316  1
  V  V82  1  0.63245800  0.25356788  0.87356530  1
  V  V83  1  0.00586813  0.49792924  0.49730403  1
  V  V84  1  0.49689749  0.12431920  0.62502924  1
  Zn  Zn85  1  0.25285044  -0.01067623  0.24707167  1
  Zn  Zn86  1  0.00190224  0.12369055  0.12762728  1
  Zn  Zn87  1  0.24955165  0.11840662  0.37442273  1
  Zn  Zn88  1  0.87840830  0.37712901  -0.00031620  1
  Zn  Zn89  1  0.74896042  0.01119899  0.75197156  1
  Zn  Zn90  1  0.75249287  0.37468540  0.12534710  1
  Zn  Zn91  1  0.12991781  0.12088359  -0.00278405  1
  Zn  Zn92  1  0.11658632  0.74572205  0.38422336  1
  Zn  Zn93  1  0.49916157  0.75947983  0.24078290  1
  Zn  Zn94  1  0.88093825  0.37161655  0.49854473  1
  Zn  Zn95  1  0.12874111  0.37389876  0.74949073  1
  Zn  Zn96  1  0.12251770  -0.00289787  0.62939142  1
  Zn  Zn97  1  0.37291239  -0.00374657  0.36927696  1
  Zn  Zn98  1  0.50610647  0.63312680  0.63239520  1
  Zn  Zn99  1  0.75149756  0.24938271  0.50034804  1
  Zn  Zn100  1  0.12121659  0.86693991  0.75029955  1
  Zn  Zn101  1  0.87864538  0.12001911  0.25313699  1
  Zn  Zn102  1  0.70093422  0.77984121  -0.07724521  1
  Zn  Zn103  1  0.24379169  0.62260982  0.38088085  1
  Zn  Zn104  1  0.11083407  0.73783361  0.87474713  1
  Zn  Zn105  1  -0.01693070  -0.00261395  0.50214724  1
  Zn  Zn106  1  0.13002724  0.24122155  0.87039378  1
  Zn  Zn107  1  0.18438600  0.18636814  0.18132925  1
  Zn  Zn108  1  0.18637217  0.18230138  0.69078561  1
  Zn  Zn109  1  0.18145217  0.68171318  0.19492798  1
  Zn  Zn110  1  0.18870086  0.69174519  0.69516725  1
  Zn  Zn111  1  0.68900503  0.18638440  0.18836900  1
  Zn  Zn112  1  0.68808622  0.19008112  0.68793427  1
  Zn  Zn113  1  0.68593622  0.68437202  0.18732111  1
  Zn  Zn114  1  0.69124730  0.69112974  0.69134139  1
  Zn  Zn115  1  0.31034650  0.31051634  0.31561613  1
  Zn  Zn116  1  0.31578802  0.31260996  0.81340185  1
  Zn  Zn117  1  0.31335359  0.81113649  0.31632077  1
  Zn  Zn118  1  0.30950611  0.80927083  0.82237130  1
  Zn  Zn119  1  0.81037093  0.31070594  0.31227207  1
  Zn  Zn120  1  0.81626948  0.31409580  0.80988489  1
  Zn  Zn121  1  0.80836025  0.80963867  0.30567607  1
  Zn  Zn122  1  0.81766330  0.82089791  0.79643925  1
  Zn  Zn123  1  0.18854166  0.43729283  0.43815051  1
  Zn  Zn124  1  0.18807261  0.43758593  0.93699428  1
  Zn  Zn125  1  0.18627360  0.93290900  0.43132313  1
  Zn  Zn126  1  0.18159326  0.93297090  0.93855600  1
  Zn  Zn127  1  0.68884515  0.43627429  0.44250939  1
  Zn  Zn128  1  0.68911080  0.43563244  0.93912962  1
  Zn  Zn129  1  0.80911873  0.93718792  0.43701801  1
  Zn  Zn130  1  0.68500717  0.94997011  0.93793276  1
  Zn  Zn131  1  0.31638929  0.05799972  0.06323970  1
  Zn  Zn132  1  0.31241100  0.06045458  0.56446262  1
  Zn  Zn133  1  0.31378646  0.55891956  0.06497493  1
  Zn  Zn134  1  0.32120160  0.56552761  0.56837438  1
  Zn  Zn135  1  0.81257241  0.06473680  0.06484007  1
  Zn  Zn136  1  0.80963349  0.06723291  0.56709775  1
  Zn  Zn137  1  0.81788591  0.55678638  0.06006214  1
  Zn  Zn138  1  0.81671467  0.56176614  0.56176000  1
  Zn  Zn139  1  0.43778590  0.44158817  0.18592594  1
  Zn  Zn140  1  0.43890686  0.44336142  0.68677158  1
  Zn  Zn141  1  0.43332375  0.93505305  0.17329302  1
  Zn  Zn142  1  0.43838132  0.93612034  0.69763561  1
  Zn  Zn143  1  0.93970550  0.43341858  0.18760200  1
  Zn  Zn144  1  0.94210758  0.43659225  0.68612081  1
  Zn  Zn145  1  0.93667604  0.93468155  0.18535794  1
  Zn  Zn146  1  0.93233078  0.94193610  0.68721874  1
  Zn  Zn147  1  0.06416798  0.06049289  0.31153917  1
  Zn  Zn148  1  0.06528881  0.06008889  0.81705359  1
  Zn  Zn149  1  0.06369358  0.56563804  0.31468204  1
  Zn  Zn150  1  0.06450330  0.56226675  0.80335313  1
  Zn  Zn151  1  0.56349336  0.05879046  0.30935000  1
  Zn  Zn152  1  0.58914469  0.07550187  0.80324193  1
  Zn  Zn153  1  0.56229964  0.56688707  0.31157987  1
  Zn  Zn154  1  0.56458405  0.56280702  0.81375974  1
  Zn  Zn155  1  0.43559135  0.18527150  0.43366823  1
  Zn  Zn156  1  0.43908707  0.19354565  0.94084465  1
  Zn  Zn157  1  0.43392673  0.69140048  0.43607763  1
  Zn  Zn158  1  0.42600611  0.67724572  0.94613983  1
  Zn  Zn159  1  0.93918946  0.18618161  0.44249906  1
  Zn  Zn160  1  0.94239443  0.18751266  0.93773420  1
  Zn  Zn161  1  0.93615475  0.68143096  0.44060340  1
  Zn  Zn162  1  0.88868922  0.70613100  0.91434041  1
  Zn  Zn163  1  0.06399553  0.31488368  0.06269056  1
  Zn  Zn164  1  0.06344590  0.31366095  0.56326544  1
  Zn  Zn165  1  0.05945618  0.81250192  0.05876371  1
  Zn  Zn166  1  0.06377542  0.81606934  0.56378760  1
  Zn  Zn167  1  0.56333102  0.31365710  0.06449015  1
  Zn  Zn168  1  0.56458714  0.31491974  0.56260771  1
  Zn  Zn169  1  0.56160422  0.81103217  0.04369923  1
  Zn  Zn170  1  0.56551921  0.81188739  0.55547788  1
  O  O171  1  0.12115551  0.11392374  0.11920678  1
  O  O172  1  0.11761123  0.12218420  0.61697336  1
  O  O173  1  0.11489020  0.60683274  0.13466120  1
  O  O174  1  0.12221618  0.61824787  0.62793515  1
  O  O175  1  0.61777592  0.12182089  0.11933582  1
  O  O176  1  0.61507870  0.12016629  0.61535505  1
  O  O177  1  0.62073660  0.61327276  0.11922802  1
  O  O178  1  0.62511453  0.61400569  0.63308834  1
  O  O179  1  0.38156798  0.38184495  0.37948290  1
  O  O180  1  0.38859019  0.37376195  0.88173088  1
  O  O181  1  0.38390341  0.87410477  0.38454843  1
  O  O182  1  0.36336315  0.87323995  0.90299536  1
  O  O183  1  0.86772343  0.38751901  0.37649373  1
  O  O184  1  0.88780881  0.38632998  0.87064404  1
  O  O185  1  0.88302971  0.87197949  0.37090352  1
  O  O186  1  0.88041714  0.88600662  0.88074869  1
  O  O187  1  0.25280201  0.00026523  0.36677293  1
  O  O188  1  0.24685913  -0.00221454  0.86817393  1
  O  O189  1  0.25872251  0.50002850  0.37023100  1
  O  O190  1  0.24715000  0.50697727  0.86563412  1
  O  O191  1  0.74601439  0.00630185  0.36405273  1
  O  O192  1  0.76586472  0.00034906  0.87583363  1
  O  O193  1  0.75381333  0.50594002  0.37266922  1
  O  O194  1  0.76712324  0.49167964  0.87350115  1
  O  O195  1  0.24134082  0.49026614  0.13041225  1
  O  O196  1  0.24887742  0.49425594  0.62785667  1
  O  O197  1  0.23709279  1.00084025  0.12499652  1
  O  O198  1  0.24969490  0.98674140  0.62714945  1
  O  O199  1  0.74462959  0.49800729  0.13211558  1
  O  O200  1  0.74257494  0.49165448  0.61748916  1
  O  O201  1  0.74189653  0.99233474  0.12760179  1
  O  O202  1  0.73957532  0.99485450  0.62725365  1
  O  O203  1  0.00969046  0.36222519  0.24922003  1
  O  O204  1  0.00593959  0.36789129  0.75575630  1
  O  O205  1  0.00006229  0.86710817  0.25957464  1
  O  O206  1  -0.00453558  0.88042115  0.76368163  1
  O  O207  1  0.50405244  0.36894437  0.25565069  1
  O  O208  1  0.50324774  0.37394558  0.75711954  1
  O  O209  1  0.48899721  0.87518379  0.25746722  1
  O  O210  1  0.51252489  0.87106452  0.75720439  1
  O  O211  1  0.49245295  0.13162982  0.24484417  1
  O  O212  1  0.49601182  0.13193825  0.74170760  1
  O  O213  1  0.49222531  0.62440239  0.23994842  1
  O  O214  1  0.48597015  0.62003972  0.75350027  1
  O  O215  1  0.99915082  0.13713656  0.25146380  1
  O  O216  1  1.00630472  0.13122438  0.73757432  1
  O  O217  1  0.99091600  0.63135328  0.24337625  1
  O  O218  1  0.99220977  0.61785667  0.73186904  1
  O  O219  1  0.36575378  0.26409793  -0.00049746  1
  O  O220  1  0.37079759  0.25482556  0.50450744  1
  O  O221  1  0.34625854  0.74738890  0.00283328  1
  O  O222  1  0.36982785  0.76097113  0.50876777  1
  O  O223  1  0.87139729  0.25161512  0.00679468  1
  O  O224  1  0.87407439  0.25358315  0.51032029  1
  O  O225  1  0.87788287  0.76075774  0.01445188  1
  O  O226  1  0.86234081  0.74155273  0.50990472  1
  O  O227  1  0.12748057  0.24252110  0.49399915  1
  O  O228  1  0.14187920  0.25405569  1.00165902  1
  O  O229  1  0.14233975  0.75373575  0.50420131  1
  O  O230  1  0.12682233  0.74686546  0.99323204  1
  O  O231  1  0.62208520  0.23853662  0.49248849  1
  O  O232  1  0.63513940  0.25047253  0.99844332  1
  O  O233  1  0.63805569  0.74960211  0.48888153  1
  O  O234  1  0.63804360  0.73127143  1.00447050  1
  O  O235  1  0.50688280  0.24258642  0.13643575  1
  O  O236  1  0.49481379  0.24651144  0.62912801  1
  O  O237  1  0.51021247  0.73566686  0.12462463  1
  O  O238  1  0.48826998  0.75131414  0.61872659  1
  O  O239  1  0.99495848  0.24912088  0.13314641  1
  O  O240  1  0.99417999  0.24572078  0.63098090  1
  O  O241  1  0.99048596  0.74563287  0.13196027  1
  O  O242  1  0.99196293  0.74144120  0.61247896  1
  O  O243  1  0.01174800  0.24786982  0.37117784  1
  O  O244  1  -0.00021325  0.25896521  0.86753787  1
  O  O245  1  -0.00631166  0.75529033  0.36833263  1
  O  O246  1  -0.01254417  0.76694062  0.88148146  1
  O  O247  1  0.50954021  0.25345450  0.36938172  1
  O  O248  1  0.50885770  0.26109941  0.87043876  1
  O  O249  1  0.50652912  0.75508300  0.37233693  1
  O  O250  1  0.48385801  0.77319544  0.95888309  1
  O  O251  1  0.24200831  0.13055834  0.50169705  1
  O  O252  1  0.25552072  0.14325095  1.00846483  1
  O  O253  1  0.26044471  0.64110073  0.50426286  1
  O  O254  1  0.24948189  0.61555621  0.98871086  1
  O  O255  1  0.73762053  0.12780495  0.49275459  1
  O  O256  1  0.74356379  0.14042659  1.00772282  1
  O  O257  1  0.75366829  0.62980537  0.48878407  1
  O  O258  1  0.73998646  0.61348408  0.99859846  1
  O  O259  1  0.25831900  0.37302755  0.00731323  1
  O  O260  1  0.25796038  0.36896624  0.50674327  1
  O  O261  1  0.23469353  0.86176392  0.00888720  1
  O  O262  1  0.25759261  0.86924066  0.50766470  1
  O  O263  1  0.75490037  0.36461521  0.00382220  1
  O  O264  1  0.75059436  0.36878376  0.51336929  1
  O  O265  1  0.75585010  0.87468287  0.00257502  1
  O  O266  1  0.75160424  0.86644781  0.51118826  1
  O  O267  1  0.12842011  0.48999247  0.24655855  1
  O  O268  1  0.13900249  0.49704207  0.73614864  1
  O  O269  1  0.12547848  0.99016416  0.24246009  1
  O  O270  1  0.13945275  0.99505669  0.75004837  1
  O  O271  1  0.62867010  0.49610073  0.24319054  1
  O  O272  1  0.61977269  0.48963324  0.74158262  1
  O  O273  1  0.63358155  1.00503552  0.23383780  1
  O  O274  1  0.61752749  0.97956004  0.73624264  1
  O  O275  1  0.37191936  0.00801620  0.24395556  1
  O  O276  1  0.36295645  0.00672931  0.75002627  1
  O  O277  1  0.37141885  0.50550613  0.25733988  1
  O  O278  1  0.36378478  0.50962854  0.74340710  1
  O  O279  1  0.85983054  0.00250647  0.24105737  1
  O  O280  1  0.86908466  0.00460299  0.76165271  1
  O  O281  1  0.87158468  0.50220566  0.25592958  1
  O  O282  1  0.87850793  0.50427671  0.75642085  1
  O  O283  1  0.13154210  0.36658189  0.36416455  1
  O  O284  1  0.11608249  0.37238210  0.87182569  1
  O  O285  1  0.11099622  0.86682691  0.36600619  1
  O  O286  1  0.10156835  0.87666788  0.87666587  1
  O  O287  1  0.62038977  0.36637198  0.37239770  1
  O  O288  1  0.61819033  0.37413070  0.86772378  1
  O  O289  1  0.60932007  0.86368204  0.37683077  1
  O  O290  1  0.63708480  0.86765144  0.87022658  1
  O  O291  1  0.38748098  0.12484807  0.13144716  1
  O  O292  1  0.38132713  0.12983823  0.62968313  1
  O  O293  1  0.38715741  0.61559095  0.13339806  1
  O  O294  1  0.37898380  0.63671267  0.63799847  1
  O  O295  1  0.87690937  0.13801612  0.12989376  1
  O  O296  1  0.88156773  0.13816405  0.62617647  1
  O  O297  1  0.87796119  0.63100029  0.12883367  1
  O  O298  1  0.88285341  0.62760175  0.63108104  1
  O  O299  1  0.24655857  0.26416755  0.11823810  1
  O  O300  1  0.25409416  0.25721302  0.62141848  1
  O  O301  1  0.23362562  0.73912763  0.11201374  1
  O  O302  1  0.26043047  0.76054089  0.61901225  1
  O  O303  1  0.75851443  0.25276264  0.12117606  1
  O  O304  1  0.75824784  0.25463523  0.62572479  1
  O  O305  1  0.75678616  0.75767061  0.13331183  1
  O  O306  1  0.75428701  0.75671158  0.61650276  1
  O  O307  1  0.23863650  0.24610211  0.38216763  1
  O  O308  1  0.24930379  0.25886146  0.89022297  1
  O  O309  1  0.25293418  0.75053446  0.39516245  1
  O  O310  1  0.24293746  0.73470128  0.88778030  1
  O  O311  1  0.73674377  0.24254484  0.37454300  1
  O  O312  1  0.74614043  0.25844960  0.88337026  1
  O  O313  1  0.74433764  0.74369447  0.37901587  1
  O  O314  1  0.78792563  0.74183926  0.86960298  1
  O  O315  1  -0.00351172  0.11084264  0.00455325  1
  O  O316  1  0.00800727  0.12363421  0.51171164  1
  O  O317  1  -0.00500286  0.61267646  0.00540623  1
  O  O318  1  -0.00463939  0.61022976  0.51286870  1
  O  O319  1  0.50802975  0.12818148  0.00978369  1
  O  O320  1  0.50272150  0.11856499  0.50362126  1
  O  O321  1  0.50727823  0.61351656  0.00636786  1
  O  O322  1  0.49400004  0.61582034  0.50307407  1
  O  O323  1  0.49518246  0.38195245  0.49463972  1
  O  O324  1  0.49500163  0.37845797  0.99526660  1
  O  O325  1  0.49305589  0.87983562  0.49218640  1
  O  O326  1  0.50562629  0.90763917  0.99460941  1
  O  O327  1  0.99989036  0.39116103  0.50703761  1
  O  O328  1  0.99911017  0.38234180  0.99047191  1
  O  O329  1  1.00236568  0.87609629  0.48366681  1
  O  O330  1  0.98492141  0.88540630  0.99548178  1
  O  O331  1  0.49725580  0.49687945  0.38221299  1
  O  O332  1  0.50700331  0.49203585  0.88893888  1
  O  O333  1  0.49945287  0.99203340  0.37961976  1
  O  O334  1  0.51416448  1.02057777  0.88031770  1
  O  O335  1  0.99186819  0.50431869  0.38286228  1
  O  O336  1  1.00049398  0.49414692  0.87752729  1
  O  O337  1  0.99944036  0.98496727  0.37346009  1
  O  O338  1  0.98681308  0.99379805  0.88176153  1
  O  O339  1  0.00423251  0.00076508  0.11803026  1
  O  O340  1  0.00103331  0.00779048  0.62305854  1
  O  O341  1  0.00461373  0.50106004  0.11629947  1
  O  O342  1  0.01341097  0.50487461  0.61987777  1
  O  O343  1  0.50829906  0.01243067  0.12103280  1
  O  O344  1  0.50375634  0.00338525  0.62035611  1
  O  O345  1  0.50987686  0.50392071  0.11613742  1
  O  O346  1  0.50949860  0.50275064  0.61639115  1
  O  O347  1  0.24527774  0.37823864  0.24466791  1
  O  O348  1  0.25342075  0.38258153  0.74286776  1
  O  O349  1  0.23375997  0.86707789  0.25402738  1
  O  O350  1  0.25417063  0.88601156  0.74721151  1
  O  O351  1  0.74064049  0.38122101  0.24989158  1
  O  O352  1  0.74152895  0.37140182  0.73789988  1
  O  O353  1  0.74865604  0.88184388  0.23772671  1
  O  O354  1  0.73919010  0.87954967  0.73543328  1
  O  O355  1  0.26355861  0.13129676  0.24618567  1
  O  O356  1  0.25855921  0.10919811  0.74563541  1
  O  O357  1  0.25943327  0.61549310  0.24891047  1
  O  O358  1  0.25915932  0.61853496  0.75864909  1
  O  O359  1  0.74957138  0.11672070  0.25913485  1
  O  O360  1  0.69501746  0.11104947  0.76286930  1
  O  O361  1  0.75510219  0.61788549  0.25893626  1
  O  O362  1  0.76714603  0.61974236  0.74117766  1
  O  O363  1  0.37330526  0.11995604  0.36349507  1
  O  O364  1  0.37946021  0.13758062  0.86082749  1
  O  O365  1  0.37320519  0.61780062  0.36693316  1
  O  O366  1  0.36079711  0.62540798  0.86983547  1
  O  O367  1  0.86034468  0.13418351  0.37428742  1
  O  O368  1  0.87756624  0.11398614  0.87730227  1
  O  O369  1  0.86668512  0.61398188  0.36941467  1
  O  O370  1  0.88683516  0.60908240  0.85419378  1
  O  O371  1  0.13035974  0.38188885  0.13708908  1
  O  O372  1  0.14089305  0.38111995  0.62357112  1
  O  O373  1  0.11070479  0.88314700  0.13770591  1
  O  O374  1  0.13447613  0.87759007  0.62949903  1
  O  O375  1  0.62539877  0.38718864  0.13089767  1
  O  O376  1  0.63176990  0.38293739  0.63116238  1
  O  O377  1  0.63239082  0.88239329  0.11210954  1
  O  O378  1  0.63047846  0.88132528  0.62251052  1
  O  O379  1  0.12025476  0.25432061  0.25700136  1
  O  O380  1  0.11506554  0.25284270  0.74881446  1
  O  O381  1  0.10796931  0.75505914  0.24760539  1
  O  O382  1  0.12621557  0.75422015  0.76138594  1
  O  O383  1  0.61662667  0.25354091  0.25736396  1
  O  O384  1  0.61630387  0.26630629  0.75154150  1
  O  O385  1  0.62214438  0.74546359  0.26203717  1
  O  O386  1  0.62522012  0.76334518  0.74751775  1
  O  O387  1  0.38772565  0.24497024  0.25768468  1
  O  O388  1  0.37955855  0.24503196  0.74199975  1
  O  O389  1  0.37578536  0.73712851  0.25227363  1
  O  O390  1  0.36886522  0.74331088  0.74583960  1
  O  O391  1  0.88334178  0.25068892  0.24544078  1
  O  O392  1  0.88978518  0.25366241  0.74311129  1
  O  O393  1  0.88149180  0.74466245  0.24047057  1
  O  O394  1  0.87626187  0.73547821  0.73236586  1
  O  O395  1  0.38328740  0.49556006  0.49542576  1
  O  O396  1  0.38580603  0.48769280  1.00416283  1
  O  O397  1  0.37945372  0.98781478  0.50004113  1
  O  O398  1  0.39375529  1.02225535  0.98866058  1
  O  O399  1  0.88378509  0.49629421  0.49195406  1
  O  O400  1  0.88407454  0.49832909  0.98377574  1
  O  O401  1  0.87090323  1.00709157  0.49729595  1
  O  O402  1  0.87695034  0.99471167  0.99577284  1
  O  O403  1  0.11401924  -0.00326038  0.00815974  1
  O  O404  1  0.12388963  0.00948006  0.49895278  1
  O  O405  1  0.11658129  0.49205318  0.01062537  1
  O  O406  1  0.12290964  0.49820880  0.50995142  1
  O  O407  1  0.62184538  0.01564139  0.00875352  1
  O  O408  1  0.61625743  0.01152682  0.51111538  1
  O  O409  1  0.62124442  0.50409910  0.00706066  1
  O  O410  1  0.61588992  0.49645264  0.50960466  1
  O  O411  1  0.36649601  0.37929401  0.11875116  1
  O  O412  1  0.36727458  0.37167694  0.62095083  1
  O  O413  1  0.38820359  0.87781477  0.08560448  1
  O  O414  1  0.37134704  0.87067240  0.62168415  1
  O  O415  1  0.87494771  0.36301901  0.12327329  1
  O  O416  1  0.86837901  0.36703767  0.62603262  1
  O  O417  1  0.86309203  0.86935451  0.11693162  1
  O  O418  1  0.86682350  0.86468249  0.63144338  1
  O  O419  1  0.12610113  0.13106416  0.38293738  1
  O  O420  1  0.11904243  0.12945940  0.88471866  1
  O  O421  1  0.13166645  0.63469858  0.36732075  1
  O  O422  1  0.13821537  0.61913737  0.87061666  1
  O  O423  1  0.62811292  0.12930510  0.38054700  1
  O  O424  1  0.61803190  0.14200163  0.89664813  1
  O  O425  1  0.63452118  0.63147896  0.37334942  1
  O  O426  1  0.62630648  0.62240447  0.88840783  1
