# generated using pymatgen
data_V85Zn86O256
_symmetry_space_group_name_H-M   'P 1'
_cell_length_a   16.92173357
_cell_length_b   16.91405548
_cell_length_c   16.92441135
_cell_angle_alpha   90.01937128
_cell_angle_beta   89.97875448
_cell_angle_gamma   90.07484338
_symmetry_Int_Tables_number   1
_chemical_formula_structural   V85Zn86O256
_chemical_formula_sum   'V85 Zn86 O256'
_cell_volume   4844.01802828
_cell_formula_units_Z   1
loop_
 _symmetry_equiv_pos_site_id
 _symmetry_equiv_pos_as_xyz
  1  'x, y, z'
loop_
 _atom_site_type_symbol
 _atom_site_label
 _atom_site_symmetry_multiplicity
 _atom_site_fract_x
 _atom_site_fract_y
 _atom_site_fract_z
 _atom_site_occupancy
  V  V0  1  0.38155084  0.87040797  -0.00525619  1
  V  V1  1  0.87938993  0.63154167  0.25042708  1
  V  V2  1  0.87181167  0.74960328  0.61722549  1
  V  V3  1  0.88583287  0.37616393  0.00285311  1
  V  V4  1  0.00260040  -0.00867606  -0.00067583  1
  V  V5  1  0.87542109  0.62558593  0.75092037  1
  V  V6  1  0.14594813  0.50042690  0.62748666  1
  V  V7  1  0.37704815  0.12753450  0.75144096  1
  V  V8  1  0.75051484  0.37304895  0.62628114  1
  V  V9  1  0.37001753  0.49723074  0.37138905  1
  V  V10  1  0.12347558  0.87835138  0.75660901  1
  V  V11  1  0.36918294  0.26077061  0.62625910  1
  V  V12  1  0.74487235  0.87062858  0.62261200  1
  V  V13  1  0.88162268  0.50133905  0.88115628  1
  V  V14  1  -0.00176599  0.75872916  0.74710772  1
  V  V15  1  0.24548262  0.74580830  -0.00205642  1
  V  V16  1  0.62393367  0.49365115  0.63137160  1
  V  V17  1  0.00073767  0.12313441  0.12371983  1
  V  V18  1  -0.00541376  0.87146478  0.37004956  1
  V  V19  1  0.12308663  0.00032530  0.62485674  1
  V  V20  1  0.75222509  0.86697146  0.11901285  1
  V  V21  1  0.25151385  0.12718267  0.87707380  1
  V  V22  1  0.37312062  0.74877551  0.12382784  1
  V  V23  1  0.62070438  0.12359219  0.50274673  1
  V  V24  1  0.88114539  -0.00520898  0.87442574  1
  V  V25  1  0.11873301  0.74716696  0.36414611  1
  V  V26  1  0.25104417  0.62374702  0.85327137  1
  V  V27  1  0.49938498  0.74710383  0.24935789  1
  V  V28  1  0.50039297  0.61757802  0.12039562  1
  V  V29  1  0.37105255  0.61790688  0.24513551  1
  V  V30  1  0.00378633  0.25166146  0.24999177  1
  V  V31  1  0.61994193  0.37397389  0.24976336  1
  V  V32  1  0.24954711  0.11774242  0.37332348  1
  V  V33  1  0.87783385  0.13314309  0.75089449  1
  V  V34  1  0.88117975  0.74722391  0.11780234  1
  V  V35  1  0.24834253  0.62422461  0.36591006  1
  V  V36  1  0.87303640  0.24775298  0.12588183  1
  V  V37  1  0.62231332  0.87386400  0.24930410  1
  V  V38  1  0.87427326  0.12192558  0.25571255  1
  V  V39  1  0.62391946  0.49740322  0.11472187  1
  V  V40  1  0.12420957  0.62519711  0.49670912  1
  V  V41  1  0.49359205  0.62518183  0.63425418  1
  V  V42  1  0.49760221  0.12176332  0.62555063  1
  V  V43  1  0.37414168  0.49462522  0.87043984  1
  V  V44  1  0.24950198  0.00076806  0.75174929  1
  V  V45  1  -0.00223669  0.13191659  0.62756286  1
  V  V46  1  0.14720297  0.37540358  0.74563752  1
  V  V47  1  0.11734648  0.75048997  0.87617600  1
  V  V48  1  0.12644319  0.88130079  0.24927085  1
  V  V49  1  0.36587768  0.12845690  0.24551774  1
  V  V50  1  0.74883691  0.11461321  0.37807036  1
  V  V51  1  0.75388383  -0.00354812  0.25073975  1
  V  V52  1  0.25122952  0.88157179  0.12705572  1
  V  V53  1  0.12199137  0.12878070  0.49880229  1
  V  V54  1  0.49783594  0.13408175  0.13394375  1
  V  V55  1  0.49426019  0.36542482  0.37454593  1
  V  V56  1  0.50559752  0.26592657  0.74896989  1
  V  V57  1  0.26231469  0.38555700  0.12268852  1
  V  V58  1  0.87494529  0.49556780  0.37450311  1
  V  V59  1  0.62168385  0.12472724  0.00093197  1
  V  V60  1  0.00043842  0.49624008  0.50281385  1
  V  V61  1  -0.00658024  0.00018930  0.49286394  1
  V  V62  1  0.50785551  0.38171047  0.89455236  1
  V  V63  1  0.62901867  0.62521533  0.50464664  1
  V  V64  1  0.62961547  0.64135812  -0.00167000  1
  V  V65  1  0.75012038  0.37349436  0.12443757  1
  V  V66  1  0.86215961  0.87753010  0.49276627  1
  V  V67  1  0.49569059  0.74780814  0.76887207  1
  V  V68  1  0.38419661  -0.00349520  0.87565297  1
  V  V69  1  0.75014208  0.63572312  0.88066709  1
  V  V70  1  0.00120961  0.62631199  0.62541743  1
  V  V71  1  0.12397047  0.25242443  0.87889822  1
  V  V72  1  0.00799023  0.61288835  0.12108494  1
  V  V73  1  0.62381666  0.24730023  0.37134307  1
  V  V74  1  0.75132427  0.62309720  0.37876332  1
  V  V75  1  0.74936781  -0.00044552  0.74938957  1
  V  V76  1  0.00073809  0.37343524  0.86136208  1
  V  V77  1  0.26466092  0.25332088  0.00751361  1
  V  V78  1  0.75002561  0.12646595  0.87722179  1
  V  V79  1  0.74791998  0.49551067  0.75524212  1
  V  V80  1  0.62453247  0.86757552  0.76823670  1
  V  V81  1  0.24873917  0.25773249  0.49982261  1
  V  V82  1  0.49953256  0.49911399  0.49998594  1
  V  V83  1  0.62980935  0.74445375  0.37476772  1
  V  V84  1  0.13135311  0.38688376  0.24115061  1
  Zn  Zn85  1  0.00405539  0.37404414  0.37319345  1
  Zn  Zn86  1  0.12810238  0.25240986  0.37116973  1
  Zn  Zn87  1  0.50095569  -0.00299156  0.00237386  1
  Zn  Zn88  1  0.74799351  0.49932707  0.24970609  1
  Zn  Zn89  1  0.12309265  0.60892634  -0.00342081  1
  Zn  Zn90  1  0.12968124  0.00310592  0.12620576  1
  Zn  Zn91  1  0.48864960  0.86948195  0.38234254  1
  Zn  Zn92  1  0.75109925  0.24998020  -0.00065513  1
  Zn  Zn93  1  0.36713257  0.38304775  0.50608364  1
  Zn  Zn94  1  0.12636257  0.12603270  0.00158441  1
  Zn  Zn95  1  0.62316195  -0.00071085  0.12484642  1
  Zn  Zn96  1  0.87510888  0.86892119  -0.00762699  1
  Zn  Zn97  1  0.62815262  0.25544576  0.87297026  1
  Zn  Zn98  1  0.38002256  0.75953519  0.62245913  1
  Zn  Zn99  1  0.87545199  0.37183880  0.49991416  1
  Zn  Zn100  1  0.26379313  0.76323436  0.49360130  1
  Zn  Zn101  1  0.88023762  0.25506705  0.62543309  1
  Zn  Zn102  1  0.44555427  -0.05705794  0.53111045  1
  Zn  Zn103  1  0.38190437  -0.00772627  0.37540891  1
  Zn  Zn104  1  0.26467146  0.88043811  0.61704564  1
  Zn  Zn105  1  0.75298612  0.25053592  0.49985533  1
  Zn  Zn106  1  0.61898015  -0.00330588  0.62835920  1
  Zn  Zn107  1  0.18694875  0.19177983  0.18442439  1
  Zn  Zn108  1  0.18716134  0.19064464  0.68928080  1
  Zn  Zn109  1  0.18506243  0.69057218  0.18664179  1
  Zn  Zn110  1  0.18872209  0.69725106  0.67822412  1
  Zn  Zn111  1  0.68435563  0.18719680  0.18882901  1
  Zn  Zn112  1  0.68543137  0.18906911  0.69073254  1
  Zn  Zn113  1  0.69213878  0.68531264  0.18763372  1
  Zn  Zn114  1  0.68604343  0.68694016  0.69334689  1
  Zn  Zn115  1  0.31192330  0.30549800  0.30610705  1
  Zn  Zn116  1  0.31960140  0.31333578  0.81909253  1
  Zn  Zn117  1  0.31224785  0.81404270  0.31250533  1
  Zn  Zn118  1  0.31009202  0.81119753  0.81034267  1
  Zn  Zn119  1  0.80870840  0.30984704  0.31287584  1
  Zn  Zn120  1  0.81304679  0.31364690  0.81245474  1
  Zn  Zn121  1  0.81029051  0.80926633  0.31039825  1
  Zn  Zn122  1  0.81306214  0.81368129  0.80904625  1
  Zn  Zn123  1  0.18611285  0.43787668  0.43121368  1
  Zn  Zn124  1  0.19636501  0.43481080  0.93302801  1
  Zn  Zn125  1  0.18706876  0.93902596  0.43542195  1
  Zn  Zn126  1  0.18984097  0.93726021  0.93965333  1
  Zn  Zn127  1  0.68683344  0.43629343  0.44005314  1
  Zn  Zn128  1  0.69254605  0.43838968  0.93996807  1
  Zn  Zn129  1  0.64362302  0.92296499  0.45438907  1
  Zn  Zn130  1  0.69197719  0.94196044  0.94071076  1
  Zn  Zn131  1  0.31675658  0.06358759  0.06116612  1
  Zn  Zn132  1  0.30897278  0.06857431  0.56257001  1
  Zn  Zn133  1  0.31418687  0.55972526  0.04858780  1
  Zn  Zn134  1  0.32273093  0.59083156  0.55014403  1
  Zn  Zn135  1  0.81213386  0.05802944  0.06340902  1
  Zn  Zn136  1  0.80952074  0.06049896  0.56324546  1
  Zn  Zn137  1  0.81135810  0.56101627  0.06269333  1
  Zn  Zn138  1  0.81238771  0.55908633  0.56291725  1
  Zn  Zn139  1  0.43932231  0.43470942  0.18692251  1
  Zn  Zn140  1  0.43154290  0.44401009  0.69166849  1
  Zn  Zn141  1  0.43750244  0.94477070  0.19008073  1
  Zn  Zn142  1  0.43918886  0.93059362  0.69963062  1
  Zn  Zn143  1  0.93534484  0.43813376  0.19260123  1
  Zn  Zn144  1  0.93785011  0.44065907  0.68744854  1
  Zn  Zn145  1  0.93650276  0.93685307  0.18791579  1
  Zn  Zn146  1  0.93582413  0.94016428  0.68355397  1
  Zn  Zn147  1  0.06310277  0.06161385  0.31355280  1
  Zn  Zn148  1  0.06102071  0.06681987  0.81475728  1
  Zn  Zn149  1  0.05744757  0.56015650  0.30764645  1
  Zn  Zn150  1  0.06652099  0.56080470  0.81124520  1
  Zn  Zn151  1  0.55700148  0.05657132  0.31194966  1
  Zn  Zn152  1  0.56383690  0.06354325  0.81024636  1
  Zn  Zn153  1  0.55979285  0.55652654  0.30973217  1
  Zn  Zn154  1  0.56410883  0.56214543  0.81721992  1
  Zn  Zn155  1  0.43032415  0.17897008  0.44037144  1
  Zn  Zn156  1  0.44233944  0.18838728  0.93630462  1
  Zn  Zn157  1  0.44139414  0.68732894  0.43699152  1
  Zn  Zn158  1  0.43021869  0.66581000  0.94082684  1
  Zn  Zn159  1  0.93437073  0.18985397  0.43696634  1
  Zn  Zn160  1  0.94088233  0.18896391  0.93852191  1
  Zn  Zn161  1  0.93783579  0.68883307  0.43849273  1
  Zn  Zn162  1  0.94041798  0.68584656  0.93932880  1
  Zn  Zn163  1  0.06735249  0.43350545  0.06100993  1
  Zn  Zn164  1  0.06717772  0.31579300  0.56658377  1
  Zn  Zn165  1  0.05999299  0.80909705  0.06647411  1
  Zn  Zn166  1  0.08982616  0.82793131  0.54550308  1
  Zn  Zn167  1  0.56316622  0.30720957  0.06152799  1
  Zn  Zn168  1  0.56151272  0.31140845  0.55969498  1
  Zn  Zn169  1  0.56063492  0.80956550  0.06450409  1
  Zn  Zn170  1  0.56717978  0.80203642  0.56886572  1
  O  O171  1  0.11450891  0.12252247  0.12488433  1
  O  O172  1  0.11720112  0.11728026  0.62407206  1
  O  O173  1  0.11036166  0.62806897  0.12498408  1
  O  O174  1  0.12036641  0.62143695  0.61396858  1
  O  O175  1  0.61649999  0.12413698  0.11908957  1
  O  O176  1  0.61587411  0.12782690  0.62078338  1
  O  O177  1  0.62202967  0.61890703  0.11812641  1
  O  O178  1  0.62553675  0.61501026  0.61935410  1
  O  O179  1  0.37951683  0.38047329  0.37155286  1
  O  O180  1  0.38336989  0.38882630  0.87978019  1
  O  O181  1  0.37259388  0.87232802  0.38429635  1
  O  O182  1  0.36588529  0.88357804  0.88359900  1
  O  O183  1  0.87670532  0.38486515  0.37342796  1
  O  O184  1  0.88255319  0.37961696  0.88031635  1
  O  O185  1  0.87771518  0.86594078  0.38583891  1
  O  O186  1  0.86942319  0.88965427  0.87437966  1
  O  O187  1  0.24559805  0.01458843  0.37682501  1
  O  O188  1  0.25574284  0.00973773  0.87179102  1
  O  O189  1  0.26279074  0.50506914  0.37377487  1
  O  O190  1  0.26331453  0.51257920  0.87494757  1
  O  O191  1  0.74151782  0.01197222  0.36742797  1
  O  O192  1  0.75824328  0.01117900  0.87059200  1
  O  O193  1  0.75839256  0.50411980  0.37444632  1
  O  O194  1  0.75994591  0.50483726  0.86963286  1
  O  O195  1  0.25761915  0.48591238  0.11433216  1
  O  O196  1  0.24261086  0.51407607  0.61260899  1
  O  O197  1  0.24917766  0.98535522  0.11643916  1
  O  O198  1  0.23887029  1.00197109  0.63163130  1
  O  O199  1  0.74297720  0.49162250  0.12826279  1
  O  O200  1  0.74500203  0.49236672  0.63330339  1
  O  O201  1  0.74731698  0.99029161  0.13414801  1
  O  O202  1  0.74870490  0.99018966  0.63460603  1
  O  O203  1  0.01027168  0.36703165  0.24622190  1
  O  O204  1  0.00157266  0.37516225  0.75914429  1
  O  O205  1  0.00241372  0.88036664  0.26412385  1
  O  O206  1  0.00150803  0.86531523  0.74781958  1
  O  O207  1  0.51162196  0.37745445  0.25847913  1
  O  O208  1  0.49808970  0.36691965  0.75332951  1
  O  O209  1  0.50877858  0.86447613  0.24547139  1
  O  O210  1  0.51618986  0.86348105  0.75506713  1
  O  O211  1  0.49897578  0.12473268  0.23780711  1
  O  O212  1  0.49546359  0.13566974  0.74470757  1
  O  O213  1  0.49316763  0.62821225  0.24237481  1
  O  O214  1  0.51510835  0.63962966  0.74656658  1
  O  O215  1  0.99138146  0.12694376  0.24662702  1
  O  O216  1  0.98966320  0.11836559  0.74000370  1
  O  O217  1  0.99077137  0.61946456  0.23555355  1
  O  O218  1  0.99537443  0.63465368  0.74490038  1
  O  O219  1  0.36303380  0.24803312  -0.00505508  1
  O  O220  1  0.36622912  0.25198370  0.50972200  1
  O  O221  1  0.36653889  0.75176907  0.00325610  1
  O  O222  1  0.36495693  0.71067450  0.51356420  1
  O  O223  1  0.87492370  0.25621271  0.00846627  1
  O  O224  1  0.87117590  0.25367119  0.50583736  1
  O  O225  1  0.87722827  0.75057829  0.01263250  1
  O  O226  1  0.87743562  0.75772253  0.51120667  1
  O  O227  1  0.13011405  0.24596549  0.49857702  1
  O  O228  1  0.13875927  0.24940604  0.98210702  1
  O  O229  1  0.11462846  0.73196968  0.48582699  1
  O  O230  1  0.12852968  0.75197499  0.99028005  1
  O  O231  1  0.62853044  0.24284248  0.48995266  1
  O  O232  1  0.62939638  0.23736878  0.99560660  1
  O  O233  1  0.62576558  0.73217235  0.49176047  1
  O  O234  1  0.63215877  0.74005614  1.00610601  1
  O  O235  1  0.50195555  0.23331414  0.12311063  1
  O  O236  1  0.49488100  0.24845623  0.63617857  1
  O  O237  1  0.49360519  0.73718834  0.12984985  1
  O  O238  1  0.50081715  0.73846289  0.63463443  1
  O  O239  1  0.99030448  0.23471084  0.13768979  1
  O  O240  1  1.00211615  0.23597109  0.62113483  1
  O  O241  1  0.98654425  0.74015528  0.12752826  1
  O  O242  1  0.99294815  0.74491132  0.63152980  1
  O  O243  1  -0.00091117  0.25133103  0.36077412  1
  O  O244  1  0.01103608  0.25960020  0.87794193  1
  O  O245  1  0.00537179  0.75836789  0.37605978  1
  O  O246  1  0.00951865  0.74529471  0.86591491  1
  O  O247  1  0.50451647  0.26036983  0.38271602  1
  O  O248  1  0.49779907  0.26602093  0.86641591  1
  O  O249  1  0.51233412  0.74653331  0.36854757  1
  O  O250  1  0.49406540  0.73933806  0.86707702  1
  O  O251  1  0.23945067  0.13531123  0.49323515  1
  O  O252  1  0.24949826  0.13469382  0.99589418  1
  O  O253  1  0.23524455  0.62034272  0.47999203  1
  O  O254  1  0.24429068  0.63794651  0.99397463  1
  O  O255  1  0.74444966  0.12766988  0.49334080  1
  O  O256  1  0.74457088  0.12447639  0.99304470  1
  O  O257  1  0.74504064  0.61738069  0.48797329  1
  O  O258  1  0.73970491  0.62197746  0.99524201  1
  O  O259  1  0.25139790  0.36363109  0.00982499  1
  O  O260  1  0.24892315  0.36281017  0.49401648  1
  O  O261  1  0.25713265  0.86329058  0.00475104  1
  O  O262  1  0.20710415  0.86292071  0.51371683  1
  O  O263  1  0.76186637  0.37138602  0.00641378  1
  O  O264  1  0.75231034  0.37471901  0.51125742  1
  O  O265  1  0.75471444  0.88041784  0.01543478  1
  O  O266  1  0.75155554  0.88059645  0.50835369  1
  O  O267  1  0.12328654  0.48579163  0.24930235  1
  O  O268  1  0.12448106  0.48724152  0.74072271  1
  O  O269  1  0.12129138  0.98601284  0.24755600  1
  O  O270  1  0.12708353  0.99652582  0.74704066  1
  O  O271  1  0.62604659  0.49152068  0.23953291  1
  O  O272  1  0.63511258  0.50502943  0.74260390  1
  O  O273  1  0.63547806  0.98877083  0.24800330  1
  O  O274  1  0.62949789  0.98721539  0.75043752  1
  O  O275  1  0.37944655  0.01869842  0.25579886  1
  O  O276  1  0.36917047  0.00378789  0.75852225  1
  O  O277  1  0.38071301  0.51118038  0.25526556  1
  O  O278  1  0.38456159  0.51057268  0.77112003  1
  O  O279  1  0.86270593  0.00569332  0.24875379  1
  O  O280  1  0.87004117  0.00765671  0.75628389  1
  O  O281  1  0.87265996  0.50910806  0.25960082  1
  O  O282  1  0.86864954  0.50792112  0.75698923  1
  O  O283  1  0.12454241  0.37235715  0.35888800  1
  O  O284  1  0.12102905  0.37216167  0.86202974  1
  O  O285  1  0.11641017  0.86698008  0.36754084  1
  O  O286  1  0.12754021  0.86924824  0.86388236  1
  O  O287  1  0.61884375  0.36878080  0.36953324  1
  O  O288  1  0.61348310  0.37446305  0.88322505  1
  O  O289  1  0.63243549  0.86008976  0.35962881  1
  O  O290  1  0.63543362  0.87453755  0.86662120  1
  O  O291  1  0.38506933  0.12146560  0.13385387  1
  O  O292  1  0.38135105  0.13763842  0.63313221  1
  O  O293  1  0.38144625  0.62535761  0.12706092  1
  O  O294  1  0.39381109  0.61346377  0.63861747  1
  O  O295  1  0.87764364  0.12647716  0.13640618  1
  O  O296  1  0.88067592  0.12498625  0.63331746  1
  O  O297  1  0.87958811  0.63043875  0.13008400  1
  O  O298  1  0.87821484  0.63177387  0.62845704  1
  O  O299  1  0.24875672  0.25528523  0.11067060  1
  O  O300  1  0.25873298  0.24460815  0.61584518  1
  O  O301  1  0.25326093  0.75528127  0.11515608  1
  O  O302  1  0.25925619  0.75948163  0.62008406  1
  O  O303  1  0.75572146  0.25525083  0.12553026  1
  O  O304  1  0.74694720  0.26501410  0.62930704  1
  O  O305  1  0.76625974  0.75461403  0.13201979  1
  O  O306  1  0.75983903  0.75694194  0.63203735  1
  O  O307  1  0.24966874  0.23999159  0.38302354  1
  O  O308  1  0.24931035  0.24448085  0.88095400  1
  O  O309  1  0.23827250  0.74047220  0.37567447  1
  O  O310  1  0.23598183  0.74444456  0.87600929  1
  O  O311  1  0.74023616  0.23758270  0.37453255  1
  O  O312  1  0.75021424  0.23832326  0.87469120  1
  O  O313  1  0.73855801  0.73842654  0.37096434  1
  O  O314  1  0.75953825  0.73482635  0.87151068  1
  O  O315  1  0.00097317  0.11809027  0.00988804  1
  O  O316  1  0.00209293  0.11835638  0.50359528  1
  O  O317  1  0.00124731  0.62609476  0.01665041  1
  O  O318  1  0.00393857  0.61373082  0.50282158  1
  O  O319  1  0.50652471  0.12325838  0.00692328  1
  O  O320  1  0.50779636  0.13788997  0.51569200  1
  O  O321  1  0.51786055  0.63115586  0.00930186  1
  O  O322  1  0.51082927  0.61702921  0.51077679  1
  O  O323  1  0.49599968  0.38168050  0.49150830  1
  O  O324  1  0.49927329  0.37437881  0.99299469  1
  O  O325  1  0.53400553  0.87933347  0.49436242  1
  O  O326  1  0.48566606  0.87258413  1.00490116  1
  O  O327  1  1.00150408  0.38608393  0.49894277  1
  O  O328  1  0.98901034  0.37648364  0.99036707  1
  O  O329  1  0.99506022  0.88209960  0.48999000  1
  O  O330  1  0.99625269  0.88734945  1.00697262  1
  O  O331  1  0.49034809  0.49072700  0.37840259  1
  O  O332  1  0.49834546  0.48518771  0.87259979  1
  O  O333  1  0.50284083  0.98504288  0.37461413  1
  O  O334  1  0.48747487  1.00371388  0.87670570  1
  O  O335  1  0.99110961  0.49864524  0.38253703  1
  O  O336  1  0.98786437  0.49389381  0.86777946  1
  O  O337  1  1.00192235  0.99364996  0.38704127  1
  O  O338  1  0.99194376  1.00673734  0.88537569  1
  O  O339  1  -0.00178131  0.00927794  0.11937109  1
  O  O340  1  0.00305467  0.00956422  0.61525297  1
  O  O341  1  -0.00320514  0.50811801  0.12321950  1
  O  O342  1  0.00623799  0.50723169  0.61781472  1
  O  O343  1  0.50463137  0.00975240  0.12100660  1
  O  O344  1  0.49907238  0.01242604  0.63179895  1
  O  O345  1  0.50673741  0.51027395  0.12774331  1
  O  O346  1  0.50900836  0.50260935  0.62352889  1
  O  O347  1  0.24029119  0.36806672  0.23634830  1
  O  O348  1  0.24561747  0.37821545  0.75418687  1
  O  O349  1  0.23959253  0.86684305  0.23838232  1
  O  O350  1  0.23932593  0.88333760  0.74560946  1
  O  O351  1  0.73732976  0.37505753  0.24480457  1
  O  O352  1  0.75381247  0.38781541  0.74607232  1
  O  O353  1  0.74649633  0.87964821  0.24236831  1
  O  O354  1  0.74196030  0.87845109  0.74461993  1
  O  O355  1  0.25718612  0.12906250  0.25441602  1
  O  O356  1  0.25704963  0.12118302  0.75631335  1
  O  O357  1  0.25504135  0.62723441  0.25628338  1
  O  O358  1  0.23437795  0.62479385  0.75590552  1
  O  O359  1  0.75441181  0.11665494  0.25424410  1
  O  O360  1  0.75467574  0.11932950  0.75659788  1
  O  O361  1  0.75675463  0.62032427  0.26219322  1
  O  O362  1  0.75568799  0.61590552  0.75803645  1
  O  O363  1  0.36487706  0.12468586  0.36421727  1
  O  O364  1  0.37099433  0.11876054  0.87048762  1
  O  O365  1  0.36772981  0.61849788  0.36407188  1
  O  O366  1  0.35092604  0.64189975  0.85932187  1
  O  O367  1  0.86558393  0.12783571  0.36314284  1
  O  O368  1  0.87035849  0.11928627  0.86927857  1
  O  O369  1  0.87004654  0.61947289  0.37048771  1
  O  O370  1  0.87149101  0.61747335  0.87370376  1
  O  O371  1  0.13507417  0.37465152  0.13490385  1
  O  O372  1  0.12832459  0.38324545  0.63791845  1
  O  O373  1  0.13111295  0.87338155  0.13263514  1
  O  O374  1  0.11207888  0.89262657  0.64004398  1
  O  O375  1  0.62628122  0.37894197  0.13044981  1
  O  O376  1  0.63079318  0.38718874  0.61982125  1
  O  O377  1  0.63344305  0.86944652  0.13538279  1
  O  O378  1  0.63648128  0.87260964  0.63470657  1
  O  O379  1  0.11615555  0.25711577  0.24871687  1
  O  O380  1  0.13322996  0.26651588  0.75795258  1
  O  O381  1  0.12269662  0.75849256  0.25860688  1
  O  O382  1  0.11698967  0.76016901  0.75236423  1
  O  O383  1  0.62536384  0.25597758  0.26329240  1
  O  O384  1  0.60902920  0.24875598  0.75452953  1
  O  O385  1  0.62074190  0.75064293  0.25528227  1
  O  O386  1  0.61908378  0.76091417  0.75324735  1
  O  O387  1  0.38051509  0.22949113  0.25384374  1
  O  O388  1  0.38429614  0.24835683  0.74576702  1
  O  O389  1  0.37797685  0.73712916  0.24320348  1
  O  O390  1  0.39381511  0.76270107  0.74664819  1
  O  O391  1  0.87898273  0.24249901  0.24507994  1
  O  O392  1  0.87213442  0.23687920  0.74795864  1
  O  O393  1  0.87351232  0.73644591  0.24435850  1
  O  O394  1  0.88166258  0.74661470  0.74109040  1
  O  O395  1  0.38141127  0.50284671  0.48957507  1
  O  O396  1  0.39082440  0.54121923  0.96525356  1
  O  O397  1  0.37818539  1.02133716  0.49049960  1
  O  O398  1  0.37439221  0.98934831  0.99159237  1
  O  O399  1  0.88307018  0.49832131  0.49208161  1
  O  O400  1  0.87026762  0.49134239  0.99076253  1
  O  O401  1  0.88098967  0.98851522  0.50450493  1
  O  O402  1  0.88284831  0.99950956  0.99117242  1
  O  O403  1  0.11703992  0.00317477  0.00142459  1
  O  O404  1  0.11487610  0.00778100  0.50908230  1
  O  O405  1  0.12483957  0.49676023  -0.00963374  1
  O  O406  1  0.11842537  0.50608975  0.50322277  1
  O  O407  1  0.62366462  0.01162633  0.00126900  1
  O  O408  1  0.63034650  0.02001507  0.50987417  1
  O  O409  1  0.62923461  0.50556963  0.01252574  1
  O  O410  1  0.62029509  0.50754359  0.50652967  1
  O  O411  1  0.36168039  0.37227183  0.13313651  1
  O  O412  1  0.37816143  0.36563451  0.62523130  1
  O  O413  1  0.36826942  0.86829038  0.12093802  1
  O  O414  1  0.38365640  0.88079235  0.61337811  1
  O  O415  1  0.87258663  0.37017900  0.11986592  1
  O  O416  1  0.86602061  0.37576767  0.62492580  1
  O  O417  1  0.87199098  0.86058319  0.12738894  1
  O  O418  1  0.86596334  0.86901261  0.61648938  1
  O  O419  1  0.12963346  0.12932267  0.37986633  1
  O  O420  1  0.13401319  0.13490515  0.87281153  1
  O  O421  1  0.12747438  0.62787397  0.37279212  1
  O  O422  1  0.13109991  0.63327190  0.87587530  1
  O  O423  1  0.62715250  0.13072057  0.38108889  1
  O  O424  1  0.63327925  0.12590926  0.88133576  1
  O  O425  1  0.63154695  0.62390278  0.38001670  1
  O  O426  1  0.63386238  0.62043425  0.89148103  1
