# generated using pymatgen
data_V85Zn86O256
_symmetry_space_group_name_H-M   'P 1'
_cell_length_a   16.91776432
_cell_length_b   16.91746163
_cell_length_c   16.91305414
_cell_angle_alpha   89.96744068
_cell_angle_beta   89.99976655
_cell_angle_gamma   90.01153976
_symmetry_Int_Tables_number   1
_chemical_formula_structural   V85Zn86O256
_chemical_formula_sum   'V85 Zn86 O256'
_cell_volume   4840.61041361
_cell_formula_units_Z   1
loop_
 _symmetry_equiv_pos_site_id
 _symmetry_equiv_pos_as_xyz
  1  'x, y, z'
loop_
 _atom_site_type_symbol
 _atom_site_label
 _atom_site_symmetry_multiplicity
 _atom_site_fract_x
 _atom_site_fract_y
 _atom_site_fract_z
 _atom_site_occupancy
  V  V0  1  0.62822721  0.24371100  0.87412849  1
  V  V1  1  0.37163203  0.12815889  0.24249480  1
  V  V2  1  0.62096625  0.37077801  0.25970652  1
  V  V3  1  0.74899287  0.37758153  0.13008368  1
  V  V4  1  0.87874458  0.13876538  0.74630945  1
  V  V5  1  0.75042302  0.24697313  -0.00160563  1
  V  V6  1  0.50025445  0.87954006  0.87085269  1
  V  V7  1  0.62374313  0.88438598  0.23897680  1
  V  V8  1  0.75105801  0.50118422  0.74852706  1
  V  V9  1  0.12142406  0.37538524  0.25838983  1
  V  V10  1  0.12548602  0.75106309  0.37721762  1
  V  V11  1  0.37366964  0.87297232  0.49764593  1
  V  V12  1  0.00186307  0.62637961  0.62106713  1
  V  V13  1  0.25079058  0.37664478  0.62721766  1
  V  V14  1  0.87498647  0.86834652  0.50880414  1
  V  V15  1  0.87903618  0.62409083  0.25637033  1
  V  V16  1  0.37356475  0.74873739  0.62762569  1
  V  V17  1  0.37122185  0.11051398  0.75215179  1
  V  V18  1  -0.00326525  0.88416067  0.38059727  1
  V  V19  1  0.87286369  0.24382247  0.13251301  1
  V  V20  1  0.62801033  -0.00283659  0.63289512  1
  V  V21  1  0.38117240  0.37254039  0.49571589  1
  V  V22  1  0.86336008  0.00402520  0.37684639  1
  V  V23  1  0.37926930  0.49701145  0.37108400  1
  V  V24  1  0.74521706  0.86489379  0.63155079  1
  V  V25  1  0.49566392  0.49992366  -0.00604857  1
  V  V26  1  0.50727781  0.50110357  0.49606624  1
  V  V27  1  0.12334089  0.24982043  0.87051190  1
  V  V28  1  0.12618474  0.49958953  0.12599815  1
  V  V29  1  0.25212726  0.11423902  0.87224458  1
  V  V30  1  0.49533203  0.00015284  0.00096758  1
  V  V31  1  0.49975112  0.12873802  0.12434182  1
  V  V32  1  0.88507447  0.49835547  0.37471879  1
  V  V33  1  0.88368750  0.37024447  0.49888847  1
  V  V34  1  0.24560564  0.88157506  0.12111357  1
  V  V35  1  0.62468382  0.75572545  0.86976127  1
  V  V36  1  0.75128593  0.62459591  0.87608655  1
  V  V37  1  0.25467763  0.50621297  0.24940876  1
  V  V38  1  -0.00432607  0.25033779  0.25652361  1
  V  V39  1  0.00500194  0.00193171  0.00435184  1
  V  V40  1  0.87153907  0.74979369  0.12641712  1
  V  V41  1  0.12267949  0.24772335  0.38120919  1
  V  V42  1  0.13412373  0.88668207  0.75106726  1
  V  V43  1  0.37366139  0.37166035  -0.00148709  1
  V  V44  1  0.50042947  0.24756810  0.74967479  1
  V  V45  1  0.00232208  0.50009587  -0.00083235  1
  V  V46  1  0.00099157  0.75418771  0.74299408  1
  V  V47  1  0.62864420  0.11806767  0.00208634  1
  V  V48  1  0.75034547  0.24552855  0.50170070  1
  V  V49  1  0.25372849  0.37108900  0.12629548  1
  V  V50  1  0.00130771  0.13234495  0.61870226  1
  V  V51  1  0.50223066  -0.00033846  0.49996265  1
  V  V52  1  0.36742289  0.74461246  0.12281318  1
  V  V53  1  0.25735091  0.62706300  0.37612597  1
  V  V54  1  0.73758956  0.73923330  0.48582394  1
  V  V55  1  0.24923125  0.62278605  0.88139167  1
  V  V56  1  0.49349916  0.25318948  0.25436150  1
  V  V57  1  0.62309668  0.49682370  0.12316817  1
  V  V58  1  -0.00074707  0.87514724  0.87361664  1
  V  V59  1  0.37499759  -0.00011205  0.37081184  1
  V  V60  1  0.37366849  0.24682644  0.62553115  1
  V  V61  1  0.12292769  0.00443116  0.60701748  1
  V  V62  1  0.87609330  0.63199478  0.74582408  1
  V  V63  1  0.24625673  0.12393206  0.38044130  1
  V  V64  1  0.50186096  0.12346087  0.62447317  1
  V  V65  1  0.62655428  0.37533659  0.74900412  1
  V  V66  1  0.74853972  0.74787417  0.00275845  1
  V  V67  1  0.00065212  0.75315725  0.25167699  1
  V  V68  1  0.75497420  0.36986329  0.62494092  1
  V  V69  1  0.36914163  0.87583504  -0.00498947  1
  V  V70  1  0.49724684  0.74502000  0.25024537  1
  V  V71  1  0.50929908  0.87287870  0.37326556  1
  V  V72  1  0.87520326  0.37597581  0.00287922  1
  V  V73  1  0.12308195  0.88621355  0.24714946  1
  V  V74  1  0.72379608  0.53206543  0.27184763  1
  V  V75  1  0.50517270  0.62563257  0.62046843  1
  V  V76  1  -0.00051364  0.37258017  0.86641029  1
  V  V77  1  0.87375736  0.87609714  0.00136689  1
  V  V78  1  0.00584383  0.12290198  0.13075891  1
  V  V79  1  0.62353414  0.62460943  0.00187829  1
  V  V80  1  0.37722571  0.61602370  0.75684976  1
  V  V81  1  0.00385500  0.62598743  0.12349486  1
  V  V82  1  0.25057013  0.24871082  0.00214352  1
  V  V83  1  0.86802502  0.00771865  0.87243214  1
  V  V84  1  0.49411820  0.37515633  0.87293888  1
  Zn  Zn85  1  0.24479019  0.00488964  0.24490463  1
  Zn  Zn86  1  0.62931310  0.12303426  0.49944761  1
  Zn  Zn87  1  0.74289557  0.87751008  0.12344916  1
  Zn  Zn88  1  0.00600760  0.49623238  0.49924161  1
  Zn  Zn89  1  0.63002566  0.50450096  0.61590172  1
  Zn  Zn90  1  0.13179083  0.63244397  0.00249550  1
  Zn  Zn91  1  0.24945231  0.74998211  0.50350380  1
  Zn  Zn92  1  0.25481841  0.88416317  0.63080154  1
  Zn  Zn93  1  0.12731211  0.12226139  0.00310051  1
  Zn  Zn94  1  0.12856020  0.62281620  0.50220713  1
  Zn  Zn95  1  0.74946942  0.00071012  0.75112923  1
  Zn  Zn96  1  0.87621354  0.50174679  0.87668848  1
  Zn  Zn97  1  0.50295242  0.75285213  0.74963770  1
  Zn  Zn98  1  0.75217113  0.01424602  0.23536201  1
  Zn  Zn99  1  0.12007197  0.37358275  0.74537841  1
  Zn  Zn100  1  0.62027025  0.24734583  0.37947858  1
  Zn  Zn101  1  0.49205350  0.62169329  0.12648374  1
  Zn  Zn102  1  0.74893999  0.13243608  0.36104159  1
  Zn  Zn103  1  0.24994109  0.49680812  0.75299528  1
  Zn  Zn104  1  0.13336578  0.75269390  0.87806617  1
  Zn  Zn105  1  0.12750894  0.50097428  0.62469288  1
  Zn  Zn106  1  0.24628307  0.24666322  0.50212328  1
  Zn  Zn107  1  0.18479705  0.18893813  0.18988275  1
  Zn  Zn108  1  0.18448155  0.18465397  0.68843187  1
  Zn  Zn109  1  0.18847999  0.69099250  0.18971482  1
  Zn  Zn110  1  0.18842365  0.69015883  0.69281376  1
  Zn  Zn111  1  0.68401920  0.18640948  0.18678503  1
  Zn  Zn112  1  0.69339511  0.18272587  0.68780743  1
  Zn  Zn113  1  0.67897396  0.68605383  0.20251738  1
  Zn  Zn114  1  0.68731655  0.68846238  0.68586083  1
  Zn  Zn115  1  0.31093205  0.31183753  0.31283506  1
  Zn  Zn116  1  0.31170341  0.30626837  0.81192984  1
  Zn  Zn117  1  0.31244335  0.81453866  0.30821433  1
  Zn  Zn118  1  0.31480886  0.80774656  0.81353599  1
  Zn  Zn119  1  0.80924888  0.31592877  0.31643329  1
  Zn  Zn120  1  0.81393416  0.31369085  0.81560097  1
  Zn  Zn121  1  0.80907779  0.81369476  0.31511947  1
  Zn  Zn122  1  0.81400570  0.81298457  0.81243928  1
  Zn  Zn123  1  0.19059702  0.43721046  0.44186151  1
  Zn  Zn124  1  0.18737956  0.44203280  0.93296324  1
  Zn  Zn125  1  0.19015426  0.93700009  0.43491937  1
  Zn  Zn126  1  0.18548875  0.93581387  0.93906016  1
  Zn  Zn127  1  0.69212073  0.43447781  0.43689749  1
  Zn  Zn128  1  0.68652486  0.43428594  0.93560497  1
  Zn  Zn129  1  0.68904763  0.93335882  0.44299858  1
  Zn  Zn130  1  0.68771683  0.93663279  0.94000142  1
  Zn  Zn131  1  0.31329307  0.06006092  0.06054172  1
  Zn  Zn132  1  0.30998070  0.05904132  0.56349912  1
  Zn  Zn133  1  0.31470558  0.55790280  0.05935933  1
  Zn  Zn134  1  0.31628779  0.56196867  0.56094066  1
  Zn  Zn135  1  0.81526948  0.06392742  0.06340973  1
  Zn  Zn136  1  0.81872930  0.05754651  0.56473518  1
  Zn  Zn137  1  0.81199847  0.56239464  0.06967770  1
  Zn  Zn138  1  0.81608618  0.56300212  0.56190294  1
  Zn  Zn139  1  0.43607218  0.43438335  0.18422533  1
  Zn  Zn140  1  0.43929638  0.43737240  0.68271237  1
  Zn  Zn141  1  0.43590050  0.93957293  0.18303457  1
  Zn  Zn142  1  0.43945489  0.93533203  0.68654226  1
  Zn  Zn143  1  0.93742125  0.43640105  0.18989248  1
  Zn  Zn144  1  0.93536843  0.44227549  0.68430766  1
  Zn  Zn145  1  0.93165623  0.93970315  0.18999972  1
  Zn  Zn146  1  0.94055999  0.94294171  0.68476518  1
  Zn  Zn147  1  0.05603098  0.06595328  0.31735272  1
  Zn  Zn148  1  0.05910109  0.06536049  0.81300648  1
  Zn  Zn149  1  0.06557653  0.56399581  0.31522625  1
  Zn  Zn150  1  0.06693094  0.55948995  0.80833811  1
  Zn  Zn151  1  0.56513559  0.06500221  0.31386143  1
  Zn  Zn152  1  0.56152305  0.06132970  0.81431689  1
  Zn  Zn153  1  0.55544645  0.56526595  0.31068112  1
  Zn  Zn154  1  0.56416694  0.56448263  0.81191716  1
  Zn  Zn155  1  0.43635351  0.18446167  0.43514731  1
  Zn  Zn156  1  0.43480087  0.18758504  0.93675581  1
  Zn  Zn157  1  0.43803568  0.68660750  0.43622402  1
  Zn  Zn158  1  0.43583467  0.69064227  0.93837620  1
  Zn  Zn159  1  0.93700260  0.18708700  0.44001981  1
  Zn  Zn160  1  0.93807746  0.18711522  0.93857462  1
  Zn  Zn161  1  0.93258593  0.69228894  0.43914838  1
  Zn  Zn162  1  0.94143716  0.68878149  0.93544357  1
  Zn  Zn163  1  0.06462343  0.31116337  0.06298433  1
  Zn  Zn164  1  0.06218513  0.30864663  0.56609919  1
  Zn  Zn165  1  0.06416111  0.81207061  0.06130823  1
  Zn  Zn166  1  0.06379768  0.81575732  0.56421849  1
  Zn  Zn167  1  0.56011749  0.30802849  0.06501272  1
  Zn  Zn168  1  0.56476633  0.31466701  0.56335853  1
  Zn  Zn169  1  0.55662077  0.81074789  0.06183719  1
  Zn  Zn170  1  0.56476118  0.81035375  0.56117845  1
  O  O171  1  0.11094022  0.12960775  0.12298329  1
  O  O172  1  0.11706953  0.11297530  0.62869581  1
  O  O173  1  0.12090645  0.61947717  0.12599220  1
  O  O174  1  0.11652738  0.62804571  0.62480506  1
  O  O175  1  0.61362138  0.13108966  0.11254542  1
  O  O176  1  0.61938831  0.11679305  0.62224368  1
  O  O177  1  0.62005728  0.61214153  0.12161956  1
  O  O178  1  0.60956419  0.62265539  0.63266173  1
  O  O179  1  0.36979398  0.38334577  0.38397735  1
  O  O180  1  0.38725532  0.36899295  0.87883416  1
  O  O181  1  0.38122484  0.88069674  0.37990762  1
  O  O182  1  0.38196084  0.86645202  0.88768725  1
  O  O183  1  0.87210180  0.38359190  0.38895324  1
  O  O184  1  0.88242482  0.37717235  0.88558244  1
  O  O185  1  0.87982954  0.87724809  0.38506333  1
  O  O186  1  0.88075828  0.88332202  0.88114262  1
  O  O187  1  0.25596246  0.00674223  0.37007444  1
  O  O188  1  0.24654651  0.01592150  0.88110358  1
  O  O189  1  0.25863719  0.50616290  0.36903332  1
  O  O190  1  0.25265253  0.51365810  0.87077237  1
  O  O191  1  0.75680135  -0.00045428  0.37516634  1
  O  O192  1  0.76471141  -0.00342964  0.87569135  1
  O  O193  1  0.76003106  0.49616203  0.36439976  1
  O  O194  1  0.75092460  0.50596743  0.86849248  1
  O  O195  1  0.24701709  0.49398538  0.13206380  1
  O  O196  1  0.25425665  0.48930445  0.62593465  1
  O  O197  1  0.25050005  0.98713733  0.12591387  1
  O  O198  1  0.23190444  1.00070056  0.62288955  1
  O  O199  1  0.73863501  0.49706495  0.13679582  1
  O  O200  1  0.74872664  0.49284890  0.63153423  1
  O  O201  1  0.76594363  0.98790049  0.12532036  1
  O  O202  1  0.74244769  0.98847258  0.62338861  1
  O  O203  1  0.01254970  0.36689043  0.24464832  1
  O  O204  1  -0.00495301  0.37950849  0.76327769  1
  O  O205  1  0.00475911  0.87072146  0.25773499  1
  O  O206  1  0.00604496  0.87157565  0.75506497  1
  O  O207  1  0.50624917  0.36323722  0.24052786  1
  O  O208  1  0.50477764  0.37068844  0.75573502  1
  O  O209  1  0.50554104  0.87325524  0.25413247  1
  O  O210  1  0.49486023  0.87441952  0.76639737  1
  O  O211  1  0.49337275  0.12889518  0.24183086  1
  O  O212  1  0.49216078  0.12899047  0.74569656  1
  O  O213  1  0.49398797  0.64109858  0.24692948  1
  O  O214  1  0.49076210  0.62638301  0.74561612  1
  O  O215  1  0.99906344  0.13592837  0.24323099  1
  O  O216  1  0.98624878  0.12044311  0.74464107  1
  O  O217  1  0.99570424  0.63067021  0.24477173  1
  O  O218  1  0.99502288  0.63368567  0.74562398  1
  O  O219  1  0.36712834  0.26202750  -0.00336067  1
  O  O220  1  0.37780560  0.25497560  0.50968862  1
  O  O221  1  0.38027876  0.75949915  0.01493787  1
  O  O222  1  0.37612401  0.75740422  0.50721889  1
  O  O223  1  0.86726144  0.25576451  0.00615638  1
  O  O224  1  0.86860238  0.26411393  0.49577015  1
  O  O225  1  0.87021791  0.75223070  0.00740948  1
  O  O226  1  0.86401782  0.76376417  0.49850169  1
  O  O227  1  0.12587668  0.25667232  0.48477943  1
  O  O228  1  0.13398144  0.24875997  0.99156212  1
  O  O229  1  0.12798756  0.75297083  0.48773432  1
  O  O230  1  0.11207401  0.74333520  0.98987168  1
  O  O231  1  0.63481695  0.25061062  0.49995184  1
  O  O232  1  0.63081285  0.24363733  0.99383125  1
  O  O233  1  0.63675632  0.75134495  0.49725155  1
  O  O234  1  0.62889533  0.74327258  0.99573065  1
  O  O235  1  0.49766869  0.23708881  0.13235099  1
  O  O236  1  0.49469762  0.24449617  0.63081497  1
  O  O237  1  0.48728521  0.74840512  0.13244423  1
  O  O238  1  0.49211341  0.74441400  0.62592083  1
  O  O239  1  0.99352666  0.24622356  0.13345763  1
  O  O240  1  1.01063596  0.23210792  0.63237285  1
  O  O241  1  0.99366980  0.74491361  0.13286128  1
  O  O242  1  1.00297687  0.74681898  0.63642332  1
  O  O243  1  0.00539790  0.24417988  0.36510288  1
  O  O244  1  0.00955795  0.26067250  0.88528365  1
  O  O245  1  0.00658266  0.75844091  0.37080998  1
  O  O246  1  -0.00398539  0.76494903  0.86525451  1
  O  O247  1  0.50016038  0.24452628  0.35969342  1
  O  O248  1  0.50637536  0.25555892  0.86911320  1
  O  O249  1  0.48881800  0.75857565  0.35977214  1
  O  O250  1  0.50863974  0.75876287  0.87773126  1
  O  O251  1  0.25875792  0.12752594  0.48447728  1
  O  O252  1  0.25102032  0.13215668  0.99243504  1
  O  O253  1  0.25069839  0.62899908  0.49087869  1
  O  O254  1  0.25273501  0.62081937  0.98626707  1
  O  O255  1  0.75559280  0.13991164  0.50958616  1
  O  O256  1  0.74349481  0.13820106  1.00493524  1
  O  O257  1  0.75381539  0.64117650  0.50865673  1
  O  O258  1  0.74561194  0.62907869  0.99758257  1
  O  O259  1  0.25514074  0.37098558  0.00385991  1
  O  O260  1  0.26400865  0.37122219  0.50985993  1
  O  O261  1  0.25652228  0.87682241  0.00595369  1
  O  O262  1  0.26402743  0.87321311  0.49975616  1
  O  O263  1  0.75373888  0.36815158  0.00773932  1
  O  O264  1  0.75704936  0.36827657  0.50762826  1
  O  O265  1  0.75627972  0.86421441  0.00097585  1
  O  O266  1  0.75612175  0.86424128  0.50956536  1
  O  O267  1  0.13209978  0.49261518  0.24752710  1
  O  O268  1  0.13063598  0.49143314  0.74387536  1
  O  O269  1  0.12126313  0.98913832  0.25481395  1
  O  O270  1  0.12190616  0.98767101  0.75131235  1
  O  O271  1  0.61831040  0.48602813  0.24018057  1
  O  O272  1  0.63802383  0.49530821  0.75166135  1
  O  O273  1  0.62482196  0.98716265  0.25018563  1
  O  O274  1  0.62748011  1.00485763  0.73818673  1
  O  O275  1  0.37363727  0.00779806  0.25499572  1
  O  O276  1  0.37518394  0.01114241  0.74453331  1
  O  O277  1  0.36703778  0.49262743  0.25728903  1
  O  O278  1  0.37847780  0.51367869  0.74637263  1
  O  O279  1  0.86788070  -0.01401796  0.27208986  1
  O  O280  1  0.87633951  -0.00062326  0.76476850  1
  O  O281  1  0.87488750  0.50722417  0.25812018  1
  O  O282  1  0.86378709  0.50700164  0.75335789  1
  O  O283  1  0.13499236  0.36818859  0.36381278  1
  O  O284  1  0.11611865  0.36886370  0.87565917  1
  O  O285  1  0.11738871  0.87056103  0.37003024  1
  O  O286  1  0.11764111  0.87628012  0.86548189  1
  O  O287  1  0.62463048  0.37355211  0.36255531  1
  O  O288  1  0.61500566  0.36459598  0.87066254  1
  O  O289  1  0.61210700  0.87901761  0.36805395  1
  O  O290  1  0.61539136  0.86660706  0.88347256  1
  O  O291  1  0.37868395  0.12157245  0.13572736  1
  O  O292  1  0.37883482  0.12994085  0.63042452  1
  O  O293  1  0.37095167  0.64017858  0.12001926  1
  O  O294  1  0.38370581  0.63061834  0.63315572  1
  O  O295  1  0.88528855  0.14095519  0.11894045  1
  O  O296  1  0.88852311  0.11701143  0.63697314  1
  O  O297  1  0.88687162  0.63477879  0.12730752  1
  O  O298  1  0.88403892  0.62096326  0.63874747  1
  O  O299  1  0.24264905  0.25698968  0.11264942  1
  O  O300  1  0.25833773  0.25193005  0.62276143  1
  O  O301  1  0.26178387  0.76047646  0.13224021  1
  O  O302  1  0.26280042  0.75281249  0.62506959  1
  O  O303  1  0.75686743  0.25755988  0.11885008  1
  O  O304  1  0.74624135  0.26403267  0.62190602  1
  O  O305  1  0.75644438  0.75027243  0.12160547  1
  O  O306  1  0.74707999  0.76227227  0.62186835  1
  O  O307  1  0.24143944  0.24169653  0.37478184  1
  O  O308  1  0.24386154  0.24517468  0.88610396  1
  O  O309  1  0.24483521  0.74342094  0.37266569  1
  O  O310  1  0.25112266  0.73002083  0.86818533  1
  O  O311  1  0.74676685  0.25027131  0.38702883  1
  O  O312  1  0.74027071  0.25811151  0.88604966  1
  O  O313  1  0.74983402  0.74712425  0.38581578  1
  O  O314  1  0.74422208  0.74552761  0.88193524  1
  O  O315  1  0.00135101  0.11820132  0.00806842  1
  O  O316  1  -0.00654154  0.12657097  0.51833749  1
  O  O317  1  -0.00210195  0.61175440  0.00321256  1
  O  O318  1  -0.00181896  0.63052834  0.51293736  1
  O  O319  1  0.50353244  0.12128436  0.00407141  1
  O  O320  1  0.49851008  0.11653695  0.50763078  1
  O  O321  1  0.50288017  0.61490610  0.00020043  1
  O  O322  1  0.49413571  0.61528007  0.50770255  1
  O  O323  1  0.48859649  0.38258586  0.50531425  1
  O  O324  1  0.49330570  0.37667879  0.99374686  1
  O  O325  1  0.49238143  0.87730112  0.49196596  1
  O  O326  1  0.49239779  0.88324803  0.99554278  1
  O  O327  1  0.98670269  0.37443803  0.50619409  1
  O  O328  1  0.99619929  0.38537531  0.99816032  1
  O  O329  1  0.98531296  0.86770864  0.49534699  1
  O  O330  1  0.99271586  0.88176343  0.99339222  1
  O  O331  1  0.48793367  0.50656516  0.37897128  1
  O  O332  1  0.50805868  0.49023800  0.88572503  1
  O  O333  1  0.49424120  0.99309447  0.38002865  1
  O  O334  1  0.50495094  0.99316826  0.88808599  1
  O  O335  1  0.98996800  0.50218638  0.37715509  1
  O  O336  1  0.99996771  0.49351257  0.88380432  1
  O  O337  1  0.99000363  0.98839929  0.37487188  1
  O  O338  1  0.99249888  0.99121104  0.88072375  1
  O  O339  1  -0.01227640  0.01096156  0.11786035  1
  O  O340  1  0.01607958  0.00725322  0.62853574  1
  O  O341  1  0.00554265  0.50476305  0.11972778  1
  O  O342  1  0.00252847  0.51216277  0.62227961  1
  O  O343  1  0.49637600  0.01211483  0.11180515  1
  O  O344  1  0.50764793  0.00184203  0.62000927  1
  O  O345  1  0.50402172  0.49922560  0.11292814  1
  O  O346  1  0.50213043  0.50721048  0.61388804  1
  O  O347  1  0.24458622  0.38145359  0.24205742  1
  O  O348  1  0.25717880  0.37431735  0.73731940  1
  O  O349  1  0.23978012  0.87914882  0.24287842  1
  O  O350  1  0.23751871  0.87191557  0.75192398  1
  O  O351  1  0.73677489  0.37457477  0.24345107  1
  O  O352  1  0.74960726  0.38233911  0.74465081  1
  O  O353  1  0.72857064  0.86746866  0.24976173  1
  O  O354  1  0.75629590  0.87718400  0.73518209  1
  O  O355  1  0.25604865  0.12497988  0.25514760  1
  O  O356  1  0.25652450  0.12988432  0.76415494  1
  O  O357  1  0.24591825  0.61202612  0.25569652  1
  O  O358  1  0.26421998  0.62201641  0.75394252  1
  O  O359  1  0.75402945  0.12746925  0.24739205  1
  O  O360  1  0.77090602  0.11817897  0.74261886  1
  O  O361  1  0.77597301  0.62263199  0.22623889  1
  O  O362  1  0.75665991  0.62026310  0.75277624  1
  O  O363  1  0.36851921  0.11916734  0.36351019  1
  O  O364  1  0.36174413  0.13008838  0.86710492  1
  O  O365  1  0.36405280  0.61715330  0.37557526  1
  O  O366  1  0.37115439  0.62816239  0.86316352  1
  O  O367  1  0.87269400  0.10676575  0.38419388  1
  O  O368  1  0.88099130  0.11447009  0.86588729  1
  O  O369  1  0.87979338  0.61792249  0.36533756  1
  O  O370  1  0.86967456  0.62406234  0.86521771  1
  O  O371  1  0.13526257  0.37999359  0.13195074  1
  O  O372  1  0.13769698  0.37211336  0.62519539  1
  O  O373  1  0.13223009  0.86861309  0.13534853  1
  O  O374  1  0.12649615  0.88609072  0.63506875  1
  O  O375  1  0.62770780  0.38332687  0.12618759  1
  O  O376  1  0.63299767  0.38078554  0.63369396  1
  O  O377  1  0.62012629  0.87573721  0.13522765  1
  O  O378  1  0.63718352  0.87941803  0.62417542  1
  O  O379  1  0.11730740  0.25766335  0.25800201  1
  O  O380  1  0.13176583  0.25471098  0.76594972  1
  O  O381  1  0.12078032  0.75818427  0.26118988  1
  O  O382  1  0.11671786  0.76249795  0.75425079  1
  O  O383  1  0.61343895  0.25724247  0.24859400  1
  O  O384  1  0.62299505  0.25280080  0.75692333  1
  O  O385  1  0.60316673  0.76336016  0.24398758  1
  O  O386  1  0.62358397  0.74527391  0.76575002  1
  O  O387  1  0.37985915  0.24183629  0.25132309  1
  O  O388  1  0.38064626  0.24269314  0.73896344  1
  O  O389  1  0.38526864  0.76187464  0.23424291  1
  O  O390  1  0.38069389  0.74064070  0.74222119  1
  O  O391  1  0.88387633  0.26241473  0.24346231  1
  O  O392  1  0.87432174  0.23756355  0.75536471  1
  O  O393  1  0.87975879  0.74555729  0.24538358  1
  O  O394  1  0.88422098  0.74233704  0.75333105  1
  O  O395  1  0.38368907  0.49195736  0.49160129  1
  O  O396  1  0.38351062  0.48518383  1.00097309  1
  O  O397  1  0.38212719  0.99179523  0.49541881  1
  O  O398  1  0.38292832  0.98987776  1.00018133  1
  O  O399  1  0.87612146  0.49108855  0.49145983  1
  O  O400  1  0.88170139  0.49354881  1.00290342  1
  O  O401  1  0.86700855  0.98163216  0.48878077  1
  O  O402  1  0.88377226  0.99921374  0.98744971  1
  O  O403  1  0.10920525  0.00038806  -0.00201548  1
  O  O404  1  0.12184054  -0.00579052  0.50831141  1
  O  O405  1  0.11807741  0.50333058  0.00784909  1
  O  O406  1  0.12293013  0.50374332  0.50331943  1
  O  O407  1  0.62076041  0.01392465  -0.00476813  1
  O  O408  1  0.61777173  -0.00221418  0.51096105  1
  O  O409  1  0.61892158  0.50212753  0.00589789  1
  O  O410  1  0.61201767  0.49458079  0.49437312  1
  O  O411  1  0.36080263  0.37589399  0.11659570  1
  O  O412  1  0.37240601  0.36475954  0.61935467  1
  O  O413  1  0.36693495  0.86968794  0.11548571  1
  O  O414  1  0.37541200  0.86767452  0.61741806  1
  O  O415  1  0.87013142  0.36807759  0.12061694  1
  O  O416  1  0.86721716  0.38136561  0.61173325  1
  O  O417  1  0.87955229  0.86002969  0.11980271  1
  O  O418  1  0.86547010  0.88179428  0.61483467  1
  O  O419  1  0.13386395  0.13353650  0.36880390  1
  O  O420  1  0.13423254  0.13123566  0.87724057  1
  O  O421  1  0.13572588  0.63421679  0.37586927  1
  O  O422  1  0.13913320  0.62509991  0.87315614  1
  O  O423  1  0.63041487  0.12722249  0.38206623  1
  O  O424  1  0.62056703  0.13745980  0.88201883  1
  O  O425  1  0.65772650  0.61173035  0.30536063  1
  O  O426  1  0.63148312  0.63130277  0.88310741  1
