# generated using pymatgen
data_V85Zn86O256
_symmetry_space_group_name_H-M   'P 1'
_cell_length_a   16.94051202
_cell_length_b   16.93233965
_cell_length_c   16.94232288
_cell_angle_alpha   90.02954965
_cell_angle_beta   89.93868956
_cell_angle_gamma   89.99681915
_symmetry_Int_Tables_number   1
_chemical_formula_structural   V85Zn86O256
_chemical_formula_sum   'V85 Zn86 O256'
_cell_volume   4859.77487244
_cell_formula_units_Z   1
loop_
 _symmetry_equiv_pos_site_id
 _symmetry_equiv_pos_as_xyz
  1  'x, y, z'
loop_
 _atom_site_type_symbol
 _atom_site_label
 _atom_site_symmetry_multiplicity
 _atom_site_fract_x
 _atom_site_fract_y
 _atom_site_fract_z
 _atom_site_occupancy
  V  V0  1  0.49448176  0.49958004  0.00163914  1
  V  V1  1  0.62621846  0.75816693  0.86873847  1
  V  V2  1  0.24849053  0.24347970  0.49953212  1
  V  V3  1  0.87794058  0.12335017  0.23655101  1
  V  V4  1  0.75085719  0.62348659  0.37195187  1
  V  V5  1  0.62466362  0.74888485  0.37340045  1
  V  V6  1  0.74721419  0.74839838  0.00348746  1
  V  V7  1  0.11435587  0.12708245  0.00605794  1
  V  V8  1  0.38029867  0.38060056  0.49944973  1
  V  V9  1  0.00322161  0.00822548  0.50103865  1
  V  V10  1  0.74809365  0.13110368  0.86915372  1
  V  V11  1  0.75118495  0.88299284  0.12940145  1
  V  V12  1  0.61986157  0.61787738  0.49796562  1
  V  V13  1  0.12465495  0.50345431  0.12657381  1
  V  V14  1  0.76576031  0.36968942  0.12368277  1
  V  V15  1  0.61728670  0.49736675  0.62375373  1
  V  V16  1  0.11986549  0.37519155  0.74906172  1
  V  V17  1  0.50785883  0.37413998  0.37857581  1
  V  V18  1  0.24746509  0.11923043  0.87469631  1
  V  V19  1  0.74706789  0.62034590  0.87756386  1
  V  V20  1  0.87231566  0.87635535  -0.00088546  1
  V  V21  1  0.37498605  0.75532758  0.13455315  1
  V  V22  1  0.12449850  0.75124798  0.37422814  1
  V  V23  1  0.49411321  0.62764557  0.62159093  1
  V  V24  1  0.00251216  0.37213619  0.37387341  1
  V  V25  1  0.87459748  0.74144060  0.12567372  1
  V  V26  1  0.00244284  0.74575193  0.24403299  1
  V  V27  1  0.37419413  0.87313503  0.50446377  1
  V  V28  1  0.26146962  0.50149835  0.24833696  1
  V  V29  1  -0.00107917  0.62709458  0.62430708  1
  V  V30  1  0.62959167  0.88141042  0.25138120  1
  V  V31  1  0.76654625  0.25382891  -0.00291701  1
  V  V32  1  0.88001641  0.25277476  0.62759668  1
  V  V33  1  0.24784901  0.25403744  -0.00120601  1
  V  V34  1  0.86994899  0.75442016  0.62504892  1
  V  V35  1  -0.00401987  0.50176686  0.00447150  1
  V  V36  1  0.74919077  0.75153885  0.50213459  1
  V  V37  1  0.62927911  0.36855661  0.25011373  1
  V  V38  1  0.12074669  0.62775271  0.00279468  1
  V  V39  1  0.37110299  0.00094366  0.36638011  1
  V  V40  1  0.88114295  0.12998563  0.74833634  1
  V  V41  1  0.25229355  0.74998122  0.50877441  1
  V  V42  1  0.00150773  0.50010677  0.49902416  1
  V  V43  1  0.87061995  0.00032061  0.36744212  1
  V  V44  1  0.61185579  0.00561356  0.12469634  1
  V  V45  1  0.25040537  0.37446061  0.62380889  1
  V  V46  1  0.63082935  -0.01272865  0.62310783  1
  V  V47  1  0.12449744  0.50000558  0.62578472  1
  V  V48  1  0.12651481  0.62543345  0.49941123  1
  V  V49  1  0.42411477  0.07096354  0.80975929  1
  V  V50  1  0.24903915  0.12300890  0.36582794  1
  V  V51  1  0.25365226  0.62772785  0.87712546  1
  V  V52  1  -0.00196108  0.75315131  0.75071248  1
  V  V53  1  0.87494083  0.49572830  0.87695007  1
  V  V54  1  0.87098801  0.87788212  0.50000934  1
  V  V55  1  0.74680818  0.49759328  0.74852992  1
  V  V56  1  0.49942114  0.87516571  0.37151195  1
  V  V57  1  0.75159554  -0.01279543  0.74691084  1
  V  V58  1  0.12205466  0.24359814  0.37834487  1
  V  V59  1  0.43270076  0.31849255  -0.06085616  1
  V  V60  1  0.25791253  0.62364238  0.37064005  1
  V  V61  1  0.37469473  0.63461433  0.74857157  1
  V  V62  1  0.61680182  0.36852486  0.76082305  1
  V  V63  1  0.87630855  0.49985561  0.37375361  1
  V  V64  1  0.24579727  0.00455127  0.74699689  1
  V  V65  1  0.50470674  0.24197505  0.25273828  1
  V  V66  1  0.12394270  0.75472137  0.87685812  1
  V  V67  1  0.74727496  0.25114311  0.49471993  1
  V  V68  1  -0.00203588  0.37366456  0.87647762  1
  V  V69  1  0.50107554  0.00222812  0.49925059  1
  V  V70  1  0.25764789  0.76566887  0.00570370  1
  V  V71  1  0.62499764  0.12862254  0.49822801  1
  V  V72  1  -0.00107240  0.24575597  0.23332619  1
  V  V73  1  0.74865721  0.12625130  0.36698499  1
  V  V74  1  0.25570995  0.37671752  0.12176405  1
  V  V75  1  0.13598557  0.87987351  0.24441240  1
  V  V76  1  0.87389135  0.37496023  0.50020765  1
  V  V77  1  0.50413547  0.75817069  0.74876343  1
  V  V78  1  0.37924697  0.50226995  0.87481587  1
  V  V79  1  0.61869604  0.62206248  0.00557744  1
  V  V80  1  0.37718112  0.24217505  0.62917764  1
  V  V81  1  0.12487592  0.00344556  0.12904713  1
  V  V82  1  0.12114525  0.24889532  0.86834365  1
  V  V83  1  0.62252839  0.13438735  0.00472519  1
  V  V84  1  0.38006247  0.24776343  0.12946481  1
  Zn  Zn85  1  0.87344900  0.00109343  0.87521256  1
  Zn  Zn86  1  -0.00398613  0.87903506  0.87625438  1
  Zn  Zn87  1  0.38417149  0.50207575  0.37500952  1
  Zn  Zn88  1  0.75237727  0.49767700  0.24579810  1
  Zn  Zn89  1  0.25090269  0.50171096  0.75057411  1
  Zn  Zn90  1  0.88263140  0.62186296  0.24664898  1
  Zn  Zn91  1  0.62458744  0.49501037  0.12633458  1
  Zn  Zn92  1  0.12325018  0.87853960  0.74531896  1
  Zn  Zn93  1  0.49727419  0.25313419  0.75809240  1
  Zn  Zn94  1  0.24886805  0.87650340  0.62657188  1
  Zn  Zn95  1  -0.00622046  0.00482657  0.00395603  1
  Zn  Zn96  1  0.42830342  0.94196671  0.95989773  1
  Zn  Zn97  1  0.00792600  0.13302945  0.62578771  1
  Zn  Zn98  1  0.49597410  0.73821048  0.25396828  1
  Zn  Zn99  1  0.12741855  0.00555177  0.61986030  1
  Zn  Zn100  1  0.48241321  0.61434185  0.13631786  1
  Zn  Zn101  1  0.74614839  0.37400194  0.62358213  1
  Zn  Zn102  1  0.12734754  0.37342979  0.24983183  1
  Zn  Zn103  1  0.87327928  0.62422013  0.74881700  1
  Zn  Zn104  1  0.37850573  0.11794224  0.24105587  1
  Zn  Zn105  1  -0.00013851  0.87697577  0.37295932  1
  Zn  Zn106  1  0.50285470  0.12455350  0.62854369  1
  Zn  Zn107  1  0.18611490  0.18814541  0.18775490  1
  Zn  Zn108  1  0.18544078  0.18267927  0.68665810  1
  Zn  Zn109  1  0.19212945  0.68767280  0.18605096  1
  Zn  Zn110  1  0.18509320  0.68917754  0.68989587  1
  Zn  Zn111  1  0.69206502  0.19103494  0.18407950  1
  Zn  Zn112  1  0.68888345  0.18893690  0.68159684  1
  Zn  Zn113  1  0.68383102  0.68839404  0.18999535  1
  Zn  Zn114  1  0.68638248  0.68475396  0.68604897  1
  Zn  Zn115  1  0.31480167  0.31344392  0.31216159  1
  Zn  Zn116  1  0.30441498  0.30962258  0.80663697  1
  Zn  Zn117  1  0.31100121  0.81217219  0.31716223  1
  Zn  Zn118  1  0.31404566  0.82291448  0.81560015  1
  Zn  Zn119  1  0.81651831  0.30803328  0.31025123  1
  Zn  Zn120  1  0.81029800  0.31408571  0.81106922  1
  Zn  Zn121  1  0.81340941  0.81180840  0.31144863  1
  Zn  Zn122  1  0.80971203  0.81015579  0.81500239  1
  Zn  Zn123  1  0.19040069  0.43405371  0.43591301  1
  Zn  Zn124  1  0.18842629  0.43933999  0.93752409  1
  Zn  Zn125  1  0.18712992  0.93658185  0.43354427  1
  Zn  Zn126  1  0.18440272  0.94114020  0.93791483  1
  Zn  Zn127  1  0.68598806  0.43631816  0.43485301  1
  Zn  Zn128  1  0.68517960  0.43245812  0.94159399  1
  Zn  Zn129  1  0.69021932  0.94059669  0.43749479  1
  Zn  Zn130  1  0.62618878  0.92075410  0.95817719  1
  Zn  Zn131  1  0.29488050  0.05423077  0.07164926  1
  Zn  Zn132  1  0.31202717  0.06234453  0.55740914  1
  Zn  Zn133  1  0.31387886  0.56958707  0.06016363  1
  Zn  Zn134  1  0.31223838  0.56174009  0.56267435  1
  Zn  Zn135  1  0.80253849  0.05979401  0.05991026  1
  Zn  Zn136  1  0.81352360  0.06533358  0.56324981  1
  Zn  Zn137  1  0.81018395  0.55805693  0.06303675  1
  Zn  Zn138  1  0.80975603  0.56435958  0.56202733  1
  Zn  Zn139  1  0.44047764  0.42854089  0.18710947  1
  Zn  Zn140  1  0.43706085  0.43930820  0.68820028  1
  Zn  Zn141  1  0.43403656  0.92987232  0.18372767  1
  Zn  Zn142  1  0.44098565  0.93560332  0.68133854  1
  Zn  Zn143  1  0.94180530  0.43643259  0.18991675  1
  Zn  Zn144  1  0.93632559  0.43664836  0.68917996  1
  Zn  Zn145  1  0.94355472  0.93395609  0.18628339  1
  Zn  Zn146  1  0.93440088  0.93765319  0.68536678  1
  Zn  Zn147  1  0.05836297  0.06379343  0.31386274  1
  Zn  Zn148  1  0.05899478  0.05966297  0.81546004  1
  Zn  Zn149  1  0.06775097  0.56335738  0.31033988  1
  Zn  Zn150  1  0.06209689  0.56570534  0.81267332  1
  Zn  Zn151  1  0.56491163  0.06166136  0.31381537  1
  Zn  Zn152  1  0.58659419  0.06020335  0.81600082  1
  Zn  Zn153  1  0.56373916  0.55353646  0.30954393  1
  Zn  Zn154  1  0.55942756  0.56539630  0.81299979  1
  Zn  Zn155  1  0.43641460  0.19009431  0.43589057  1
  Zn  Zn156  1  0.41290314  0.13227604  0.98663660  1
  Zn  Zn157  1  0.43714851  0.68803147  0.43833412  1
  Zn  Zn158  1  0.44470284  0.78565216  0.93504973  1
  Zn  Zn159  1  0.93283043  0.18654591  0.43376234  1
  Zn  Zn160  1  0.93624027  0.18875171  0.93297302  1
  Zn  Zn161  1  0.93850716  0.68843657  0.43648545  1
  Zn  Zn162  1  0.93539412  0.68614432  0.93815444  1
  Zn  Zn163  1  0.06542015  0.31978790  0.05786556  1
  Zn  Zn164  1  0.06329779  0.31059064  0.55958992  1
  Zn  Zn165  1  0.05919709  0.81472693  0.06520836  1
  Zn  Zn166  1  0.06116015  0.82069670  0.56250798  1
  Zn  Zn167  1  0.57062135  0.30676752  0.06866231  1
  Zn  Zn168  1  0.56148757  0.31083739  0.56504398  1
  Zn  Zn169  1  0.55853671  0.80818144  0.07126819  1
  Zn  Zn170  1  0.56015914  0.80853028  0.56028455  1
  O  O171  1  0.12733082  0.11955966  0.11740808  1
  O  O172  1  0.11981577  0.12075254  0.62369546  1
  O  O173  1  0.13210057  0.61325311  0.11604404  1
  O  O174  1  0.11896212  0.62101882  0.61943525  1
  O  O175  1  0.63521854  0.11797025  0.11623285  1
  O  O176  1  0.62475185  0.11843989  0.61205106  1
  O  O177  1  0.63376694  0.61914023  0.11180049  1
  O  O178  1  0.61841629  0.61730113  0.61636453  1
  O  O179  1  0.38183674  0.37559897  0.38411403  1
  O  O180  1  0.37136435  0.37790368  0.87877297  1
  O  O181  1  0.38162995  0.88107659  0.38052051  1
  O  O182  1  0.38249197  0.86782148  0.88803251  1
  O  O183  1  0.88113543  0.38239364  0.37910204  1
  O  O184  1  0.88301705  0.38713270  0.86858577  1
  O  O185  1  0.87537297  0.88303171  0.37943055  1
  O  O186  1  0.87135886  0.87446854  0.88654836  1
  O  O187  1  0.25863212  0.01045487  0.38101930  1
  O  O188  1  0.24570807  0.01310380  0.87048423  1
  O  O189  1  0.24954551  0.50638731  0.36551972  1
  O  O190  1  0.25923791  0.50836671  0.87628526  1
  O  O191  1  0.76195692  0.01022229  0.37771406  1
  O  O192  1  0.75241799  0.01309610  0.85414809  1
  O  O193  1  0.76040737  0.50591676  0.37455797  1
  O  O194  1  0.75592401  0.50095152  0.87169901  1
  O  O195  1  0.24755851  0.49508483  0.12793616  1
  O  O196  1  0.24143619  0.49293063  0.62601293  1
  O  O197  1  0.22760923  0.99389181  0.13369042  1
  O  O198  1  0.25145248  1.00221439  0.63311713  1
  O  O199  1  0.74871252  0.48419280  0.12446291  1
  O  O200  1  0.73974858  0.50188393  0.63329842  1
  O  O201  1  0.74089477  0.98564471  0.12547681  1
  O  O202  1  0.74462395  1.00570619  0.63521894  1
  O  O203  1  0.00227463  0.36274613  0.25683415  1
  O  O204  1  0.01155478  0.38182952  0.76031512  1
  O  O205  1  0.00758844  0.86020263  0.25474142  1
  O  O206  1  -0.00285225  0.86370674  0.75192975  1
  O  O207  1  0.51054860  0.36603161  0.25678573  1
  O  O208  1  0.51260585  0.37546881  0.74833036  1
  O  O209  1  0.50623116  0.87215886  0.26222027  1
  O  O210  1  0.49618957  0.85757299  0.74194168  1
  O  O211  1  0.49981159  0.13762981  0.25679795  1
  O  O212  1  0.49636209  0.12666286  0.75599577  1
  O  O213  1  0.51246329  0.62630668  0.24532203  1
  O  O214  1  0.49175006  0.62930029  0.74109350  1
  O  O215  1  0.99425589  0.13784352  0.25008741  1
  O  O216  1  0.98467932  0.12243357  0.74995496  1
  O  O217  1  1.00191772  0.63920697  0.25531307  1
  O  O218  1  0.99740464  0.63643890  0.74454173  1
  O  O219  1  0.37305304  0.24998570  0.00149100  1
  O  O220  1  0.36904065  0.25885739  0.50908563  1
  O  O221  1  0.36038847  0.74613567  0.00657990  1
  O  O222  1  0.36351139  0.75949621  0.49166015  1
  O  O223  1  0.86580552  0.24986033  0.00101937  1
  O  O224  1  0.86894550  0.25719559  0.50350176  1
  O  O225  1  0.86728502  0.75195173  0.00747404  1
  O  O226  1  0.87098037  0.75637188  0.50495705  1
  O  O227  1  0.13584405  0.25431490  0.49073963  1
  O  O228  1  0.13114928  0.24760019  0.99079272  1
  O  O229  1  0.12966025  0.74773143  0.49140735  1
  O  O230  1  0.13015255  0.74505815  0.99709568  1
  O  O231  1  0.63518674  0.24198521  0.50553486  1
  O  O232  1  0.64257239  0.23916759  1.00854330  1
  O  O233  1  0.62990189  0.73931594  0.49384455  1
  O  O234  1  0.62928659  0.73897543  0.99269788  1
  O  O235  1  0.49060786  0.25829755  0.13694782  1
  O  O236  1  0.48863081  0.24551338  0.62900034  1
  O  O237  1  0.48606878  0.74422615  0.12946104  1
  O  O238  1  0.50576858  0.73537388  0.63150629  1
  O  O239  1  1.00684040  0.25749549  0.13538144  1
  O  O240  1  0.98520865  0.25195512  0.61783727  1
  O  O241  1  0.98874897  0.75102535  0.13226722  1
  O  O242  1  0.99364971  0.74679329  0.63079362  1
  O  O243  1  0.00757083  0.25356094  0.37474006  1
  O  O244  1  0.00839425  0.26195284  0.87816088  1
  O  O245  1  0.01346746  0.74920658  0.37124490  1
  O  O246  1  0.00543587  0.74895622  0.86733411  1
  O  O247  1  0.49445580  0.26167984  0.36506428  1
  O  O248  1  0.48454064  0.26119796  0.87835500  1
  O  O249  1  0.50673991  0.75800133  0.37571479  1
  O  O250  1  0.51604710  0.73703945  0.86170136  1
  O  O251  1  0.25707292  0.13855947  0.48795156  1
  O  O252  1  0.23951214  0.13757961  0.99324954  1
  O  O253  1  0.24478753  0.63111157  0.49481000  1
  O  O254  1  0.23854289  0.63016573  0.98959968  1
  O  O255  1  0.74609746  0.13228285  0.49154308  1
  O  O256  1  0.75011264  0.13721203  0.99198353  1
  O  O257  1  0.74336908  0.62950786  0.48931951  1
  O  O258  1  0.74418317  0.62636734  0.99284121  1
  O  O259  1  0.24605257  0.36290332  0.00431328  1
  O  O260  1  0.25658262  0.36436045  0.50478747  1
  O  O261  1  0.24477519  0.86330218  -0.00167514  1
  O  O262  1  0.25698712  0.86675859  0.49656906  1
  O  O263  1  0.74922255  0.36370019  0.00902816  1
  O  O264  1  0.75542350  0.36833882  0.49956167  1
  O  O265  1  0.75513540  0.86531709  0.01102723  1
  O  O266  1  0.76232172  0.86787933  0.49383070  1
  O  O267  1  0.13283490  0.49679510  0.24034093  1
  O  O268  1  0.12616485  0.49449708  0.74460742  1
  O  O269  1  0.11462155  0.98620705  0.24857513  1
  O  O270  1  0.13295634  0.99840294  0.75062691  1
  O  O271  1  0.63335937  0.48209477  0.24880848  1
  O  O272  1  0.62869173  0.49429253  0.74374648  1
  O  O273  1  0.62359779  0.98866759  0.24591583  1
  O  O274  1  0.64094555  1.00140554  0.73811150  1
  O  O275  1  0.38136383  -0.00108862  0.26167418  1
  O  O276  1  0.37288305  0.00668035  0.74725754  1
  O  O277  1  0.36420967  0.49297966  0.25082798  1
  O  O278  1  0.37265564  0.50796674  0.75789368  1
  O  O279  1  0.88522998  0.00686379  0.25860252  1
  O  O280  1  0.86456774  0.01037797  0.74497967  1
  O  O281  1  0.87578879  0.50240612  0.26119944  1
  O  O282  1  0.86527018  0.50208507  0.75649401  1
  O  O283  1  0.12042225  0.36391134  0.37280220  1
  O  O284  1  0.12042510  0.37070082  0.86785978  1
  O  O285  1  0.12268234  0.86628541  0.36584401  1
  O  O286  1  0.12107196  0.86325587  0.87537831  1
  O  O287  1  0.62009850  0.37254560  0.36722755  1
  O  O288  1  0.62646635  0.37778174  0.85904119  1
  O  O289  1  0.61916266  0.87290762  0.37117321  1
  O  O290  1  0.64220810  0.85744515  0.86803768  1
  O  O291  1  0.36512947  0.14242149  0.12380602  1
  O  O292  1  0.37778049  0.13945459  0.61753898  1
  O  O293  1  0.36935441  0.64360513  0.12340683  1
  O  O294  1  0.38278549  0.61903317  0.63333938  1
  O  O295  1  0.86557965  0.11628728  0.13813074  1
  O  O296  1  0.87726253  0.13574087  0.63120193  1
  O  O297  1  0.86650123  0.63671519  0.12742024  1
  O  O298  1  0.88160926  0.63462364  0.62336102  1
  O  O299  1  0.25262314  0.25858947  0.11710974  1
  O  O300  1  0.25867266  0.25344394  0.61875379  1
  O  O301  1  0.25522794  0.74975754  0.11254963  1
  O  O302  1  0.24484089  0.75064844  0.61203168  1
  O  O303  1  0.75543494  0.26169938  0.11510278  1
  O  O304  1  0.76050414  0.25195049  0.61150767  1
  O  O305  1  0.75476484  0.75697302  0.12295920  1
  O  O306  1  0.75936255  0.74096966  0.61642575  1
  O  O307  1  0.24359237  0.24623524  0.38044969  1
  O  O308  1  0.24258311  0.24248545  0.87989926  1
  O  O309  1  0.24046529  0.74177552  0.38068730  1
  O  O310  1  0.24290714  0.74521261  0.88484254  1
  O  O311  1  0.75780990  0.24210295  0.38665540  1
  O  O312  1  0.75471793  0.24843644  0.88810290  1
  O  O313  1  0.74528968  0.74180932  0.38078480  1
  O  O314  1  0.74599604  0.73601451  0.87936592  1
  O  O315  1  0.01149069  0.12938459  -0.00329707  1
  O  O316  1  -0.00996042  0.11061385  0.49990944  1
  O  O317  1  0.01300276  0.61849796  -0.00583778  1
  O  O318  1  0.00672054  0.61947306  0.50341575  1
  O  O319  1  0.52424534  0.14274471  -0.00139192  1
  O  O320  1  0.50931230  0.12110831  0.49673320  1
  O  O321  1  0.50916739  0.61203538  0.00903971  1
  O  O322  1  0.50836808  0.62767350  0.50668105  1
  O  O323  1  0.49247059  0.36719402  0.49208423  1
  O  O324  1  0.49883968  0.37386684  0.99667906  1
  O  O325  1  0.49377798  0.87773339  0.48957510  1
  O  O326  1  0.51967909  0.87217074  0.98642908  1
  O  O327  1  0.99479853  0.38229184  0.49323429  1
  O  O328  1  1.00680862  0.38813184  0.98546477  1
  O  O329  1  0.98606230  0.88187740  0.49445698  1
  O  O330  1  0.98150100  0.86937824  0.99962045  1
  O  O331  1  0.49964985  0.48148801  0.37298720  1
  O  O332  1  0.48641397  0.50447309  0.88090160  1
  O  O333  1  0.49486754  0.99237304  0.38024675  1
  O  O334  1  0.48863402  1.01565955  0.86598254  1
  O  O335  1  0.99566149  0.49512568  0.37799243  1
  O  O336  1  0.99268035  0.49779582  0.87999466  1
  O  O337  1  0.98796531  1.00049446  0.38460257  1
  O  O338  1  0.99272393  0.99666443  0.88370415  1
  O  O339  1  0.01501726  -0.00870674  0.11860067  1
  O  O340  1  -0.00511692  0.00018423  0.60848443  1
  O  O341  1  0.01006445  0.49412184  0.11589908  1
  O  O342  1  0.00398568  0.50598845  0.61984939  1
  O  O343  1  0.51251667  -0.00335201  0.12973046  1
  O  O344  1  0.50929866  0.00466756  0.61778847  1
  O  O345  1  0.50105407  0.49556120  0.11626629  1
  O  O346  1  0.51054429  0.51014839  0.62851869  1
  O  O347  1  0.24766944  0.38107415  0.24033196  1
  O  O348  1  0.23704584  0.37872876  0.74305407  1
  O  O349  1  0.23409217  0.87263552  0.25641898  1
  O  O350  1  0.25037587  0.89025196  0.74899819  1
  O  O351  1  0.74859377  0.36914003  0.23985126  1
  O  O352  1  0.74006104  0.38498942  0.74728785  1
  O  O353  1  0.74138399  0.87009938  0.24298803  1
  O  O354  1  0.75936663  0.88879283  0.74736812  1
  O  O355  1  0.25559714  0.13268906  0.26238368  1
  O  O356  1  0.25019075  0.11597492  0.75984914  1
  O  O357  1  0.24426201  0.61533096  0.25982499  1
  O  O358  1  0.25454292  0.62703198  0.76005917  1
  O  O359  1  0.75852061  0.13541048  0.26163303  1
  O  O360  1  0.75691889  0.12955698  0.75537954  1
  O  O361  1  0.74994448  0.62318862  0.26323758  1
  O  O362  1  0.74785281  0.61182684  0.75825509  1
  O  O363  1  0.36849064  0.11678533  0.37248046  1
  O  O364  1  0.36703151  0.13214952  0.87121130  1
  O  O365  1  0.36237514  0.62062763  0.38130781  1
  O  O366  1  0.36462467  0.61705681  0.86649113  1
  O  O367  1  0.86764091  0.11761366  0.36618074  1
  O  O368  1  0.86580272  0.12637252  0.86627130  1
  O  O369  1  0.86828346  0.61748173  0.37536365  1
  O  O370  1  0.86371434  0.61466197  0.87403724  1
  O  O371  1  0.13751976  0.38703952  0.12266782  1
  O  O372  1  0.12702125  0.37784006  0.63210103  1
  O  O373  1  0.12258946  0.87667332  0.13937242  1
  O  O374  1  0.12947861  0.88413379  0.62644431  1
  O  O375  1  0.63713362  0.37419287  0.13407791  1
  O  O376  1  0.62571624  0.38442093  0.62981717  1
  O  O377  1  0.63034459  0.87978314  0.13338890  1
  O  O378  1  0.62442335  0.88780755  0.61244834  1
  O  O379  1  0.11352709  0.25071058  0.25675202  1
  O  O380  1  0.13030934  0.25846326  0.76119533  1
  O  O381  1  0.12228229  0.75599907  0.25422992  1
  O  O382  1  0.11631654  0.75283957  0.75901891  1
  O  O383  1  0.61892502  0.25758346  0.24581585  1
  O  O384  1  0.62176507  0.26437590  0.74318088  1
  O  O385  1  0.62396063  0.76245190  0.25821043  1
  O  O386  1  0.61810107  0.74098542  0.75696831  1
  O  O387  1  0.38415652  0.24966445  0.24299292  1
  O  O388  1  0.37532827  0.25669177  0.73332540  1
  O  O389  1  0.37362975  0.75588894  0.24000842  1
  O  O390  1  0.38051989  0.73852354  0.75561574  1
  O  O391  1  0.89186941  0.24123878  0.25244902  1
  O  O392  1  0.86931568  0.24537414  0.73913606  1
  O  O393  1  0.88374971  0.74739265  0.24355618  1
  O  O394  1  0.87875796  0.74684839  0.74217559  1
  O  O395  1  0.36892764  0.48437269  0.49869661  1
  O  O396  1  0.38526613  0.50351738  0.99287184  1
  O  O397  1  0.38156781  0.99361881  0.48932025  1
  O  O398  1  0.37921894  1.02738568  1.00669762  1
  O  O399  1  0.87933110  0.49672890  0.49110008  1
  O  O400  1  0.88796395  0.50650987  0.99280777  1
  O  O401  1  0.87782114  0.99347241  0.49319217  1
  O  O402  1  0.87089659  0.98943049  0.99979495  1
  O  O403  1  0.12411219  0.01156411  0.00780885  1
  O  O404  1  0.10548426  -0.00549636  0.49311980  1
  O  O405  1  0.11835751  0.50823609  0.00440299  1
  O  O406  1  0.12121550  0.50360991  0.50499315  1
  O  O407  1  0.63197426  0.01725399  0.01151508  1
  O  O408  1  0.62171540  0.00742209  0.50441779  1
  O  O409  1  0.61255461  0.50260049  -0.00184408  1
  O  O410  1  0.63116751  0.51030952  0.50788050  1
  O  O411  1  0.36286375  0.36497400  0.12492096  1
  O  O412  1  0.37121977  0.36882446  0.61859714  1
  O  O413  1  0.37779256  0.85770291  0.11718510  1
  O  O414  1  0.37232950  0.87843130  0.60803422  1
  O  O415  1  0.86460788  0.37760534  0.12828180  1
  O  O416  1  0.87105755  0.37167471  0.61896778  1
  O  O417  1  0.86689929  0.86585131  0.12229237  1
  O  O418  1  0.87713933  0.86214297  0.61590833  1
  O  O419  1  0.13161010  0.13532858  0.37131260  1
  O  O420  1  0.12952781  0.13361180  0.87958408  1
  O  O421  1  0.13440173  0.63071358  0.38149532  1
  O  O422  1  0.13136778  0.63565278  0.87978336  1
  O  O423  1  0.63633397  0.11822151  0.38656027  1
  O  O424  1  0.64055628  0.12739311  0.88831594  1
  O  O425  1  0.63195338  0.62472708  0.38210654  1
  O  O426  1  0.63526259  0.62308000  0.88389024  1
