# generated using pymatgen
data_V85Zn86O256
_symmetry_space_group_name_H-M   'P 1'
_cell_length_a   16.93139190
_cell_length_b   16.94881707
_cell_length_c   16.93200334
_cell_angle_alpha   90.07653062
_cell_angle_beta   89.94901521
_cell_angle_gamma   89.96607171
_symmetry_Int_Tables_number   1
_chemical_formula_structural   V85Zn86O256
_chemical_formula_sum   'V85 Zn86 O256'
_cell_volume   4858.92017326
_cell_formula_units_Z   1
loop_
 _symmetry_equiv_pos_site_id
 _symmetry_equiv_pos_as_xyz
  1  'x, y, z'
loop_
 _atom_site_type_symbol
 _atom_site_label
 _atom_site_symmetry_multiplicity
 _atom_site_fract_x
 _atom_site_fract_y
 _atom_site_fract_z
 _atom_site_occupancy
  V  V0  1  0.88640406  0.37682698  -0.00624419  1
  V  V1  1  0.87492969  0.37924361  0.49978537  1
  V  V2  1  0.05734495  0.56130626  0.43816986  1
  V  V3  1  0.50212464  0.74870960  0.75993459  1
  V  V4  1  0.87467611  0.87035337  0.49495959  1
  V  V5  1  0.61951417  -0.00136125  0.62655465  1
  V  V6  1  0.75071294  0.25031976  0.00107727  1
  V  V7  1  0.37687313  -0.00174081  0.87371750  1
  V  V8  1  0.62041132  0.12405285  0.50039560  1
  V  V9  1  0.37145503  0.50855497  0.37579532  1
  V  V10  1  0.87836294  0.62598844  0.24486914  1
  V  V11  1  0.50052163  0.75250424  0.25134221  1
  V  V12  1  0.37811684  0.49168558  0.88850836  1
  V  V13  1  0.49474980  0.24835074  0.24530727  1
  V  V14  1  0.24288203  0.25001473  0.49963989  1
  V  V15  1  0.12616621  0.38117225  0.24612741  1
  V  V16  1  0.00059616  0.87377477  0.87345466  1
  V  V17  1  0.87731408  0.12433231  0.24983310  1
  V  V18  1  0.87497813  0.50168031  0.37559307  1
  V  V19  1  0.61510585  0.00231731  0.12666537  1
  V  V20  1  0.25088988  0.62676834  0.88302131  1
  V  V21  1  0.74715707  0.87477103  0.12521717  1
  V  V22  1  0.62412568  0.74708080  0.39102819  1
  V  V23  1  0.37227875  0.37634738  0.50720901  1
  V  V24  1  0.25233255  0.12646399  0.87251173  1
  V  V25  1  0.73509173  0.74969420  -0.00402811  1
  V  V26  1  -0.00066080  0.74863874  0.74821097  1
  V  V27  1  0.36878393  0.24999840  0.62536973  1
  V  V28  1  0.87596045  0.12190968  0.74745343  1
  V  V29  1  0.00766972  0.51461139  0.00142901  1
  V  V30  1  0.00548550  0.12350738  0.61580225  1
  V  V31  1  0.36849154  0.87247597  0.00096040  1
  V  V32  1  0.74782180  0.38064664  0.12394301  1
  V  V33  1  0.87257490  0.87291269  -0.00088685  1
  V  V34  1  0.00262208  0.75286220  0.26035544  1
  V  V35  1  0.86636905  0.74973668  0.62352353  1
  V  V36  1  0.87947053  0.74757737  0.12210689  1
  V  V37  1  0.13413897  -0.00332987  0.12655026  1
  V  V38  1  0.87638807  0.24911015  0.12519889  1
  V  V39  1  0.50489179  0.61347813  0.12467088  1
  V  V40  1  0.37493395  0.62480340  0.75138713  1
  V  V41  1  0.75103977  0.12608481  0.37492190  1
  V  V42  1  0.00347261  0.12276359  0.12572657  1
  V  V43  1  0.25043530  0.38115635  0.11641783  1
  V  V44  1  0.74284000  0.50578094  0.24788454  1
  V  V45  1  0.49833927  0.25160466  0.74866229  1
  V  V46  1  0.75265436  -0.00045874  0.24828283  1
  V  V47  1  0.50516904  0.62676119  0.62402885  1
  V  V48  1  0.87392499  0.24841975  0.62260123  1
  V  V49  1  0.00063627  -0.00130575  -0.00092286  1
  V  V50  1  0.63151238  0.50141072  0.62725749  1
  V  V51  1  0.50598373  0.50550369  0.50051526  1
  V  V52  1  0.00107372  0.25431896  0.75826830  1
  V  V53  1  0.24939766  0.86709437  0.12583835  1
  V  V54  1  0.74891577  0.12424193  0.87579834  1
  V  V55  1  0.24716163  0.50687670  0.25222771  1
  V  V56  1  0.24995497  0.11301908  0.37778190  1
  V  V57  1  0.88416507  -0.00252085  0.37571576  1
  V  V58  1  0.63066644  0.37908133  0.75149083  1
  V  V59  1  0.37395568  0.74675575  0.12090337  1
  V  V60  1  0.74728797  0.61993723  0.87051494  1
  V  V61  1  0.24832582  0.49502750  0.74244900  1
  V  V62  1  0.62283261  0.25173446  0.87581809  1
  V  V63  1  0.62437671  0.37812087  0.24887221  1
  V  V64  1  0.62215361  0.60556674  0.00108220  1
  V  V65  1  0.74923594  -0.00281963  0.74906176  1
  V  V66  1  0.49863654  0.37684367  0.37526201  1
  V  V67  1  0.24040570  0.73303982  0.47942051  1
  V  V68  1  0.00331641  0.25139495  0.25032759  1
  V  V69  1  0.87367141  0.61098147  0.74747754  1
  V  V70  1  0.37141322  0.11299148  0.24981973  1
  V  V71  1  0.00842747  0.62296957  0.62010493  1
  V  V72  1  0.00307237  0.37499824  0.38023106  1
  V  V73  1  0.62525774  0.86980709  0.75863207  1
  V  V74  1  0.12822190  0.74913558  0.88153664  1
  V  V75  1  0.12893465  0.12624293  -0.00145474  1
  V  V76  1  0.87578277  -0.00226995  0.87325132  1
  V  V77  1  0.37462616  0.25085489  0.12068208  1
  V  V78  1  0.61638511  0.12578343  0.00527963  1
  V  V79  1  0.74769090  0.62841021  0.38736469  1
  V  V80  1  0.25209020  0.86543813  0.62457087  1
  V  V81  1  0.62064729  0.87624172  0.26179407  1
  V  V82  1  0.12380594  0.87666228  0.26610825  1
  V  V83  1  0.13025443  0.00112596  0.61953733  1
  V  V84  1  0.62384151  0.25156427  0.37519592  1
  Zn  Zn85  1  0.25117134  -0.00163288  0.74739518  1
  Zn  Zn86  1  0.12726952  0.24619706  0.37659310  1
  Zn  Zn87  1  0.74663324  0.87031580  0.62105049  1
  Zn  Zn88  1  0.12486381  0.25766855  0.87855597  1
  Zn  Zn89  1  0.50167704  0.87093107  0.88234014  1
  Zn  Zn90  1  0.87792150  0.49428823  0.86910854  1
  Zn  Zn91  1  0.00611515  -0.00419184  0.49538393  1
  Zn  Zn92  1  0.37540732  0.62591168  0.25228444  1
  Zn  Zn93  1  0.12197656  0.38023717  0.75254798  1
  Zn  Zn94  1  0.37626095  0.12325807  0.74812091  1
  Zn  Zn95  1  0.13048896  0.49860922  0.61141984  1
  Zn  Zn96  1  0.49948358  -0.01782362  0.47677688  1
  Zn  Zn97  1  0.49409857  0.00134728  0.00605127  1
  Zn  Zn98  1  0.74720040  0.25227906  0.50146426  1
  Zn  Zn99  1  0.12560004  0.87702091  0.74990709  1
  Zn  Zn100  1  0.49791072  0.37838619  0.89135119  1
  Zn  Zn101  1  0.25456289  0.25611755  -0.00364381  1
  Zn  Zn102  1  0.13209185  0.63090229  0.01553779  1
  Zn  Zn103  1  0.37644431  0.74944697  0.61782843  1
  Zn  Zn104  1  0.75480321  0.38080622  0.62915020  1
  Zn  Zn105  1  0.37530640  0.87686864  0.48541973  1
  Zn  Zn106  1  0.49504388  0.12361558  0.61997576  1
  Zn  Zn107  1  0.19280941  0.19010440  0.19017675  1
  Zn  Zn108  1  0.18705265  0.18636632  0.68635675  1
  Zn  Zn109  1  0.18887311  0.69222893  0.19765013  1
  Zn  Zn110  1  0.18596988  0.68510394  0.69245228  1
  Zn  Zn111  1  0.68692058  0.19002022  0.18770211  1
  Zn  Zn112  1  0.68695497  0.18748316  0.68731544  1
  Zn  Zn113  1  0.68666343  0.68931255  0.18638819  1
  Zn  Zn114  1  0.68613152  0.68558225  0.69050495  1
  Zn  Zn115  1  0.31209037  0.31499746  0.31442057  1
  Zn  Zn116  1  0.30820734  0.31521945  0.81146943  1
  Zn  Zn117  1  0.30411316  0.80402762  0.30988199  1
  Zn  Zn118  1  0.31168348  0.81169563  0.80978663  1
  Zn  Zn119  1  0.81258779  0.31334793  0.31230704  1
  Zn  Zn120  1  0.81267304  0.31115688  0.81101990  1
  Zn  Zn121  1  0.80889815  0.81101746  0.31453657  1
  Zn  Zn122  1  0.81087198  0.80616458  0.81216661  1
  Zn  Zn123  1  0.19344100  0.43128803  0.43378308  1
  Zn  Zn124  1  0.18294508  0.44156603  0.93070065  1
  Zn  Zn125  1  0.19511392  0.93449471  0.44502467  1
  Zn  Zn126  1  0.19023811  0.93706926  0.93707441  1
  Zn  Zn127  1  0.68916532  0.43927719  0.43918582  1
  Zn  Zn128  1  0.69208593  0.43660427  0.93416505  1
  Zn  Zn129  1  0.69005920  0.93882333  0.43905716  1
  Zn  Zn130  1  0.68586158  0.93918206  0.93813624  1
  Zn  Zn131  1  0.31387300  0.06244413  0.06500677  1
  Zn  Zn132  1  0.31759623  0.05944311  0.55652760  1
  Zn  Zn133  1  0.31155448  0.56394912  0.06607065  1
  Zn  Zn134  1  0.31597518  0.56710441  0.56218373  1
  Zn  Zn135  1  0.81043237  0.06146112  0.06216330  1
  Zn  Zn136  1  0.80985786  0.05924061  0.56029832  1
  Zn  Zn137  1  0.81164719  0.56168503  0.06032995  1
  Zn  Zn138  1  0.81740536  0.56128256  0.56468130  1
  Zn  Zn139  1  0.43329239  0.43511903  0.18446071  1
  Zn  Zn140  1  0.44041358  0.43776264  0.69136657  1
  Zn  Zn141  1  0.43487164  0.93607621  0.31486397  1
  Zn  Zn142  1  0.43634367  0.93479913  0.68568321  1
  Zn  Zn143  1  0.93329241  0.43653333  0.18572172  1
  Zn  Zn144  1  0.95847481  0.43143279  0.67686018  1
  Zn  Zn145  1  0.94116286  0.93418925  0.18632558  1
  Zn  Zn146  1  0.93999787  0.93538173  0.68190419  1
  Zn  Zn147  1  0.06968719  0.06220964  0.31247334  1
  Zn  Zn148  1  0.06500364  0.06416168  0.80707232  1
  Zn  Zn149  1  0.06101239  0.56254634  0.18131731  1
  Zn  Zn150  1  0.06189989  0.56212630  0.81905923  1
  Zn  Zn151  1  0.56227522  0.07021328  0.30655462  1
  Zn  Zn152  1  0.55947836  0.06349607  0.81365473  1
  Zn  Zn153  1  0.56205095  0.56759054  0.31435441  1
  Zn  Zn154  1  0.56228513  0.56165968  0.81542231  1
  Zn  Zn155  1  0.43354158  0.18535971  0.43454373  1
  Zn  Zn156  1  0.43823235  0.19084885  0.93633329  1
  Zn  Zn157  1  0.43644678  0.69730921  0.44033521  1
  Zn  Zn158  1  0.43858809  0.68312359  0.94043685  1
  Zn  Zn159  1  0.93812401  0.18956678  0.43732116  1
  Zn  Zn160  1  0.93655759  0.18456116  0.93861423  1
  Zn  Zn161  1  0.92987717  0.69181183  0.43619515  1
  Zn  Zn162  1  0.93351892  0.68596118  0.93438744  1
  Zn  Zn163  1  0.06638571  0.31340368  0.06369075  1
  Zn  Zn164  1  0.06300748  0.31580802  0.56869458  1
  Zn  Zn165  1  0.06063622  0.80937809  0.06487055  1
  Zn  Zn166  1  0.06414491  0.81280635  0.55751525  1
  Zn  Zn167  1  0.56196221  0.31837279  0.06293943  1
  Zn  Zn168  1  0.56011939  0.31465899  0.56459037  1
  Zn  Zn169  1  0.55574599  0.81626272  0.06856657  1
  Zn  Zn170  1  0.55903285  0.81517183  0.56963982  1
  O  O171  1  0.12448457  0.11653942  0.12096136  1
  O  O172  1  0.11648285  0.11628210  0.62769216  1
  O  O173  1  0.12531524  0.63417351  0.12712466  1
  O  O174  1  0.11138014  0.62265857  0.62840347  1
  O  O175  1  0.63526814  0.11623557  0.11590236  1
  O  O176  1  0.62375355  0.11927417  0.61601101  1
  O  O177  1  0.62030570  0.62922586  0.11080878  1
  O  O178  1  0.61363872  0.61699745  0.63184163  1
  O  O179  1  0.38267722  0.38369789  0.38410479  1
  O  O180  1  0.37270038  0.38892998  0.87217979  1
  O  O181  1  0.36262882  0.87492509  0.36988601  1
  O  O182  1  0.37354760  0.88079164  0.88290043  1
  O  O183  1  0.88199303  0.38018784  0.37927562  1
  O  O184  1  0.86815181  0.37426955  0.89078057  1
  O  O185  1  0.87006891  0.88221770  0.38478308  1
  O  O186  1  0.87956804  0.87857081  0.87912931  1
  O  O187  1  0.24838628  0.01436254  0.38105454  1
  O  O188  1  0.26051767  0.00659200  0.87423456  1
  O  O189  1  0.26067657  0.49406239  0.36573981  1
  O  O190  1  0.26062571  0.50830324  0.86631927  1
  O  O191  1  0.75937236  0.00799338  0.36824537  1
  O  O192  1  0.75556002  0.00418929  0.86825424  1
  O  O193  1  0.75517393  0.50668254  0.36699513  1
  O  O194  1  0.75790298  0.51426657  0.88031240  1
  O  O195  1  0.25731309  0.48739509  0.13426730  1
  O  O196  1  0.24801835  0.50897686  0.63829119  1
  O  O197  1  0.23835439  0.99182452  0.12222421  1
  O  O198  1  0.24462150  0.99139089  0.62441936  1
  O  O199  1  0.75517743  0.49112579  0.13429635  1
  O  O200  1  0.73562922  0.50172849  0.62021579  1
  O  O201  1  0.74680992  0.99134996  0.12990555  1
  O  O202  1  0.73872663  1.00090191  0.63440612  1
  O  O203  1  0.00426396  0.37297388  0.25809978  1
  O  O204  1  -0.01447316  0.35489899  0.75902858  1
  O  O205  1  0.00937959  0.86336294  0.24670541  1
  O  O206  1  -0.00046361  0.86538525  0.75514425  1
  O  O207  1  0.50546954  0.37098782  0.25521287  1
  O  O208  1  0.50981376  0.36453376  0.75313574  1
  O  O209  1  0.50956618  0.86142497  0.24771813  1
  O  O210  1  0.50653383  0.86507726  0.75227165  1
  O  O211  1  0.48489129  0.13782839  0.25537411  1
  O  O212  1  0.49987307  0.14058694  0.74949726  1
  O  O213  1  0.50339310  0.63614935  0.24174959  1
  O  O214  1  0.49458176  0.62951355  0.74663729  1
  O  O215  1  0.99722272  0.12984114  0.24397731  1
  O  O216  1  0.99150160  0.13041896  0.74064452  1
  O  O217  1  0.98529607  0.63687977  0.24385978  1
  O  O218  1  0.99401933  0.63046182  0.74123244  1
  O  O219  1  0.37383200  0.24011349  0.01676753  1
  O  O220  1  0.37120815  0.25775570  0.50698977  1
  O  O221  1  0.38113742  0.75578408  0.01225376  1
  O  O222  1  0.35701905  0.75021439  0.50121053  1
  O  O223  1  0.87255030  0.25859474  0.00428642  1
  O  O224  1  0.87321883  0.25879059  0.50655188  1
  O  O225  1  0.86700711  0.75388613  0.00614322  1
  O  O226  1  0.87385764  0.76138640  0.50670530  1
  O  O227  1  0.13940253  0.25784027  0.50404253  1
  O  O228  1  0.12556281  0.23567800  1.00089825  1
  O  O229  1  0.14176329  0.75397546  0.50077698  1
  O  O230  1  0.11488938  0.74820541  0.98505321  1
  O  O231  1  0.62552317  0.24408063  0.49458236  1
  O  O232  1  0.63272824  0.24219817  0.99874732  1
  O  O233  1  0.62445491  0.75467155  0.48919191  1
  O  O234  1  0.63407068  0.75377931  1.00398588  1
  O  O235  1  0.49262102  0.25420666  0.13896415  1
  O  O236  1  0.48994279  0.24890116  0.63134278  1
  O  O237  1  0.49368769  0.74307412  0.13353226  1
  O  O238  1  0.49870126  0.74035277  0.63746044  1
  O  O239  1  0.99556432  0.24405305  0.13017618  1
  O  O240  1  0.98962653  0.24200931  0.63221192  1
  O  O241  1  0.98340371  0.75641580  0.13218969  1
  O  O242  1  0.99289436  0.74185043  0.62954405  1
  O  O243  1  0.00287520  0.25686746  0.36777817  1
  O  O244  1  0.00127988  0.23725998  0.86067516  1
  O  O245  1  -0.00973506  0.75119764  0.35831050  1
  O  O246  1  0.00188648  0.75357943  0.86620053  1
  O  O247  1  0.50276973  0.25800281  0.36682543  1
  O  O248  1  0.50648573  0.25316488  0.86724726  1
  O  O249  1  0.51586049  0.74199870  0.36722328  1
  O  O250  1  0.49622349  0.74943866  0.86415873  1
  O  O251  1  0.25927980  0.13567801  0.48589139  1
  O  O252  1  0.24316128  0.12465419  0.99085761  1
  O  O253  1  0.24758098  0.63471820  0.50383201  1
  O  O254  1  0.25024751  0.62212921  0.98729261  1
  O  O255  1  0.73873059  0.12593538  0.49267590  1
  O  O256  1  0.74582181  0.13105922  0.99391403  1
  O  O257  1  0.75788637  0.62057837  0.48616196  1
  O  O258  1  0.73836541  0.63087885  0.99692759  1
  O  O259  1  0.24313342  0.37792052  0.01362804  1
  O  O260  1  0.26258500  0.36627076  0.49839930  1
  O  O261  1  0.25983864  0.87538191  0.00673878  1
  O  O262  1  0.25294988  0.86478848  0.51386316  1
  O  O263  1  0.75755594  0.37049127  0.00790272  1
  O  O264  1  0.75982104  0.37188846  0.50278727  1
  O  O265  1  0.75339642  0.86835755  0.00324464  1
  O  O266  1  0.76741393  0.88379745  0.50561857  1
  O  O267  1  0.12980724  0.48886086  0.24690953  1
  O  O268  1  0.14237049  0.50751645  0.75412925  1
  O  O269  1  0.11450467  0.98401188  0.23892250  1
  O  O270  1  0.12722609  0.99741825  0.73722557  1
  O  O271  1  0.63650464  0.49671133  0.25550686  1
  O  O272  1  0.61803832  0.49016527  0.74165147  1
  O  O273  1  0.63457235  0.99487936  0.24308355  1
  O  O274  1  0.63113622  0.99565712  0.74704188  1
  O  O275  1  0.38071657  0.01544951  0.24321154  1
  O  O276  1  0.37379021  0.00220255  0.75916153  1
  O  O277  1  0.36724040  0.49888874  0.25995045  1
  O  O278  1  0.36627249  0.50918349  0.75181696  1
  O  O279  1  0.87257862  0.00245367  0.25526756  1
  O  O280  1  0.86943176  0.00260619  0.75240563  1
  O  O281  1  0.86778756  0.50864601  0.25452747  1
  O  O282  1  0.88405843  0.50890139  0.74533454  1
  O  O283  1  0.11671926  0.37214284  0.36649133  1
  O  O284  1  0.12987334  0.36959746  0.86554434  1
  O  O285  1  0.12622454  0.88512057  0.36400271  1
  O  O286  1  0.11878301  0.86884451  0.87352318  1
  O  O287  1  0.62067354  0.37040938  0.36920163  1
  O  O288  1  0.62478105  0.36953891  0.86885698  1
  O  O289  1  0.63812354  0.86222564  0.36624852  1
  O  O290  1  0.62109659  0.88146527  0.86332457  1
  O  O291  1  0.36375557  0.13539224  0.14086817  1
  O  O292  1  0.37695361  0.13528915  0.62774087  1
  O  O293  1  0.38461289  0.63149806  0.12553003  1
  O  O294  1  0.38785001  0.62474935  0.63466432  1
  O  O295  1  0.88173096  0.12831411  0.12987853  1
  O  O296  1  0.87906175  0.12989738  0.62800228  1
  O  O297  1  0.86300786  0.63605141  0.13277206  1
  O  O298  1  0.88181554  0.63265737  0.62912075  1
  O  O299  1  0.25634317  0.26180803  0.12284749  1
  O  O300  1  0.26100057  0.24637847  0.61890521  1
  O  O301  1  0.26047393  0.75557709  0.13026562  1
  O  O302  1  0.24938188  0.75954756  0.63180755  1
  O  O303  1  0.75872327  0.25578638  0.12078972  1
  O  O304  1  0.76427668  0.24991508  0.62532030  1
  O  O305  1  0.75637965  0.75835260  0.11827845  1
  O  O306  1  0.76282005  0.74820413  0.63011529  1
  O  O307  1  0.24935836  0.24751754  0.38498129  1
  O  O308  1  0.25020979  0.24148839  0.87863189  1
  O  O309  1  0.24421425  0.73553689  0.37865257  1
  O  O310  1  0.23966016  0.74067647  0.86791943  1
  O  O311  1  0.74465876  0.24240613  0.37440621  1
  O  O312  1  0.74366239  0.24446586  0.88102489  1
  O  O313  1  0.73672952  0.74009176  0.37043493  1
  O  O314  1  0.75549305  0.73593798  0.88629790  1
  O  O315  1  0.00691441  0.11844818  0.00599063  1
  O  O316  1  -0.00454031  0.12427075  0.51261333  1
  O  O317  1  -0.00363295  0.61631038  0.00318591  1
  O  O318  1  0.00143642  0.62822940  0.50273759  1
  O  O319  1  0.51347209  0.12458810  -0.00148392  1
  O  O320  1  0.51290403  0.12523693  0.49606156  1
  O  O321  1  0.51581699  0.62682721  0.00670462  1
  O  O322  1  0.49468709  0.61632008  0.51062020  1
  O  O323  1  0.49371526  0.38295242  0.49409257  1
  O  O324  1  0.49406217  0.37375723  1.00183629  1
  O  O325  1  0.49023928  0.86935981  0.50396622  1
  O  O326  1  0.48556767  0.87838232  1.00126602  1
  O  O327  1  0.99263051  0.36633624  0.48630162  1
  O  O328  1  0.98839731  0.37616956  1.00465044  1
  O  O329  1  0.98172897  0.87834754  0.50650465  1
  O  O330  1  0.99271083  0.87981680  0.99418176  1
  O  O331  1  0.49780724  0.49587165  0.38305545  1
  O  O332  1  0.48164585  0.49871544  0.86812318  1
  O  O333  1  0.52188545  0.98637195  0.36441910  1
  O  O334  1  0.48718303  0.99902790  0.87907229  1
  O  O335  1  0.99323712  0.49327010  0.38169152  1
  O  O336  1  0.99378287  0.50328178  0.89298305  1
  O  O337  1  0.98750702  1.00802693  0.37458320  1
  O  O338  1  0.99568875  0.99533511  0.87869813  1
  O  O339  1  0.00870381  0.00308948  0.11708809  1
  O  O340  1  0.00742382  0.00886608  0.62417543  1
  O  O341  1  -0.00503214  0.49700965  0.11070789  1
  O  O342  1  -0.00538543  0.52193062  0.61724446  1
  O  O343  1  0.51627295  0.00130874  0.12531705  1
  O  O344  1  0.51434993  0.00486926  0.63538744  1
  O  O345  1  0.49841616  0.51457153  0.13563652  1
  O  O346  1  0.50759611  0.50544035  0.61901180  1
  O  O347  1  0.24165083  0.38219577  0.24504484  1
  O  O348  1  0.25130767  0.39230792  0.74532325  1
  O  O349  1  0.22949740  0.86730725  0.24071649  1
  O  O350  1  0.24592856  0.87666343  0.73998895  1
  O  O351  1  0.74775473  0.38439405  0.24395644  1
  O  O352  1  0.73668729  0.37008908  0.74766141  1
  O  O353  1  0.74308091  0.87946118  0.24427392  1
  O  O354  1  0.74344670  0.87936663  0.75012743  1
  O  O355  1  0.26158183  0.12912593  0.26167735  1
  O  O356  1  0.25078939  0.12381573  0.76247300  1
  O  O357  1  0.25400538  0.61003336  0.24735217  1
  O  O358  1  0.25907561  0.61987517  0.75865559  1
  O  O359  1  0.75818991  0.12075767  0.25411370  1
  O  O360  1  0.75573332  0.11860284  0.75600364  1
  O  O361  1  0.75582895  0.61959684  0.25442730  1
  O  O362  1  0.75957423  0.62849990  0.75870525  1
  O  O363  1  0.36413726  0.12962980  0.36152548  1
  O  O364  1  0.36845650  0.11786085  0.87540228  1
  O  O365  1  0.38591307  0.61087262  0.37422734  1
  O  O366  1  0.36982236  0.61875917  0.86965271  1
  O  O367  1  0.87006992  0.11963610  0.36975474  1
  O  O368  1  0.86930784  0.11669171  0.86968758  1
  O  O369  1  0.86751449  0.62150224  0.36552990  1
  O  O370  1  0.86841276  0.62212347  0.86311765  1
  O  O371  1  0.13852282  0.37086891  0.13301824  1
  O  O372  1  0.08935435  0.39531055  0.64250265  1
  O  O373  1  0.13325849  0.87956922  0.12170213  1
  O  O374  1  0.13476437  0.88045427  0.62711578  1
  O  O375  1  0.64124640  0.36571374  0.13383353  1
  O  O376  1  0.62666104  0.38282739  0.63268657  1
  O  O377  1  0.63009190  0.88246299  0.13421538  1
  O  O378  1  0.62815599  0.88226254  0.63751571  1
  O  O379  1  0.11818232  0.26117323  0.24926201  1
  O  O380  1  0.10811713  0.24892336  0.74625326  1
  O  O381  1  0.11010747  0.76159420  0.25046511  1
  O  O382  1  0.11124830  0.74889072  0.75913039  1
  O  O383  1  0.61634553  0.25435338  0.25564091  1
  O  O384  1  0.61857515  0.25564363  0.75430909  1
  O  O385  1  0.61954448  0.75963308  0.25297263  1
  O  O386  1  0.61715760  0.75899832  0.74798165  1
  O  O387  1  0.38032626  0.24960958  0.24337362  1
  O  O388  1  0.38086812  0.25288841  0.74213522  1
  O  O389  1  0.38383081  0.74665511  0.24055163  1
  O  O390  1  0.38160158  0.73708999  0.74963043  1
  O  O391  1  0.88265255  0.24547129  0.24492884  1
  O  O392  1  0.88070666  0.24142683  0.74371836  1
  O  O393  1  0.87885910  0.74637964  0.24328545  1
  O  O394  1  0.88452437  0.74267199  0.74282873  1
  O  O395  1  0.38249797  0.49357327  0.49646117  1
  O  O396  1  0.37154840  0.50402800  0.98643404  1
  O  O397  1  0.38892719  0.99351583  0.50478216  1
  O  O398  1  0.37466183  0.99256522  0.99527335  1
  O  O399  1  0.87240301  0.48694286  0.49374509  1
  O  O400  1  0.88031518  0.48757469  1.00101153  1
  O  O401  1  0.87811043  0.99348747  0.49120165  1
  O  O402  1  0.87915074  0.99348669  0.99375104  1
  O  O403  1  0.12137712  0.00873976  0.00547101  1
  O  O404  1  0.12226698  -0.00541934  0.51327715  1
  O  O405  1  0.11127429  0.50660323  -0.00113080  1
  O  O406  1  0.12404086  0.50234354  0.49310217  1
  O  O407  1  0.62602269  0.00876053  0.00835294  1
  O  O408  1  0.62300225  0.00564400  0.50918182  1
  O  O409  1  0.63011199  0.50760864  0.00401652  1
  O  O410  1  0.61254319  0.49413363  0.50779932  1
  O  O411  1  0.35909230  0.36572153  0.13143581  1
  O  O412  1  0.38296435  0.36956005  0.61402522  1
  O  O413  1  0.35940214  0.86727508  0.11854770  1
  O  O414  1  0.35970792  0.87000018  0.63018126  1
  O  O415  1  0.86601070  0.36822620  0.11706554  1
  O  O416  1  0.87763095  0.36816535  0.61644047  1
  O  O417  1  0.86705647  0.87017540  0.11882826  1
  O  O418  1  0.87168202  0.86588573  0.61858918  1
  O  O419  1  0.14297324  0.12955160  0.36752121  1
  O  O420  1  0.13273529  0.12481388  0.88318301  1
  O  O421  1  0.10483405  0.61267158  0.37394188  1
  O  O422  1  0.13417245  0.63264607  0.87829452  1
  O  O423  1  0.63220569  0.13242237  0.37938977  1
  O  O424  1  0.63024324  0.13032154  0.88334900  1
  O  O425  1  0.63329357  0.63752168  0.37486543  1
  O  O426  1  0.63121687  0.61980715  0.88934580  1
