# generated using pymatgen
data_V85Zn86O256
_symmetry_space_group_name_H-M   'P 1'
_cell_length_a   16.94537169
_cell_length_b   16.94033052
_cell_length_c   16.94156625
_cell_angle_alpha   89.98278537
_cell_angle_beta   89.98808907
_cell_angle_gamma   90.00030155
_symmetry_Int_Tables_number   1
_chemical_formula_structural   V85Zn86O256
_chemical_formula_sum   'V85 Zn86 O256'
_cell_volume   4863.24902245
_cell_formula_units_Z   1
loop_
 _symmetry_equiv_pos_site_id
 _symmetry_equiv_pos_as_xyz
  1  'x, y, z'
loop_
 _atom_site_type_symbol
 _atom_site_label
 _atom_site_symmetry_multiplicity
 _atom_site_fract_x
 _atom_site_fract_y
 _atom_site_fract_z
 _atom_site_occupancy
  V  V0  1  0.49492111  0.11789953  0.61317081  1
  V  V1  1  0.23441091  0.87422172  0.12464407  1
  V  V2  1  0.88185108  0.74678328  0.12312484  1
  V  V3  1  0.25467646  0.12577111  0.86430948  1
  V  V4  1  0.74998014  0.62585964  0.37457110  1
  V  V5  1  0.87442179  0.37734422  0.50750964  1
  V  V6  1  0.50107254  0.49837817  0.49684802  1
  V  V7  1  0.24551301  0.87514038  0.62383610  1
  V  V8  1  0.62377308  0.25016766  0.87405401  1
  V  V9  1  0.01202388  0.00879195  0.00058992  1
  V  V10  1  0.62512446  0.62507040  0.49762300  1
  V  V11  1  0.23201859  0.25101875  0.49193249  1
  V  V12  1  0.49430154  0.23830533  0.75022633  1
  V  V13  1  0.62554086  0.87257488  0.74256978  1
  V  V14  1  0.61751945  0.50325915  0.12409217  1
  V  V15  1  0.62312273  0.74989097  0.87497610  1
  V  V16  1  0.87768185  0.50303567  0.88097435  1
  V  V17  1  0.75075422  0.24756400  -0.00289145  1
  V  V18  1  0.86809137  0.12613223  0.25105432  1
  V  V19  1  0.00082016  0.25213569  0.24985787  1
  V  V20  1  -0.01076143  0.23824554  0.75477470  1
  V  V21  1  0.00192233  0.74789373  0.75102708  1
  V  V22  1  0.12805189  0.87614570  0.75101214  1
  V  V23  1  0.50236794  0.23486023  0.24859881  1
  V  V24  1  0.50193711  0.37009756  0.37258528  1
  V  V25  1  0.12674284  0.37430256  0.25603948  1
  V  V26  1  0.62629677  0.86990488  0.25255089  1
  V  V27  1  0.25720756  0.62127087  0.88121109  1
  V  V28  1  -0.00100097  0.61869353  0.62207322  1
  V  V29  1  0.37666817  0.86992935  0.01206916  1
  V  V30  1  0.49477002  0.38441131  0.87334603  1
  V  V31  1  0.46587587  0.86546442  0.34547738  1
  V  V32  1  0.11659422  0.75852871  0.37109740  1
  V  V33  1  0.37412125  0.62376797  0.75073514  1
  V  V34  1  0.37723187  0.36930174  0.50019480  1
  V  V35  1  0.75027332  0.75727490  0.50154928  1
  V  V36  1  0.12988082  0.74773389  0.87866661  1
  V  V37  1  0.25206889  0.37486624  0.12677879  1
  V  V38  1  0.00076696  0.87608380  0.87532522  1
  V  V39  1  0.25510816  0.49889358  0.75497007  1
  V  V40  1  0.87540500  0.00379011  0.87208719  1
  V  V41  1  0.93283549  0.18939643  0.58109598  1
  V  V42  1  0.11909971  0.01567866  0.62095117  1
  V  V43  1  0.74825992  0.75101841  0.00078912  1
  V  V44  1  0.25270713  0.62477434  0.36533941  1
  V  V45  1  0.37400703  0.74811999  0.61322224  1
  V  V46  1  0.74789163  0.62503137  0.87591055  1
  V  V47  1  0.25166567  0.37542428  0.62517886  1
  V  V48  1  0.87270892  0.75690035  0.62540593  1
  V  V49  1  0.62691682  0.49739132  0.62295419  1
  V  V50  1  0.62339243  0.37190108  0.74955865  1
  V  V51  1  0.88128518  -0.00407844  0.37042829  1
  V  V52  1  0.12455876  0.62336588  0.49607294  1
  V  V53  1  0.75139971  0.87984747  0.12369123  1
  V  V54  1  0.75149993  0.12655769  0.85790402  1
  V  V55  1  0.75349493  0.36469376  0.62488197  1
  V  V56  1  0.49908023  0.62355951  0.62102207  1
  V  V57  1  0.38022916  0.23902359  0.12585279  1
  V  V58  1  0.89103212  0.87097249  0.49265660  1
  V  V59  1  0.62099062  -0.00403040  0.61709649  1
  V  V60  1  0.63576588  0.23735667  0.38174024  1
  V  V61  1  0.12463913  0.24669264  0.87659994  1
  V  V62  1  0.88444004  0.62317920  0.24558528  1
  V  V63  1  0.75009833  0.50005093  0.24949272  1
  V  V64  1  0.88417389  0.37654327  0.00098704  1
  V  V65  1  0.62614596  0.37122154  0.25001804  1
  V  V66  1  0.37953133  0.90264090  0.50545962  1
  V  V67  1  0.87885394  0.49982315  0.38089156  1
  V  V68  1  0.49457828  0.87559946  0.87550646  1
  V  V69  1  0.49815046  0.00992649  0.00188699  1
  V  V70  1  0.37480196  0.38017811  -0.00109034  1
  V  V71  1  0.87506940  0.62448731  0.75051438  1
  V  V72  1  0.62266898  0.00672089  0.12517382  1
  V  V73  1  0.00257265  0.38077770  0.87489234  1
  V  V74  1  0.49765574  0.74868305  0.74821486  1
  V  V75  1  0.11274148  0.49831881  0.12110412  1
  V  V76  1  0.11422294  0.62026295  0.00317938  1
  V  V77  1  0.48205652  0.64307472  0.13462275  1
  V  V78  1  0.74867013  0.37570437  0.12130437  1
  V  V79  1  0.24890524  0.23969869  0.00266420  1
  V  V80  1  0.75219793  -0.00757711  0.74348006  1
  V  V81  1  0.00407305  0.37766490  0.38171886  1
  V  V82  1  0.12627468  0.50193492  0.62270828  1
  V  V83  1  0.24455785  0.11837482  0.38052876  1
  V  V84  1  0.24727136  0.00485563  0.24319394  1
  Zn  Zn85  1  0.25463404  0.74243976  0.01129766  1
  Zn  Zn86  1  0.63393825  0.11538672  0.49296765  1
  Zn  Zn87  1  0.01157432  0.11323471  0.13125342  1
  Zn  Zn88  1  0.36930868  0.24340081  0.62835159  1
  Zn  Zn89  1  0.11003115  0.89484718  0.25330435  1
  Zn  Zn90  1  0.49627383  0.50464141  -0.00092202  1
  Zn  Zn91  1  0.24974548  0.75255076  0.49591943  1
  Zn  Zn92  1  0.00310232  0.01297506  0.50003966  1
  Zn  Zn93  1  -0.00148364  0.75643244  0.24916113  1
  Zn  Zn94  1  0.87686054  0.87740314  -0.00119568  1
  Zn  Zn95  1  0.25462771  0.00609208  0.74617866  1
  Zn  Zn96  1  0.25681006  0.50248164  0.24575907  1
  Zn  Zn97  1  0.12421120  0.37647321  0.75079988  1
  Zn  Zn98  1  0.38043965  0.50552628  0.36843726  1
  Zn  Zn99  1  0.37713444  0.11640596  0.25815252  1
  Zn  Zn100  1  0.61843032  0.62621220  0.00349875  1
  Zn  Zn101  1  0.62413797  0.12586024  0.00045485  1
  Zn  Zn102  1  0.74936228  0.50025317  0.75116484  1
  Zn  Zn103  1  0.37724823  0.00631448  0.87082623  1
  Zn  Zn104  1  0.62405357  0.75126735  0.37135175  1
  Zn  Zn105  1  0.74638422  0.00451647  0.26162215  1
  Zn  Zn106  1  0.87403178  0.24482033  0.12282173  1
  Zn  Zn107  1  0.18487514  0.18461482  0.19363640  1
  Zn  Zn108  1  0.18286434  0.19596570  0.68931447  1
  Zn  Zn109  1  0.18462771  0.68879896  0.18595828  1
  Zn  Zn110  1  0.18949212  0.68744366  0.68869438  1
  Zn  Zn111  1  0.68766947  0.18839033  0.18555639  1
  Zn  Zn112  1  0.71738107  0.15931117  0.64451957  1
  Zn  Zn113  1  0.68904751  0.68631689  0.18623262  1
  Zn  Zn114  1  0.68855002  0.68675952  0.68609808  1
  Zn  Zn115  1  0.31610817  0.31013932  0.31220417  1
  Zn  Zn116  1  0.31384637  0.31289382  0.81335034  1
  Zn  Zn117  1  0.29623552  0.82095557  0.31308311  1
  Zn  Zn118  1  0.31407733  0.81108477  0.81297995  1
  Zn  Zn119  1  0.81327455  0.31314461  0.31438831  1
  Zn  Zn120  1  0.81149813  0.31578596  0.81048763  1
  Zn  Zn121  1  0.81400833  0.81342005  0.31127079  1
  Zn  Zn122  1  0.81322917  0.81387753  0.81308931  1
  Zn  Zn123  1  0.18987012  0.44069835  0.43947029  1
  Zn  Zn124  1  0.18832295  0.43539313  0.94082004  1
  Zn  Zn125  1  0.18743917  0.94086679  0.44130363  1
  Zn  Zn126  1  0.19081704  0.93903044  0.93915985  1
  Zn  Zn127  1  0.69118272  0.43129479  0.43788453  1
  Zn  Zn128  1  0.68668855  0.43800564  0.93872145  1
  Zn  Zn129  1  0.69873926  0.93715073  0.43663865  1
  Zn  Zn130  1  0.68467551  0.93829014  0.93491109  1
  Zn  Zn131  1  0.31049996  0.05760031  0.06101956  1
  Zn  Zn132  1  0.30263946  0.07199813  0.56986719  1
  Zn  Zn133  1  0.31224413  0.56059203  0.06651251  1
  Zn  Zn134  1  0.31200754  0.56099074  0.55536440  1
  Zn  Zn135  1  0.81893453  0.06495406  0.06102980  1
  Zn  Zn136  1  0.81034183  0.04775185  0.55417915  1
  Zn  Zn137  1  0.81014050  0.56256560  0.06221277  1
  Zn  Zn138  1  0.81061265  0.56138798  0.56203153  1
  Zn  Zn139  1  0.43629052  0.43437675  0.19045104  1
  Zn  Zn140  1  0.43652906  0.43610885  0.68696209  1
  Zn  Zn141  1  0.43562161  0.94290371  0.18571016  1
  Zn  Zn142  1  0.43388458  0.93996927  0.68939681  1
  Zn  Zn143  1  0.93689119  0.43332405  0.18932233  1
  Zn  Zn144  1  0.93819885  0.43760361  0.69383422  1
  Zn  Zn145  1  0.93840949  0.93634262  0.18454148  1
  Zn  Zn146  1  0.93998674  0.93931534  0.68706531  1
  Zn  Zn147  1  0.06571558  0.07040997  0.31900041  1
  Zn  Zn148  1  0.06894435  0.06284904  0.81498543  1
  Zn  Zn149  1  0.06442840  0.55892347  0.31001960  1
  Zn  Zn150  1  0.06651505  0.56203058  0.81404621  1
  Zn  Zn151  1  0.55768793  0.04958394  0.31839485  1
  Zn  Zn152  1  0.56671540  0.05995128  0.81242062  1
  Zn  Zn153  1  0.56035712  0.56373007  0.30810024  1
  Zn  Zn154  1  0.56309571  0.56232397  0.81081099  1
  Zn  Zn155  1  0.43414673  0.18570149  0.43617899  1
  Zn  Zn156  1  0.43479584  0.19231651  0.93619889  1
  Zn  Zn157  1  0.42370080  0.71463144  0.39715562  1
  Zn  Zn158  1  0.43726718  0.68673935  0.94391482  1
  Zn  Zn159  1  0.93372924  0.19170325  0.42066797  1
  Zn  Zn160  1  0.93413630  0.18637971  0.93369918  1
  Zn  Zn161  1  0.93956141  0.68253761  0.43899346  1
  Zn  Zn162  1  0.93798787  0.68916364  0.93930824  1
  Zn  Zn163  1  0.07950529  0.27917613  0.08088861  1
  Zn  Zn164  1  0.06004537  0.32107634  0.56606094  1
  Zn  Zn165  1  0.06060123  0.81193617  0.05745133  1
  Zn  Zn166  1  0.06459208  0.80593341  0.56317853  1
  Zn  Zn167  1  0.56092581  0.31203982  0.06231975  1
  Zn  Zn168  1  0.56325142  0.30586500  0.56315948  1
  Zn  Zn169  1  0.56237397  0.81513025  0.06585162  1
  Zn  Zn170  1  0.55727866  0.81248496  0.55396744  1
  O  O171  1  0.10754552  0.16982406  0.11601025  1
  O  O172  1  0.12866462  0.11370109  0.62981721  1
  O  O173  1  0.13117092  0.60797578  0.11902236  1
  O  O174  1  0.11998374  0.62181339  0.61899061  1
  O  O175  1  0.63168899  0.11097969  0.12080422  1
  O  O176  1  0.60901898  0.11047206  0.63002193  1
  O  O177  1  0.62188300  0.61579136  0.12458736  1
  O  O178  1  0.62054011  0.61545191  0.62064661  1
  O  O179  1  0.39072383  0.37033728  0.38156808  1
  O  O180  1  0.38393251  0.36916588  0.88471315  1
  O  O181  1  0.36766392  0.88218957  0.39975646  1
  O  O182  1  0.38598862  0.87247795  0.88276280  1
  O  O183  1  0.87891852  0.38173584  0.38400773  1
  O  O184  1  0.87924298  0.38489090  0.87996720  1
  O  O185  1  0.87701416  0.88017971  0.38136953  1
  O  O186  1  0.88446858  0.88038872  0.87521170  1
  O  O187  1  0.24649066  0.01340141  0.37248557  1
  O  O188  1  0.24700144  0.01766085  0.87565276  1
  O  O189  1  0.24885565  0.51577418  0.37512670  1
  O  O190  1  0.24535451  0.50702163  0.86593103  1
  O  O191  1  0.77074459  0.00111122  0.37637268  1
  O  O192  1  0.75392855  0.00620991  0.86602660  1
  O  O193  1  0.75851794  0.50356135  0.37041560  1
  O  O194  1  0.75596974  0.50930611  0.87547172  1
  O  O195  1  0.24474604  0.48454987  0.12452146  1
  O  O196  1  0.24483080  0.49591894  0.62997318  1
  O  O197  1  0.24877652  0.98885400  0.12920207  1
  O  O198  1  0.23690490  0.99280639  0.62708752  1
  O  O199  1  0.73890946  0.49504261  0.12817356  1
  O  O200  1  0.73744633  0.49491480  0.62671157  1
  O  O201  1  0.74563780  0.98901178  0.11732111  1
  O  O202  1  0.74131246  0.99218445  0.63864461  1
  O  O203  1  0.00676511  0.37650625  0.26243254  1
  O  O204  1  0.00096089  0.36764548  0.76212453  1
  O  O205  1  0.00189699  0.87008995  0.24574321  1
  O  O206  1  0.01193729  0.86923760  0.75406495  1
  O  O207  1  0.50835652  0.36446988  0.25811777  1
  O  O208  1  0.50445284  0.37037810  0.75536500  1
  O  O209  1  0.51649384  0.87405121  0.24407441  1
  O  O210  1  0.50404572  0.86749867  0.75778510  1
  O  O211  1  0.49795299  0.13135367  0.25741826  1
  O  O212  1  0.50315340  0.13645072  0.75114589  1
  O  O213  1  0.50098350  0.62367524  0.23354724  1
  O  O214  1  0.49356986  0.62831401  0.74261652  1
  O  O215  1  0.99412009  0.13757940  0.25034863  1
  O  O216  1  1.00237556  0.13931761  0.75895018  1
  O  O217  1  0.98669359  0.62592559  0.25268814  1
  O  O218  1  0.99537354  0.62993648  0.74595927  1
  O  O219  1  0.36904679  0.25724176  0.00751248  1
  O  O220  1  0.37329857  0.26139666  0.50483629  1
  O  O221  1  0.37145884  0.76642779  -0.00361338  1
  O  O222  1  0.37417322  0.74900917  0.50854844  1
  O  O223  1  0.86793779  0.25812594  -0.00084099  1
  O  O224  1  0.88343909  0.25362246  0.51429046  1
  O  O225  1  0.86572842  0.75120767  0.00518486  1
  O  O226  1  0.87196120  0.75147010  0.50608353  1
  O  O227  1  0.13415847  0.25944556  0.50201011  1
  O  O228  1  0.13743803  0.26357375  0.98335566  1
  O  O229  1  0.12695917  0.74178618  0.48898081  1
  O  O230  1  0.12948363  0.73963009  0.99585122  1
  O  O231  1  0.62231285  0.24839502  0.48344553  1
  O  O232  1  0.63227717  0.24940453  0.99270200  1
  O  O233  1  0.63561188  0.74470622  0.50306382  1
  O  O234  1  0.63151622  0.75093019  0.99388328  1
  O  O235  1  0.49341354  0.25233612  0.13523208  1
  O  O236  1  0.50193847  0.23633158  0.63529646  1
  O  O237  1  0.49830568  0.74162377  0.12387973  1
  O  O238  1  0.49222545  0.74337374  0.62779767  1
  O  O239  1  0.98500135  0.27564315  0.14592380  1
  O  O240  1  1.00057161  0.24947235  0.63905721  1
  O  O241  1  0.98476528  0.75035943  0.11990425  1
  O  O242  1  0.99455770  0.73706430  0.63099095  1
  O  O243  1  -0.00453044  0.26770087  0.36381402  1
  O  O244  1  0.00603111  0.25602540  0.87012585  1
  O  O245  1  0.01408054  0.74365395  0.37567089  1
  O  O246  1  0.00739346  0.75589984  0.87026566  1
  O  O247  1  0.50758081  0.25347248  0.36736811  1
  O  O248  1  0.50387438  0.25631718  0.86527079  1
  O  O249  1  0.51426329  0.78787006  0.40098374  1
  O  O250  1  0.50368343  0.75448497  0.86989839  1
  O  O251  1  0.24963325  0.14125042  0.49366187  1
  O  O252  1  0.25310008  0.13673883  0.99351588  1
  O  O253  1  0.23742146  0.62745344  0.49379878  1
  O  O254  1  0.24493489  0.62324952  0.99439391  1
  O  O255  1  0.73818032  0.12848957  0.53497164  1
  O  O256  1  0.75248832  0.13771677  0.99158031  1
  O  O257  1  0.74506783  0.63126863  0.49321101  1
  O  O258  1  0.74642039  0.63726140  0.99491265  1
  O  O259  1  0.25776836  0.36578485  0.00575095  1
  O  O260  1  0.25728006  0.36810530  0.50315394  1
  O  O261  1  0.25820442  0.87617928  0.00974267  1
  O  O262  1  0.25723428  0.87428277  0.51022871  1
  O  O263  1  0.75750463  0.36430152  -0.00138441  1
  O  O264  1  0.76345721  0.37429052  0.50898875  1
  O  O265  1  0.74928543  0.86497582  0.00250108  1
  O  O266  1  0.76270681  0.86034954  0.49883177  1
  O  O267  1  0.13009510  0.49178959  0.23836391  1
  O  O268  1  0.13779450  0.50306809  0.73988499  1
  O  O269  1  0.13774945  1.00736552  0.25336276  1
  O  O270  1  0.12882710  0.99121776  0.74151243  1
  O  O271  1  0.63159016  0.49203202  0.24428054  1
  O  O272  1  0.62272087  0.48929989  0.74106543  1
  O  O273  1  0.62896558  0.99257284  0.24208065  1
  O  O274  1  0.63046078  0.98926168  0.74422822  1
  O  O275  1  0.35803178  0.00013189  0.24730444  1
  O  O276  1  0.36533458  -0.01029153  0.75964038  1
  O  O277  1  0.36886905  0.48989473  0.25716850  1
  O  O278  1  0.36306813  0.50692622  0.74375094  1
  O  O279  1  0.87579391  0.01002508  0.25333223  1
  O  O280  1  0.86576120  -0.01115630  0.76034954  1
  O  O281  1  0.86868788  0.50502259  0.25542007  1
  O  O282  1  0.87248641  0.50687283  0.76309669  1
  O  O283  1  0.11497131  0.38858127  0.36957963  1
  O  O284  1  0.11604121  0.37312907  0.87304713  1
  O  O285  1  0.13201291  0.86092672  0.37518151  1
  O  O286  1  0.12339497  0.87018272  0.86831968  1
  O  O287  1  0.61760388  0.36567442  0.37122487  1
  O  O288  1  0.61820042  0.37136458  0.86740762  1
  O  O289  1  0.63965215  0.87711018  0.35563484  1
  O  O290  1  0.61268706  0.86933711  0.86783646  1
  O  O291  1  0.36945537  0.13689768  0.12552324  1
  O  O292  1  0.38970487  0.12584137  0.62569640  1
  O  O293  1  0.38233268  0.62793871  0.12501552  1
  O  O294  1  0.37840200  0.63064297  0.62633528  1
  O  O295  1  0.88511383  0.12629805  0.13578033  1
  O  O296  1  0.87507354  0.12445380  0.62891423  1
  O  O297  1  0.86607628  0.63286334  0.13396254  1
  O  O298  1  0.88316631  0.62756152  0.62885493  1
  O  O299  1  0.25646913  0.25823245  0.11846916  1
  O  O300  1  0.24979547  0.25691210  0.61582788  1
  O  O301  1  0.24728901  0.76726411  0.12788503  1
  O  O302  1  0.25693323  0.75667643  0.62261293  1
  O  O303  1  0.75184604  0.25663060  0.11402995  1
  O  O304  1  0.75158227  0.26729065  0.64252643  1
  O  O305  1  0.75454445  0.75871676  0.11671546  1
  O  O306  1  0.76295203  0.74027764  0.61597663  1
  O  O307  1  0.24930962  0.25432891  0.38984481  1
  O  O308  1  0.24529610  0.24367136  0.87920436  1
  O  O309  1  0.23819381  0.73965139  0.37602439  1
  O  O310  1  0.24421716  0.74007142  0.87675865  1
  O  O311  1  0.73355681  0.25112336  0.36993418  1
  O  O312  1  0.74487554  0.24413812  0.87574218  1
  O  O313  1  0.75074341  0.74211588  0.38353107  1
  O  O314  1  0.74522476  0.74509749  0.88143584  1
  O  O315  1  -0.00572929  0.11093978  -0.00474788  1
  O  O316  1  -0.01328167  0.13587031  0.51119102  1
  O  O317  1  0.01474972  0.62419826  -0.00678817  1
  O  O318  1  0.01237251  0.62530439  0.50962691  1
  O  O319  1  0.50012510  0.11333887  -0.00817264  1
  O  O320  1  0.50487788  0.12731342  0.51146924  1
  O  O321  1  0.49939831  0.62188267  0.01491809  1
  O  O322  1  0.50902047  0.61593909  0.50531323  1
  O  O323  1  0.49573101  0.37642929  0.49476951  1
  O  O324  1  0.49250998  0.37325479  0.98981925  1
  O  O325  1  0.47794499  0.88592119  0.51844936  1
  O  O326  1  0.49115004  0.88020015  0.99546815  1
  O  O327  1  0.98765226  0.37409339  0.49454217  1
  O  O328  1  0.98636859  0.36826066  0.98882628  1
  O  O329  1  0.99215431  0.87004234  0.50223832  1
  O  O330  1  0.99918022  0.88480305  0.98965367  1
  O  O331  1  0.50424326  0.48935925  0.38047846  1
  O  O332  1  0.50272009  0.48815242  0.87606040  1
  O  O333  1  0.49379809  0.96330162  0.36158491  1
  O  O334  1  0.50171023  0.99047944  0.88230663  1
  O  O335  1  0.98709214  0.49348993  0.37106974  1
  O  O336  1  0.99274672  0.49159200  0.87097076  1
  O  O337  1  0.98843054  1.01207423  0.38226135  1
  O  O338  1  0.99338276  0.99623743  0.87668762  1
  O  O339  1  -0.00395550  -0.00068335  0.10486927  1
  O  O340  1  0.01504469  -0.00178065  0.62490610  1
  O  O341  1  0.01427647  0.49286070  0.12652961  1
  O  O342  1  0.00939273  0.51176982  0.63535816  1
  O  O343  1  0.50966879  -0.00435652  0.11423506  1
  O  O344  1  0.50532946  0.01111209  0.63204621  1
  O  O345  1  0.51176063  0.49456075  0.12475192  1
  O  O346  1  0.51013646  0.50109884  0.61890127  1
  O  O347  1  0.24242864  0.37096561  0.24341945  1
  O  O348  1  0.24986546  0.38268357  0.74553933  1
  O  O349  1  0.23844262  0.88449017  0.23858907  1
  O  O350  1  0.23859066  0.87038901  0.74466133  1
  O  O351  1  0.74604694  0.37972894  0.24343733  1
  O  O352  1  0.73914858  0.38105737  0.74755808  1
  O  O353  1  0.74493950  0.87959520  0.23859166  1
  O  O354  1  0.73595728  0.87908252  0.75802140  1
  O  O355  1  0.25273340  0.12197583  0.25835366  1
  O  O356  1  0.24901149  0.13000648  0.76120533  1
  O  O357  1  0.24581848  0.62491404  0.26266011  1
  O  O358  1  0.25542281  0.61869732  0.75754116  1
  O  O359  1  0.76465013  0.12237776  0.24079647  1
  O  O360  1  0.74373613  0.11315909  0.75330988  1
  O  O361  1  0.75646037  0.61917298  0.25763599  1
  O  O362  1  0.75657796  0.62380841  0.75760877  1
  O  O363  1  0.35402688  0.13750763  0.37285140  1
  O  O364  1  0.35890750  0.12819728  0.87793470  1
  O  O365  1  0.35745186  0.62514302  0.38350128  1
  O  O366  1  0.36378505  0.62913898  0.87168681  1
  O  O367  1  0.87351698  0.11964603  0.35801712  1
  O  O368  1  0.86285538  0.11695562  0.87228034  1
  O  O369  1  0.87035813  0.61710603  0.37001174  1
  O  O370  1  0.87008067  0.62021753  0.87275664  1
  O  O371  1  0.13288784  0.38014228  0.13104239  1
  O  O372  1  0.13073557  0.38644639  0.62910549  1
  O  O373  1  0.13306892  0.87615013  0.12054896  1
  O  O374  1  0.13366523  0.87195313  0.63173893  1
  O  O375  1  0.63061825  0.37966762  0.12989178  1
  O  O376  1  0.62937398  0.37901846  0.62967338  1
  O  O377  1  0.63284982  0.88285652  0.13192994  1
  O  O378  1  0.61380726  0.87766227  0.63700438  1
  O  O379  1  0.11622164  0.26739639  0.25162993  1
  O  O380  1  0.11611585  0.25633352  0.76150056  1
  O  O381  1  0.12012226  0.74601104  0.26387132  1
  O  O382  1  0.12072182  0.75451717  0.75678189  1
  O  O383  1  0.61950875  0.25128624  0.25610407  1
  O  O384  1  0.61117208  0.26355569  0.75448371  1
  O  O385  1  0.63258494  0.76514579  0.24994531  1
  O  O386  1  0.61889356  0.75451691  0.75277426  1
  O  O387  1  0.38592811  0.24927429  0.24159186  1
  O  O388  1  0.39104823  0.25738692  0.74617456  1
  O  O389  1  0.40290752  0.78730442  0.29769808  1
  O  O390  1  0.37920582  0.74456305  0.73783005  1
  O  O391  1  0.87784969  0.24028810  0.25118233  1
  O  O392  1  0.89002364  0.25191270  0.75766230  1
  O  O393  1  0.87340586  0.74041524  0.24098661  1
  O  O394  1  0.87956821  0.74483064  0.74302964  1
  O  O395  1  0.38113659  0.48713274  0.49445569  1
  O  O396  1  0.37637204  0.48414089  1.00548807  1
  O  O397  1  0.36994727  1.00064682  0.50947712  1
  O  O398  1  0.38180522  0.98978942  0.99444947  1
  O  O399  1  0.87135997  0.49281547  0.49079608  1
  O  O400  1  0.87003951  0.49402018  0.98887708  1
  O  O401  1  0.88286702  0.98629951  0.49514510  1
  O  O402  1  0.87679900  0.99742305  0.98373701  1
  O  O403  1  0.11040914  0.00230815  -0.00873980  1
  O  O404  1  0.12127263  -0.00114227  0.51570125  1
  O  O405  1  0.12784709  0.50286407  0.01341790  1
  O  O406  1  0.12886509  0.50727172  0.51450303  1
  O  O407  1  0.61579889  -0.00078575  0.00594098  1
  O  O408  1  0.63068555  -0.00865862  0.51345963  1
  O  O409  1  0.62201952  0.50168858  0.00961719  1
  O  O410  1  0.62314459  0.50163595  0.50598476  1
  O  O411  1  0.36885736  0.36458538  0.11871620  1
  O  O412  1  0.36892440  0.37390546  0.61638614  1
  O  O413  1  0.36882941  0.87769194  0.11385927  1
  O  O414  1  0.36227025  0.86925476  0.62079457  1
  O  O415  1  0.86469611  0.38143398  0.11436056  1
  O  O416  1  0.86662129  0.38764951  0.61948215  1
  O  O417  1  0.86526491  0.86702174  0.12010927  1
  O  O418  1  0.88201843  0.86053349  0.61995116  1
  O  O419  1  0.14453205  0.13636735  0.37320595  1
  O  O420  1  0.13800754  0.13627740  0.87407676  1
  O  O421  1  0.13075461  0.62758581  0.38073977  1
  O  O422  1  0.13569551  0.62689092  0.88267434  1
  O  O423  1  0.62098606  0.13126574  0.37620605  1
  O  O424  1  0.63511246  0.13104122  0.87669360  1
  O  O425  1  0.62958090  0.62880221  0.37930326  1
  O  O426  1  0.62948435  0.63154476  0.87639628  1
