# generated using pymatgen
data_V85Zn86O256
_symmetry_space_group_name_H-M   'P 1'
_cell_length_a   16.93326337
_cell_length_b   16.93981380
_cell_length_c   16.93372790
_cell_angle_alpha   90.08128169
_cell_angle_beta   89.95982140
_cell_angle_gamma   89.96319703
_symmetry_Int_Tables_number   1
_chemical_formula_structural   V85Zn86O256
_chemical_formula_sum   'V85 Zn86 O256'
_cell_volume   4857.37059020
_cell_formula_units_Z   1
loop_
 _symmetry_equiv_pos_site_id
 _symmetry_equiv_pos_as_xyz
  1  'x, y, z'
loop_
 _atom_site_type_symbol
 _atom_site_label
 _atom_site_symmetry_multiplicity
 _atom_site_fract_x
 _atom_site_fract_y
 _atom_site_fract_z
 _atom_site_occupancy
  V  V0  1  0.12693065  0.87332483  0.75498780  1
  V  V1  1  0.62098614  0.11033792  0.50089125  1
  V  V2  1  -0.01726542  0.37626609  0.38367199  1
  V  V3  1  0.86421151  0.75514760  0.12324092  1
  V  V4  1  0.61565222  0.11995197  0.01448650  1
  V  V5  1  0.13722358  -0.00253006  0.12676312  1
  V  V6  1  0.12358944  0.50102429  0.12700784  1
  V  V7  1  0.87169099  0.61813594  0.25305140  1
  V  V8  1  -0.00469900  0.00170372  0.50335381  1
  V  V9  1  -0.00150872  0.12341411  0.12415701  1
  V  V10  1  0.63379205  0.37766622  0.74461950  1
  V  V11  1  0.12627960  0.00272898  0.62566013  1
  V  V12  1  0.74540575  0.49688954  0.25437897  1
  V  V13  1  0.87285632  0.37561214  -0.00509150  1
  V  V14  1  0.61794129  0.63141123  -0.00112299  1
  V  V15  1  0.61756355  0.50050933  0.12382947  1
  V  V16  1  0.50427187  0.62526231  0.62842743  1
  V  V17  1  0.87382834  0.12352192  0.24833470  1
  V  V18  1  0.74969847  0.12302182  0.37486917  1
  V  V19  1  0.37738288  0.75135216  0.62712789  1
  V  V20  1  0.25561418  0.74987862  0.49955343  1
  V  V21  1  0.12809683  0.74955913  0.37217995  1
  V  V22  1  0.13567648  0.87913384  0.24658562  1
  V  V23  1  0.12504233  0.12490348  0.49943034  1
  V  V24  1  0.38478121  0.62394163  0.24395067  1
  V  V25  1  0.24582480  0.25226067  -0.00191658  1
  V  V26  1  0.25234741  0.00261487  0.75347390  1
  V  V27  1  0.74910233  0.63678315  0.87557655  1
  V  V28  1  0.74746024  0.75406314  0.50582682  1
  V  V29  1  -0.00304298  0.87262861  0.37435422  1
  V  V30  1  0.91687245  0.81806286  0.55810451  1
  V  V31  1  0.37009370  0.62796840  0.75542872  1
  V  V32  1  0.74215573  0.37520322  0.12528971  1
  V  V33  1  0.38968201  -0.00353932  0.37440101  1
  V  V34  1  0.61510243  -0.01198890  0.12705089  1
  V  V35  1  0.50547966  0.24749221  0.24534120  1
  V  V36  1  0.25103847  0.62489492  0.37515917  1
  V  V37  1  0.25558924  0.87688425  0.62553063  1
  V  V38  1  0.12752266  0.37080792  0.76099612  1
  V  V39  1  -0.00086003  0.25014935  0.25050279  1
  V  V40  1  0.12365963  0.12981868  -0.00427532  1
  V  V41  1  0.50678514  0.88256888  0.88291631  1
  V  V42  1  0.49929103  0.24967556  0.74293505  1
  V  V43  1  0.37820478  0.24584320  0.12521468  1
  V  V44  1  -0.00185398  0.87002621  0.87539108  1
  V  V45  1  0.24872019  0.74448376  -0.00690910  1
  V  V46  1  0.24927590  0.11605705  0.37262329  1
  V  V47  1  0.73995081  0.89187951  0.62722201  1
  V  V48  1  0.87376076  -0.00245372  0.37534383  1
  V  V49  1  0.24975463  0.13249693  0.87428089  1
  V  V50  1  0.25006185  0.50055295  0.25019779  1
  V  V51  1  0.63072992  0.24041984  0.87398609  1
  V  V52  1  0.37600968  0.49813655  0.37362702  1
  V  V53  1  0.86127694  0.12653987  0.75416857  1
  V  V54  1  0.87663993  0.25544544  0.62459579  1
  V  V55  1  0.24887758  0.37372486  0.12669308  1
  V  V56  1  0.74963020  0.25257789  0.50701708  1
  V  V57  1  0.62472513  0.24916782  0.37486879  1
  V  V58  1  0.62075233  0.75578233  0.37559874  1
  V  V59  1  0.37358207  0.37453618  -0.00127283  1
  V  V60  1  0.50140469  0.10665648  0.62282212  1
  V  V61  1  0.24863400  0.25134954  0.50460825  1
  V  V62  1  0.50143755  0.37625832  0.87356329  1
  V  V63  1  -0.00081284  -0.00090337  -0.00238739  1
  V  V64  1  0.11118767  0.49502459  0.62109401  1
  V  V65  1  0.85767863  0.00448245  0.87386467  1
  V  V66  1  0.51282686  0.75204142  0.76005171  1
  V  V67  1  -0.00095634  0.49618005  -0.00338220  1
  V  V68  1  0.38939188  0.87993977  0.49762953  1
  V  V69  1  -0.00027447  0.62447701  0.12502503  1
  V  V70  1  0.37270641  0.37300854  0.50785552  1
  V  V71  1  0.36858926  0.88434586  0.00436381  1
  V  V72  1  0.37165393  0.74930931  0.12334532  1
  V  V73  1  0.50139975  0.49992550  0.50060208  1
  V  V74  1  0.12250561  0.37491976  0.25471760  1
  V  V75  1  0.24998926  0.49671702  0.73945839  1
  V  V76  1  0.00098447  0.74847463  0.24778285  1
  V  V77  1  0.88328946  0.63551828  0.74267982  1
  V  V78  1  0.00288125  0.25193155  0.76679482  1
  V  V79  1  0.87147847  0.24971279  0.12267073  1
  V  V80  1  0.49849845  0.76164280  0.24970500  1
  V  V81  1  0.50091343  0.37252055  0.37013810  1
  V  V82  1  0.37402177  0.12078616  0.24860463  1
  V  V83  1  0.36853299  0.50297685  0.87517099  1
  V  V84  1  0.87342258  0.50250819  0.87386160  1
  Zn  Zn85  1  0.37280718  0.24964878  0.62657500  1
  Zn  Zn86  1  0.12493447  0.24948615  0.37656724  1
  Zn  Zn87  1  0.00072974  0.12927137  0.62961421  1
  Zn  Zn88  1  0.11967392  0.62517422  0.51180916  1
  Zn  Zn89  1  0.00170825  0.74815484  0.72903667  1
  Zn  Zn90  1  0.37897632  0.00554407  0.88060978  1
  Zn  Zn91  1  0.63162288  0.49651551  0.62168129  1
  Zn  Zn92  1  0.12807803  0.73692330  0.86650003  1
  Zn  Zn93  1  0.73933816  0.76024933  0.00020727  1
  Zn  Zn94  1  0.63518596  0.87264729  0.25000522  1
  Zn  Zn95  1  0.74983100  0.62333570  0.37844153  1
  Zn  Zn96  1  0.37551357  0.12659886  0.74932090  1
  Zn  Zn97  1  0.62422799  0.62588706  0.49839577  1
  Zn  Zn98  1  0.63357627  0.88601770  0.75730944  1
  Zn  Zn99  1  0.74882005  0.24526358  -0.00469522  1
  Zn  Zn100  1  0.75471625  0.50314165  0.74334164  1
  Zn  Zn101  1  0.86846549  0.87946435  0.00545142  1
  Zn  Zn102  1  0.75691105  -0.01039850  0.23297938  1
  Zn  Zn103  1  0.49699625  0.50345156  0.00212035  1
  Zn  Zn104  1  0.12903750  0.62101263  -0.00580080  1
  Zn  Zn105  1  -0.02569368  0.50410906  0.49756405  1
  Zn  Zn106  1  0.80989264  0.42047094  0.56555710  1
  Zn  Zn107  1  0.18811745  0.18567148  0.18668821  1
  Zn  Zn108  1  0.18555461  0.19051756  0.68635474  1
  Zn  Zn109  1  0.19140866  0.68924022  0.18415574  1
  Zn  Zn110  1  0.18798543  0.68312632  0.68777412  1
  Zn  Zn111  1  0.68928720  0.18279640  0.18640233  1
  Zn  Zn112  1  0.68295310  0.18238064  0.68489995  1
  Zn  Zn113  1  0.68218174  0.68335843  0.18702360  1
  Zn  Zn114  1  0.69170150  0.68990496  0.68859062  1
  Zn  Zn115  1  0.31193747  0.30778222  0.31679559  1
  Zn  Zn116  1  0.31150836  0.31357362  0.81032192  1
  Zn  Zn117  1  0.31689419  0.81492884  0.31203368  1
  Zn  Zn118  1  0.31818195  0.81485432  0.81786491  1
  Zn  Zn119  1  0.80655122  0.31082709  0.30872488  1
  Zn  Zn120  1  0.81422890  0.31250966  0.81199916  1
  Zn  Zn121  1  0.81080676  0.80977234  0.31336267  1
  Zn  Zn122  1  0.81327018  0.81639998  0.81072253  1
  Zn  Zn123  1  0.18705484  0.43489422  0.43808701  1
  Zn  Zn124  1  0.18843301  0.44246207  0.93539618  1
  Zn  Zn125  1  0.19037806  0.93715239  0.43630161  1
  Zn  Zn126  1  0.18972257  0.93822998  0.93869862  1
  Zn  Zn127  1  0.68325941  0.43477919  0.43321299  1
  Zn  Zn128  1  0.68823579  0.44047660  0.93627629  1
  Zn  Zn129  1  0.69245158  0.92983660  0.43641944  1
  Zn  Zn130  1  0.68464236  0.93925905  0.94916522  1
  Zn  Zn131  1  0.31253712  0.06645213  0.06378857  1
  Zn  Zn132  1  0.31709053  0.06340897  0.56077839  1
  Zn  Zn133  1  0.31325366  0.56386922  0.06343304  1
  Zn  Zn134  1  0.31476683  0.56329253  0.56360028  1
  Zn  Zn135  1  0.80072080  0.06417796  0.05544825  1
  Zn  Zn136  1  0.81477380  0.07073948  0.56339151  1
  Zn  Zn137  1  0.80703969  0.56535693  0.06333433  1
  Zn  Zn138  1  0.81131036  0.57758916  0.56534320  1
  Zn  Zn139  1  0.43838992  0.43314183  0.18773623  1
  Zn  Zn140  1  0.44068323  0.43855463  0.68863579  1
  Zn  Zn141  1  0.43730910  0.94071563  0.18446472  1
  Zn  Zn142  1  0.44103702  0.93573028  0.69528000  1
  Zn  Zn143  1  0.93328901  0.43601058  0.18695897  1
  Zn  Zn144  1  0.94202155  0.43659646  0.69662623  1
  Zn  Zn145  1  0.94284468  0.93604869  0.18866913  1
  Zn  Zn146  1  0.93879118  0.94386837  0.69577599  1
  Zn  Zn147  1  0.06261402  0.06091774  0.31268587  1
  Zn  Zn148  1  0.06146149  0.06448673  0.81469177  1
  Zn  Zn149  1  0.05809013  0.56231337  0.32352403  1
  Zn  Zn150  1  0.06169776  0.56107523  0.81339888  1
  Zn  Zn151  1  0.56246578  0.06325056  0.30458607  1
  Zn  Zn152  1  0.56832656  0.05780943  0.80716667  1
  Zn  Zn153  1  0.56715256  0.56625673  0.31257926  1
  Zn  Zn154  1  0.56232477  0.56216988  0.81661258  1
  Zn  Zn155  1  0.43750306  0.18376147  0.43910244  1
  Zn  Zn156  1  0.43851132  0.18924705  0.93318491  1
  Zn  Zn157  1  0.43979103  0.68837345  0.43574971  1
  Zn  Zn158  1  0.43802930  0.69069344  0.93730926  1
  Zn  Zn159  1  0.93711585  0.18996462  0.43861193  1
  Zn  Zn160  1  0.93419790  0.18571482  0.93740815  1
  Zn  Zn161  1  0.93929469  0.67846090  0.43386306  1
  Zn  Zn162  1  0.93874346  0.68545355  0.93863118  1
  Zn  Zn163  1  0.06001340  0.31332593  0.06273831  1
  Zn  Zn164  1  0.06231064  0.31579766  0.56748453  1
  Zn  Zn165  1  0.06280060  0.81394706  0.06222336  1
  Zn  Zn166  1  0.08261804  0.81663033  0.55898773  1
  Zn  Zn167  1  0.56178601  0.31209845  0.05879032  1
  Zn  Zn168  1  0.56408100  0.30953653  0.55954906  1
  Zn  Zn169  1  0.55252419  0.80996539  0.06458479  1
  Zn  Zn170  1  0.56457085  0.81305433  0.56659018  1
  O  O171  1  0.11827843  0.11852678  0.11744440  1
  O  O172  1  0.12364198  0.11853105  0.61785081  1
  O  O173  1  0.11727547  0.61852491  0.12329116  1
  O  O174  1  0.13073142  0.60306115  0.62812029  1
  O  O175  1  0.61522068  0.12970417  0.11703656  1
  O  O176  1  0.61016052  0.12692758  0.61588571  1
  O  O177  1  0.62866416  0.61421956  0.10918005  1
  O  O178  1  0.61270208  0.62434717  0.62630603  1
  O  O179  1  0.38152090  0.38014708  0.38216365  1
  O  O180  1  0.38133184  0.38020861  0.87857508  1
  O  O181  1  0.37183564  0.88906117  0.38106520  1
  O  O182  1  0.38054606  0.88084679  0.88850118  1
  O  O183  1  0.88437054  0.36566012  0.37298264  1
  O  O184  1  0.86923102  0.38278732  0.88732949  1
  O  O185  1  0.88899269  0.88208201  0.37099910  1
  O  O186  1  0.88349960  0.88974093  0.87221182  1
  O  O187  1  0.25446478  0.01222530  0.37689527  1
  O  O188  1  0.24989872  0.01202398  0.86925490  1
  O  O189  1  0.25489959  0.50584423  0.36996538  1
  O  O190  1  0.26313327  0.49493763  0.86353837  1
  O  O191  1  0.76563978  0.00305052  0.37912336  1
  O  O192  1  0.75987118  -0.00153261  0.87743815  1
  O  O193  1  0.73952968  0.50005072  0.35860625  1
  O  O194  1  0.76145892  0.50909635  0.87413626  1
  O  O195  1  0.24499327  0.49366233  0.13092631  1
  O  O196  1  0.25343851  0.49806708  0.63710069  1
  O  O197  1  0.23647625  1.00495432  0.12340601  1
  O  O198  1  0.24657946  0.99744670  0.63220534  1
  O  O199  1  0.74026105  0.49254495  0.12902085  1
  O  O200  1  0.74651835  0.50004100  0.62727807  1
  O  O201  1  0.72619706  1.01164779  0.12352988  1
  O  O202  1  0.75525348  0.98953321  0.61737079  1
  O  O203  1  0.00457301  0.36814720  0.25336440  1
  O  O204  1  0.01110070  0.36146976  0.75139802  1
  O  O205  1  0.00823558  0.86835290  0.25890913  1
  O  O206  1  0.00975354  0.87307262  0.75730326  1
  O  O207  1  0.49337733  0.36487716  0.26357721  1
  O  O208  1  0.50571421  0.36926231  0.75798812  1
  O  O209  1  0.49843245  0.86346482  0.24954195  1
  O  O210  1  0.49699945  0.86617616  0.76543720  1
  O  O211  1  0.48421025  0.13605010  0.25573654  1
  O  O212  1  0.49902582  0.13204568  0.73776318  1
  O  O213  1  0.48699629  0.62941029  0.25529730  1
  O  O214  1  0.49452987  0.63191988  0.74699732  1
  O  O215  1  0.99393389  0.13049243  0.24560556  1
  O  O216  1  0.99971984  0.13936224  0.75178359  1
  O  O217  1  0.99354529  0.62637910  0.24457546  1
  O  O218  1  0.98819011  0.62891863  0.75272371  1
  O  O219  1  0.36913192  0.25449607  0.00709299  1
  O  O220  1  0.36896411  0.25746265  0.49913744  1
  O  O221  1  0.36614184  0.75543787  0.00482972  1
  O  O222  1  0.37219801  0.75648452  0.50515131  1
  O  O223  1  0.87240751  0.25764714  0.00348120  1
  O  O224  1  0.86537775  0.24302698  0.51249379  1
  O  O225  1  0.87719382  0.74733163  0.01727102  1
  O  O226  1  0.86754414  0.74877677  0.49531171  1
  O  O227  1  0.13128936  0.24504025  0.49947899  1
  O  O228  1  0.13108088  0.24103212  1.00803526  1
  O  O229  1  0.13748694  0.74500521  0.49057582  1
  O  O230  1  0.14173491  0.75300965  1.00372385  1
  O  O231  1  0.62950914  0.23992873  0.49255450  1
  O  O232  1  0.62350046  0.24869724  0.98465992  1
  O  O233  1  0.63127145  0.75085420  0.49447810  1
  O  O234  1  0.62220678  0.73521216  1.00794699  1
  O  O235  1  0.49061123  0.26033796  0.13468948  1
  O  O236  1  0.49986130  0.24955183  0.63578265  1
  O  O237  1  0.48495191  0.74807254  0.13524274  1
  O  O238  1  0.49500290  0.74423037  0.63426095  1
  O  O239  1  0.99248048  0.24363120  0.13076467  1
  O  O240  1  0.99192071  0.24885997  0.63227436  1
  O  O241  1  0.99825918  0.73737920  0.12799198  1
  O  O242  1  0.99253892  0.76533648  0.61121924  1
  O  O243  1  0.00234533  0.25864371  0.36786635  1
  O  O244  1  -0.00080025  0.25010334  0.86569348  1
  O  O245  1  0.00572590  0.75695975  0.36884591  1
  O  O246  1  0.00368117  0.76528714  0.88327332  1
  O  O247  1  0.50448983  0.25427464  0.37026496  1
  O  O248  1  0.50679612  0.25747284  0.86211521  1
  O  O249  1  0.50679877  0.74544670  0.36422835  1
  O  O250  1  0.49418375  0.76298956  0.86799017  1
  O  O251  1  0.24375001  0.12851507  0.49326955  1
  O  O252  1  0.24330279  0.13127463  0.99361152  1
  O  O253  1  0.25205357  0.63003502  0.49103088  1
  O  O254  1  0.25034793  0.64011810  1.00379558  1
  O  O255  1  0.74207792  0.13260362  0.49340900  1
  O  O256  1  0.72552393  0.13137660  0.99799619  1
  O  O257  1  0.74380474  0.64043219  0.49850578  1
  O  O258  1  0.74026170  0.62955506  0.99249531  1
  O  O259  1  0.25326925  0.37122400  0.00496517  1
  O  O260  1  0.26072086  0.36410289  0.49154942  1
  O  O261  1  0.26260528  0.86650699  -0.00252866  1
  O  O262  1  0.25614391  0.86886045  0.50682356  1
  O  O263  1  0.75677393  0.37335341  0.00672324  1
  O  O264  1  0.74014938  0.35772921  0.49709039  1
  O  O265  1  0.75658054  0.87084771  -0.00221269  1
  O  O266  1  0.75569522  0.86613282  0.51143029  1
  O  O267  1  0.12932578  0.49344418  0.24715097  1
  O  O268  1  0.12986486  0.49096966  0.74283799  1
  O  O269  1  0.11684375  0.99184711  0.23900385  1
  O  O270  1  0.13438087  0.99507374  0.74770061  1
  O  O271  1  0.63176416  0.50680219  0.23676889  1
  O  O272  1  0.62328028  0.48614535  0.75092515  1
  O  O273  1  0.62664238  0.99731907  0.23896239  1
  O  O274  1  0.62334617  0.99508803  0.73876058  1
  O  O275  1  0.37661678  0.00736529  0.26050718  1
  O  O276  1  0.36109892  0.00165378  0.75183381  1
  O  O277  1  0.37087299  0.50527575  0.25310915  1
  O  O278  1  0.36975620  0.50501393  0.75486382  1
  O  O279  1  0.87881741  0.00657506  0.25727508  1
  O  O280  1  0.88057484  0.01256419  0.76560168  1
  O  O281  1  0.86150472  0.50799342  0.24010535  1
  O  O282  1  0.87666699  0.50931857  0.75928703  1
  O  O283  1  0.12232041  0.37219518  0.36328162  1
  O  O284  1  0.12501336  0.38168038  0.86031057  1
  O  O285  1  0.11560710  0.87059579  0.37171365  1
  O  O286  1  0.12162159  0.87439438  0.86487533  1
  O  O287  1  0.61517789  0.35838971  0.37678405  1
  O  O288  1  0.61718851  0.36969919  0.86731712  1
  O  O289  1  0.62583884  0.86094097  0.37311235  1
  O  O290  1  0.61046790  0.87844902  0.87956599  1
  O  O291  1  0.37066373  0.13733870  0.13253697  1
  O  O292  1  0.38892226  0.12759781  0.62504553  1
  O  O293  1  0.37242595  0.63225453  0.13409212  1
  O  O294  1  0.38623933  0.62941662  0.63331287  1
  O  O295  1  0.87825821  0.12874748  0.12687836  1
  O  O296  1  0.87893452  0.13434371  0.63740044  1
  O  O297  1  0.88155700  0.63166314  0.13198611  1
  O  O298  1  0.87399435  0.63093859  0.64412660  1
  O  O299  1  0.25693781  0.25623039  0.12046003  1
  O  O300  1  0.25392650  0.24315339  0.60999541  1
  O  O301  1  0.26324523  0.75031732  0.11702771  1
  O  O302  1  0.25763893  0.75502065  0.62084995  1
  O  O303  1  0.75454164  0.25781492  0.12405184  1
  O  O304  1  0.75706691  0.24349770  0.61708871  1
  O  O305  1  0.76272571  0.74410140  0.12545282  1
  O  O306  1  0.74758889  0.75598131  0.61087640  1
  O  O307  1  0.24938853  0.23702699  0.38554356  1
  O  O308  1  0.25154234  0.23995115  0.87960329  1
  O  O309  1  0.25084681  0.74256142  0.37876650  1
  O  O310  1  0.24951959  0.75289055  0.88911567  1
  O  O311  1  0.74136328  0.24272004  0.37828254  1
  O  O312  1  0.73358947  0.25568975  0.87391613  1
  O  O313  1  0.74331066  0.75047881  0.38798687  1
  O  O314  1  0.75477998  0.74012139  0.87736124  1
  O  O315  1  0.00703846  0.12006652  0.00259120  1
  O  O316  1  0.00836381  0.11763160  0.49991539  1
  O  O317  1  -0.00094121  0.61264316  0.01004892  1
  O  O318  1  0.01519985  0.60834998  0.47114874  1
  O  O319  1  0.51727024  0.13465602  -0.00700754  1
  O  O320  1  0.50626838  0.12778305  0.51346825  1
  O  O321  1  0.51323951  0.62152407  -0.00775745  1
  O  O322  1  0.49847852  0.61675996  0.50898063  1
  O  O323  1  0.49463812  0.37934952  0.49022783  1
  O  O324  1  0.49308936  0.37483298  0.98649336  1
  O  O325  1  0.48801849  0.87110575  0.50368041  1
  O  O326  1  0.48616630  0.86875085  0.98885431  1
  O  O327  1  1.00173975  0.37479044  0.48588772  1
  O  O328  1  0.99004696  0.38824460  1.00907626  1
  O  O329  1  0.99411313  0.87812442  0.49739916  1
  O  O330  1  0.99492686  0.88392325  0.99491049  1
  O  O331  1  0.49763228  0.49224423  0.37959937  1
  O  O332  1  0.48813184  0.49090883  0.87394725  1
  O  O333  1  0.48799576  1.00466285  0.37409095  1
  O  O334  1  0.49530699  0.98661486  0.87152646  1
  O  O335  1  0.99742329  0.47833642  0.36990627  1
  O  O336  1  0.98592263  0.50254464  0.88572804  1
  O  O337  1  0.99409096  0.99260273  0.38252263  1
  O  O338  1  1.00238157  0.99156663  0.88607989  1
  O  O339  1  0.00172471  0.00571361  0.11248740  1
  O  O340  1  0.00607109  0.00220433  0.61852687  1
  O  O341  1  0.00218498  0.50888571  0.12228766  1
  O  O342  1  0.00802312  0.49568185  0.61996705  1
  O  O343  1  0.51447014  0.00545351  0.13078551  1
  O  O344  1  0.49423482  0.00846373  0.62414255  1
  O  O345  1  0.51264026  0.48989636  0.12244889  1
  O  O346  1  0.50129741  0.50772384  0.61724358  1
  O  O347  1  0.24295539  0.37847724  0.24781222  1
  O  O348  1  0.23709204  0.37931515  0.75066029  1
  O  O349  1  0.23473678  0.87241101  0.25723909  1
  O  O350  1  0.24577793  0.88202008  0.74868456  1
  O  O351  1  0.75290520  0.38289443  0.23739579  1
  O  O352  1  0.73606681  0.37769900  0.75511667  1
  O  O353  1  0.74981813  0.87900343  0.25309830  1
  O  O354  1  0.75042174  0.86897431  0.73140934  1
  O  O355  1  0.26294526  0.13283042  0.25867571  1
  O  O356  1  0.24786592  0.12037972  0.75745478  1
  O  O357  1  0.26059073  0.62013753  0.25546745  1
  O  O358  1  0.26414635  0.61711962  0.74704229  1
  O  O359  1  0.75900783  0.12079880  0.25728751  1
  O  O360  1  0.76204835  0.13398696  0.75140115  1
  O  O361  1  0.75599860  0.61533997  0.24719858  1
  O  O362  1  0.75859754  0.62560247  0.75896422  1
  O  O363  1  0.36945889  0.11476968  0.37091537  1
  O  O364  1  0.36572535  0.12346027  0.87228889  1
  O  O365  1  0.36713311  0.61815726  0.36930761  1
  O  O366  1  0.38133294  0.61595167  0.86653355  1
  O  O367  1  0.87299215  0.11768001  0.36863723  1
  O  O368  1  0.87636284  0.11270843  0.87065906  1
  O  O369  1  0.86859101  0.63003060  0.35649478  1
  O  O370  1  0.86811952  0.61982551  0.87228021  1
  O  O371  1  0.12749565  0.37983578  0.13695680  1
  O  O372  1  0.12356026  0.38776038  0.63707659  1
  O  O373  1  0.11842117  0.88527093  0.13444909  1
  O  O374  1  0.13482969  0.88307918  0.63704291  1
  O  O375  1  0.63569671  0.38079213  0.11690759  1
  O  O376  1  0.61735495  0.37437762  0.64138850  1
  O  O377  1  0.61768894  0.88429931  0.12467605  1
  O  O378  1  0.63792843  0.87875525  0.62278867  1
  O  O379  1  0.11843423  0.25741742  0.24957450  1
  O  O380  1  0.11671847  0.26068828  0.74783878  1
  O  O381  1  0.12019183  0.75524939  0.25328642  1
  O  O382  1  0.12168453  0.75844665  0.74751019  1
  O  O383  1  0.61292885  0.24104912  0.25719673  1
  O  O384  1  0.62015184  0.25872867  0.75661032  1
  O  O385  1  0.61472487  0.74917694  0.25390048  1
  O  O386  1  0.61478267  0.75718767  0.74785478  1
  O  O387  1  0.38151132  0.24546487  0.24335541  1
  O  O388  1  0.38391036  0.24944845  0.74706061  1
  O  O389  1  0.37856396  0.74387001  0.24433979  1
  O  O390  1  0.37928834  0.74312055  0.74652260  1
  O  O391  1  0.87873443  0.24256398  0.24299086  1
  O  O392  1  0.88645776  0.24506811  0.75063477  1
  O  O393  1  0.88230380  0.74207945  0.23944721  1
  O  O394  1  0.88341010  0.73973452  0.75750161  1
  O  O395  1  0.38424106  0.49396873  0.49461857  1
  O  O396  1  0.37460701  0.49433311  0.99284689  1
  O  O397  1  0.37122653  0.99303419  0.48527738  1
  O  O398  1  0.36972733  0.98814674  1.00259012  1
  O  O399  1  0.86237910  0.49836823  0.50337423  1
  O  O400  1  0.87888487  0.49467152  0.99712928  1
  O  O401  1  0.88856141  1.00904346  0.49245223  1
  O  O402  1  0.88117085  1.00429129  0.98928226  1
  O  O403  1  0.11814837  0.00556044  0.00648843  1
  O  O404  1  0.11470843  0.00186898  0.50365798  1
  O  O405  1  0.11628671  0.49708492  0.00846716  1
  O  O406  1  0.13247117  0.49543467  0.51761810  1
  O  O407  1  0.61844191  0.01168217  0.01143944  1
  O  O408  1  0.62971494  0.01202311  0.48864973  1
  O  O409  1  0.62244378  0.50718036  0.00620406  1
  O  O410  1  0.61215962  0.50009499  0.49992416  1
  O  O411  1  0.36855648  0.36632002  0.12022033  1
  O  O412  1  0.38175658  0.37441447  0.61086579  1
  O  O413  1  0.37973250  0.86855669  0.11121395  1
  O  O414  1  0.37222265  0.87213526  0.61955852  1
  O  O415  1  0.86592423  0.37035399  0.11440736  1
  O  O416  1  0.87359799  0.36052935  0.63985509  1
  O  O417  1  0.88445014  0.85772291  0.12694325  1
  O  O418  1  0.87020514  0.87939962  0.62652711  1
  O  O419  1  0.13152335  0.12551764  0.37987836  1
  O  O420  1  0.13162079  0.12141401  0.88899100  1
  O  O421  1  0.14205357  0.63084023  0.36626251  1
  O  O422  1  0.12138619  0.62537767  0.88097068  1
  O  O423  1  0.62682380  0.13238662  0.37927241  1
  O  O424  1  0.61799698  0.14003776  0.87196047  1
  O  O425  1  0.62858014  0.63783889  0.37778832  1
  O  O426  1  0.63463439  0.61847928  0.88777768  1
