# generated using pymatgen
data_V85Zn86O256
_symmetry_space_group_name_H-M   'P 1'
_cell_length_a   16.93419596
_cell_length_b   16.93019456
_cell_length_c   16.93055928
_cell_angle_alpha   90.03903804
_cell_angle_beta   90.03113104
_cell_angle_gamma   90.01294595
_symmetry_Int_Tables_number   1
_chemical_formula_structural   V85Zn86O256
_chemical_formula_sum   'V85 Zn86 O256'
_cell_volume   4853.97638147
_cell_formula_units_Z   1
loop_
 _symmetry_equiv_pos_site_id
 _symmetry_equiv_pos_as_xyz
  1  'x, y, z'
loop_
 _atom_site_type_symbol
 _atom_site_label
 _atom_site_symmetry_multiplicity
 _atom_site_fract_x
 _atom_site_fract_y
 _atom_site_fract_z
 _atom_site_occupancy
  V  V0  1  0.61875902  0.37147463  0.74812057  1
  V  V1  1  0.49750622  0.36548171  0.36981425  1
  V  V2  1  0.37540822  0.25333182  0.12807990  1
  V  V3  1  0.25323362  0.24433583  0.49975442  1
  V  V4  1  0.36931402  0.00560152  0.86431214  1
  V  V5  1  0.87569087  0.49742063  0.87448294  1
  V  V6  1  0.12034657  0.38634461  0.74307477  1
  V  V7  1  0.49438566  0.49464331  -0.01230714  1
  V  V8  1  0.38484689  0.62808991  0.74826425  1
  V  V9  1  0.49375936  0.50304643  0.49687864  1
  V  V10  1  0.50255428  0.62733638  0.13318718  1
  V  V11  1  0.25205163  0.86820465  0.12169869  1
  V  V12  1  0.87211037  0.87467690  0.50175224  1
  V  V13  1  0.74513822  0.63226403  0.37441281  1
  V  V14  1  0.87632355  0.12440225  0.74202428  1
  V  V15  1  0.62296863  -0.00774782  0.62593929  1
  V  V16  1  0.49228804  0.00045683  0.49940469  1
  V  V17  1  0.12822024  0.87540901  0.25201392  1
  V  V18  1  0.24795668  0.38791766  0.12512790  1
  V  V19  1  0.12956497  0.76294615  0.87942649  1
  V  V20  1  0.87769635  0.24838408  0.12162614  1
  V  V21  1  0.00388513  0.76908038  0.75769395  1
  V  V22  1  0.01160311  0.50593897  0.50626585  1
  V  V23  1  0.38123584  0.75190997  0.13434830  1
  V  V24  1  0.37572365  0.24939711  0.64009078  1
  V  V25  1  0.12707742  0.74855191  0.38647228  1
  V  V26  1  0.37874786  0.12694829  0.25195192  1
  V  V27  1  0.87770378  0.74558545  0.12442489  1
  V  V28  1  0.50015078  0.12965973  0.12762164  1
  V  V29  1  0.00131389  0.87505813  0.37716463  1
  V  V30  1  0.62006439  0.50496263  0.62143900  1
  V  V31  1  0.87649720  0.74789037  0.62447285  1
  V  V32  1  0.25093459  0.62004000  0.87802546  1
  V  V33  1  0.25276345  0.75775154  0.50558153  1
  V  V34  1  0.75098498  0.13220425  0.37968351  1
  V  V35  1  0.12662581  -0.00351081  0.63749935  1
  V  V36  1  0.12851769  0.12196015  -0.00199651  1
  V  V37  1  0.37470263  0.37488808  0.49978082  1
  V  V38  1  0.62038879  0.63008010  0.49629861  1
  V  V39  1  0.75065783  0.75008906  -0.00172201  1
  V  V40  1  0.87576975  0.37253069  -0.00333855  1
  V  V41  1  0.61852699  0.25134493  0.87078158  1
  V  V42  1  0.75095178  0.49774864  0.74538790  1
  V  V43  1  0.75065949  0.24891502  -0.00387533  1
  V  V44  1  0.74999197  0.49769956  0.25058597  1
  V  V45  1  0.74954751  0.12233059  0.87126986  1
  V  V46  1  0.88965357  0.88000922  -0.00145139  1
  V  V47  1  0.87168065  0.24787514  0.61692817  1
  V  V48  1  0.12599957  -0.00308464  0.12197099  1
  V  V49  1  0.62099767  0.86080441  0.25496339  1
  V  V50  1  0.00566816  0.25024970  0.24866872  1
  V  V51  1  0.62395672  0.49810678  0.12271519  1
  V  V52  1  0.38639747  0.74907806  0.63028716  1
  V  V53  1  0.62323192  0.75338129  0.85859667  1
  V  V54  1  0.87436902  -0.00013611  0.37555526  1
  V  V55  1  0.01043758  0.50117164  0.00375378  1
  V  V56  1  0.74872984  0.87403962  0.12505179  1
  V  V57  1  0.87566520  0.12234144  0.24950591  1
  V  V58  1  0.25416291  0.87813124  0.64195474  1
  V  V59  1  0.24938633  0.50864849  0.73688160  1
  V  V60  1  0.37729764  -0.00267184  0.37618937  1
  V  V61  1  0.12627031  0.12447136  0.50325843  1
  V  V62  1  0.50465807  0.87150740  0.86230740  1
  V  V63  1  0.62385121  0.62557837  -0.00260322  1
  V  V64  1  0.49819400  0.86159324  0.37627501  1
  V  V65  1  0.37428152  0.86681215  -0.00320381  1
  V  V66  1  0.88321629  0.62281756  0.74884499  1
  V  V67  1  0.00234661  0.11820265  0.12255470  1
  V  V68  1  0.62365357  -0.00125275  0.12838343  1
  V  V69  1  0.00213575  0.74824303  0.25108984  1
  V  V70  1  0.49678365  0.12808976  0.63798902  1
  V  V71  1  0.61993400  0.36462635  0.24793898  1
  V  V72  1  0.00245644  0.00536909  0.50481953  1
  V  V73  1  0.75098394  0.62466555  0.87302513  1
  V  V74  1  0.62569143  0.13142673  0.50225021  1
  V  V75  1  0.75032697  0.37364458  0.12433107  1
  V  V76  1  0.24965357  0.24951876  -0.00044778  1
  V  V77  1  0.24977071  0.61941498  0.37529048  1
  V  V78  1  0.12709318  0.39062211  0.24423283  1
  V  V79  1  0.87508084  0.50192326  0.37778605  1
  V  V80  1  0.74636188  -0.00856009  0.75034832  1
  V  V81  1  0.74650116  0.37011626  0.61247239  1
  V  V82  1  0.00057920  0.24742962  0.74473097  1
  V  V83  1  0.00181086  0.37536490  0.37594244  1
  V  V84  1  0.49873028  -0.00328586  -0.00115188  1
  Zn  Zn85  1  0.24904803  0.12316588  0.85911908  1
  Zn  Zn86  1  0.45695090  0.32688658  0.82179147  1
  Zn  Zn87  1  0.37023892  0.49577789  0.36638490  1
  Zn  Zn88  1  0.12358448  0.24832504  0.87135384  1
  Zn  Zn89  1  0.74445668  0.86890039  0.63112663  1
  Zn  Zn90  1  0.88665920  -0.01310254  0.86943705  1
  Zn  Zn91  1  0.62615737  0.12417344  -0.00050075  1
  Zn  Zn92  1  0.25100913  0.12399478  0.37381293  1
  Zn  Zn93  1  0.87506272  0.62421079  0.24981130  1
  Zn  Zn94  1  0.62654900  0.24963243  0.37657740  1
  Zn  Zn95  1  0.13649070  0.62833509  0.00648454  1
  Zn  Zn96  1  0.37271582  0.62170894  0.25099682  1
  Zn  Zn97  1  0.74772805  -0.00053954  0.25277863  1
  Zn  Zn98  1  0.24391229  0.37953003  0.61890145  1
  Zn  Zn99  1  0.01332560  0.61724119  0.13108268  1
  Zn  Zn100  1  0.37510494  0.37743383  -0.01081176  1
  Zn  Zn101  1  0.00233606  0.37049069  0.87532934  1
  Zn  Zn102  1  0.01421760  0.62653646  0.62541275  1
  Zn  Zn103  1  0.25333591  -0.00050538  0.25026058  1
  Zn  Zn104  1  0.87317310  0.37185770  0.49750510  1
  Zn  Zn105  1  0.74508612  0.75234482  0.49765810  1
  Zn  Zn106  1  0.12778295  0.24754291  0.37475063  1
  Zn  Zn107  1  0.19173048  0.18812925  0.18749322  1
  Zn  Zn108  1  0.18296901  0.19195150  0.68178898  1
  Zn  Zn109  1  0.18911490  0.68723877  0.18905226  1
  Zn  Zn110  1  0.18742198  0.69618411  0.69482974  1
  Zn  Zn111  1  0.69013600  0.18500116  0.18751615  1
  Zn  Zn112  1  0.68594952  0.18566072  0.68619432  1
  Zn  Zn113  1  0.68887360  0.68472478  0.18646234  1
  Zn  Zn114  1  0.69112499  0.68345051  0.68292050  1
  Zn  Zn115  1  0.31013261  0.31208853  0.30938283  1
  Zn  Zn116  1  0.29392771  0.31635909  0.81341899  1
  Zn  Zn117  1  0.31327769  0.81139524  0.31266844  1
  Zn  Zn118  1  0.31333098  0.80960582  0.81573288  1
  Zn  Zn119  1  0.81542644  0.31114944  0.31114127  1
  Zn  Zn120  1  0.80835263  0.31036005  0.80723365  1
  Zn  Zn121  1  0.81141698  0.81331201  0.31099614  1
  Zn  Zn122  1  0.81597590  0.81029521  0.81497804  1
  Zn  Zn123  1  0.18743534  0.43169492  0.43305785  1
  Zn  Zn124  1  0.19159266  0.43577618  0.92940878  1
  Zn  Zn125  1  0.19269956  0.93733466  0.44258726  1
  Zn  Zn126  1  0.19084101  0.93775528  0.93972548  1
  Zn  Zn127  1  0.68327238  0.44001199  0.43447949  1
  Zn  Zn128  1  0.68460652  0.43619274  0.93393470  1
  Zn  Zn129  1  0.68483521  0.94199811  0.43752120  1
  Zn  Zn130  1  0.68960452  0.93563990  0.93804900  1
  Zn  Zn131  1  0.31309885  0.05801471  0.06160960  1
  Zn  Zn132  1  0.31084930  0.06455623  0.68415594  1
  Zn  Zn133  1  0.31864379  0.56572813  0.06194614  1
  Zn  Zn134  1  0.18812103  0.57170494  0.55832227  1
  Zn  Zn135  1  0.81093102  0.06053821  0.06133243  1
  Zn  Zn136  1  0.80789360  0.06039501  0.56283323  1
  Zn  Zn137  1  0.81516585  0.56164036  0.06155681  1
  Zn  Zn138  1  0.81263110  0.56238014  0.55989137  1
  Zn  Zn139  1  0.43621468  0.44099509  0.18587210  1
  Zn  Zn140  1  0.43181313  0.44775098  0.68056105  1
  Zn  Zn141  1  0.44006863  0.93700526  0.19092856  1
  Zn  Zn142  1  0.44037987  0.93225513  0.68477367  1
  Zn  Zn143  1  0.93797776  0.43719444  0.18721267  1
  Zn  Zn144  1  0.93650468  0.43334609  0.68380931  1
  Zn  Zn145  1  0.93828098  0.93502209  0.18589594  1
  Zn  Zn146  1  0.93590721  0.94051276  0.68354297  1
  Zn  Zn147  1  0.06482639  0.06106136  0.31348718  1
  Zn  Zn148  1  0.05833114  0.06107955  0.81293214  1
  Zn  Zn149  1  0.06426723  0.56697468  0.31782627  1
  Zn  Zn150  1  0.06442136  0.56430184  0.81971465  1
  Zn  Zn151  1  0.56211988  0.06261907  0.31243247  1
  Zn  Zn152  1  0.56445146  0.05777127  0.81305132  1
  Zn  Zn153  1  0.56129496  0.55549578  0.31287729  1
  Zn  Zn154  1  0.56527231  0.56247279  0.81012844  1
  Zn  Zn155  1  0.43805483  0.18613164  0.44288904  1
  Zn  Zn156  1  0.43603531  0.18355082  0.94312033  1
  Zn  Zn157  1  0.42887458  0.68581339  0.44607800  1
  Zn  Zn158  1  0.43838475  0.68613735  0.93597511  1
  Zn  Zn159  1  0.94017870  0.18653745  0.43760517  1
  Zn  Zn160  1  0.95517481  0.15470064  0.91754837  1
  Zn  Zn161  1  0.93724458  0.68537148  0.43781230  1
  Zn  Zn162  1  0.94186626  0.68730733  0.93714781  1
  Zn  Zn163  1  0.06494163  0.31250310  0.06164160  1
  Zn  Zn164  1  0.05964955  0.31185954  0.56312766  1
  Zn  Zn165  1  0.06547526  0.80682479  0.06357379  1
  Zn  Zn166  1  0.06244816  0.81657575  0.56909115  1
  Zn  Zn167  1  0.56226357  0.31155909  0.05790350  1
  Zn  Zn168  1  0.55777516  0.31185002  0.56315265  1
  Zn  Zn169  1  0.56297008  0.81109545  0.05821713  1
  Zn  Zn170  1  0.55972357  0.81348638  0.55796955  1
  O  O171  1  0.12153381  0.11560097  0.12358558  1
  O  O172  1  0.13006018  0.11021582  0.61156510  1
  O  O173  1  0.12506285  0.63243688  0.11859523  1
  O  O174  1  0.12579480  0.63190810  0.62806259  1
  O  O175  1  0.61785648  0.11742925  0.12483876  1
  O  O176  1  0.61980620  0.11620754  0.61826836  1
  O  O177  1  0.62113454  0.61991907  0.11700576  1
  O  O178  1  0.63045150  0.61151803  0.61584114  1
  O  O179  1  0.38033473  0.37184938  0.38120121  1
  O  O180  1  0.37123440  0.36927917  0.87636261  1
  O  O181  1  0.39047935  0.88230240  0.36602144  1
  O  O182  1  0.38220895  0.88122463  0.88064958  1
  O  O183  1  0.88595540  0.38039657  0.37452105  1
  O  O184  1  0.87337591  0.37813220  0.88101821  1
  O  O185  1  0.88057173  0.87903593  0.38144609  1
  O  O186  1  0.87454407  0.87240603  0.89283119  1
  O  O187  1  0.26606263  -0.00090806  0.37589550  1
  O  O188  1  0.26631229  0.00069965  0.87791413  1
  O  O189  1  0.24663489  0.51589360  0.38105810  1
  O  O190  1  0.24580521  0.51471075  0.86118135  1
  O  O191  1  0.75712679  0.00989538  0.37367565  1
  O  O192  1  0.75342824  0.00663889  0.86908426  1
  O  O193  1  0.75827666  0.50448013  0.37026852  1
  O  O194  1  0.75522645  0.50446721  0.86688708  1
  O  O195  1  0.25560339  0.48628896  0.11804438  1
  O  O196  1  0.24606429  0.50067382  0.63287600  1
  O  O197  1  0.24476423  0.98822906  0.12786496  1
  O  O198  1  0.24257748  0.98733918  0.62597531  1
  O  O199  1  0.74530713  0.49411839  0.12940835  1
  O  O200  1  0.74398363  0.49214885  0.62688110  1
  O  O201  1  0.74006227  0.99328964  0.12684279  1
  O  O202  1  0.74095255  0.99571488  0.63238174  1
  O  O203  1  0.00545667  0.36796936  0.25407965  1
  O  O204  1  0.00687761  0.37171155  0.75159279  1
  O  O205  1  0.00515151  0.86521435  0.25531743  1
  O  O206  1  -0.00860904  0.86730858  0.75586479  1
  O  O207  1  0.50914485  0.37711649  0.25564876  1
  O  O208  1  0.51382027  0.38513073  0.74161969  1
  O  O209  1  0.51217758  0.87641759  0.26085657  1
  O  O210  1  0.50291804  0.87838275  0.76304662  1
  O  O211  1  0.49029554  0.12210121  0.24066249  1
  O  O212  1  0.50643631  0.12080097  0.73690693  1
  O  O213  1  0.50677566  0.62263247  0.23603461  1
  O  O214  1  0.48391717  0.62205733  0.75702394  1
  O  O215  1  0.99772002  0.13111415  0.24268924  1
  O  O216  1  0.98759144  0.13414206  0.74485939  1
  O  O217  1  0.99743567  0.63689943  0.25198047  1
  O  O218  1  0.98983193  0.62475502  0.75004959  1
  O  O219  1  0.36778563  0.24835147  0.01139125  1
  O  O220  1  0.36797663  0.25557257  0.50517380  1
  O  O221  1  0.38182595  0.76296020  0.00695480  1
  O  O222  1  0.36593948  0.74717749  0.51971680  1
  O  O223  1  0.87150914  0.26103576  0.00154457  1
  O  O224  1  0.88066011  0.25054445  0.51227660  1
  O  O225  1  0.87233072  0.75521364  0.00674441  1
  O  O226  1  0.87777930  0.75702407  0.50848167  1
  O  O227  1  0.12958611  0.24181960  0.50167793  1
  O  O228  1  0.13345605  0.24179002  1.00072271  1
  O  O229  1  0.12645152  0.75911429  0.49073659  1
  O  O230  1  0.11638995  0.74564090  0.98287459  1
  O  O231  1  0.62171301  0.23565012  0.50072842  1
  O  O232  1  0.63329996  0.24803608  0.99108338  1
  O  O233  1  0.62582104  0.73453008  0.50627868  1
  O  O234  1  0.63338817  0.74158034  0.99525473  1
  O  O235  1  0.49338093  0.23706370  0.11643395  1
  O  O236  1  0.48897600  0.24000898  0.62027895  1
  O  O237  1  0.49431353  0.73984588  0.11755676  1
  O  O238  1  0.48509258  0.76053994  0.62567069  1
  O  O239  1  0.99596050  0.24509782  0.13232056  1
  O  O240  1  0.98719621  0.25718992  0.63521623  1
  O  O241  1  0.99350672  0.74882946  0.13529923  1
  O  O242  1  0.99324275  0.75175185  0.63944494  1
  O  O243  1  0.00130912  0.25820406  0.36740027  1
  O  O244  1  -0.00031769  0.24840208  0.85962437  1
  O  O245  1  0.00637843  0.75423438  0.37156004  1
  O  O246  1  0.00832241  0.74599445  0.86324310  1
  O  O247  1  0.50288056  0.26137945  0.37972440  1
  O  O248  1  0.51288369  0.24245718  0.87899793  1
  O  O249  1  0.49390861  0.76315431  0.38291669  1
  O  O250  1  0.51155946  0.75890733  0.88100766  1
  O  O251  1  0.24249007  0.13761982  0.49668545  1
  O  O252  1  0.24056682  0.13068712  1.00554579  1
  O  O253  1  0.24487455  0.64261237  0.48627673  1
  O  O254  1  0.25532071  0.62000713  0.98265608  1
  O  O255  1  0.73982862  0.11942994  0.49134931  1
  O  O256  1  0.75014306  0.12963742  0.99002674  1
  O  O257  1  0.74160379  0.62424294  0.49077701  1
  O  O258  1  0.74632681  0.62961946  0.99361376  1
  O  O259  1  0.24916337  0.36802814  0.00838226  1
  O  O260  1  0.25667181  0.36628075  0.49819322  1
  O  O261  1  0.26230649  0.87835053  0.00911512  1
  O  O262  1  0.24888520  0.86332856  0.50943045  1
  O  O263  1  0.75627538  0.37062676  0.00424247  1
  O  O264  1  0.74895880  0.37810541  0.50869354  1
  O  O265  1  0.75322994  0.86579375  0.00854611  1
  O  O266  1  0.76172044  0.87410664  0.49711985  1
  O  O267  1  0.11554666  0.48940964  0.25053987  1
  O  O268  1  0.12629752  0.49132391  0.75251845  1
  O  O269  1  0.12758930  0.99372922  0.24048643  1
  O  O270  1  0.12013851  1.00527915  0.73640786  1
  O  O271  1  0.63114028  0.48798856  0.24203194  1
  O  O272  1  0.63075128  0.49661107  0.73950277  1
  O  O273  1  0.62395061  0.99400211  0.23873353  1
  O  O274  1  0.63395601  1.00149765  0.73972666  1
  O  O275  1  0.37652854  0.00800025  0.25751080  1
  O  O276  1  0.37799842  -0.00192175  0.76065473  1
  O  O277  1  0.38046180  0.50749137  0.25444900  1
  O  O278  1  0.36478424  0.51735983  0.74273674  1
  O  O279  1  0.87521681  0.00465114  0.25605529  1
  O  O280  1  0.86869480  0.00850006  0.74939133  1
  O  O281  1  0.87174473  0.49982863  0.26119306  1
  O  O282  1  0.87215681  0.50442812  0.75288067  1
  O  O283  1  0.11538731  0.37152931  0.36460372  1
  O  O284  1  0.12425313  0.36970855  0.85967255  1
  O  O285  1  0.11979768  0.87224166  0.37154810  1
  O  O286  1  0.12914719  0.86298318  0.87970641  1
  O  O287  1  0.61933175  0.37131042  0.36555939  1
  O  O288  1  0.62838133  0.36477599  0.86248971  1
  O  O289  1  0.61691643  0.87874455  0.36240565  1
  O  O290  1  0.61770923  0.86523456  0.88065720  1
  O  O291  1  0.38207063  0.12858210  0.13037240  1
  O  O292  1  0.38457645  0.13565366  0.62742469  1
  O  O293  1  0.38440373  0.63532959  0.12534293  1
  O  O294  1  0.37440598  0.64241350  0.64035688  1
  O  O295  1  0.88392424  0.12720914  0.12728621  1
  O  O296  1  0.86472257  0.13209485  0.63378614  1
  O  O297  1  0.87656392  0.63648128  0.12696750  1
  O  O298  1  0.87930029  0.63307330  0.63022729  1
  O  O299  1  0.25740310  0.25574285  0.11678335  1
  O  O300  1  0.25890606  0.25566170  0.61553052  1
  O  O301  1  0.26118160  0.76193930  0.12772874  1
  O  O302  1  0.25295324  0.76332837  0.62348541  1
  O  O303  1  0.75810042  0.25194427  0.11732853  1
  O  O304  1  0.75651945  0.25920268  0.62884314  1
  O  O305  1  0.75848933  0.75380943  0.12076061  1
  O  O306  1  0.76269813  0.75134544  0.62170646  1
  O  O307  1  0.24766540  0.24787868  0.38287530  1
  O  O308  1  0.24646397  0.24344660  0.88968355  1
  O  O309  1  0.24402568  0.75212365  0.38461465  1
  O  O310  1  0.23527522  0.74168611  0.86823327  1
  O  O311  1  0.75166716  0.23673263  0.37198961  1
  O  O312  1  0.73860001  0.24408458  0.87657339  1
  O  O313  1  0.75497667  0.73619950  0.37603788  1
  O  O314  1  0.74514480  0.74398549  0.87945955  1
  O  O315  1  0.01470636  0.13698623  0.01809903  1
  O  O316  1  0.00633571  0.11204920  0.49727273  1
  O  O317  1  -0.00289065  0.60834063  0.00075145  1
  O  O318  1  -0.00116473  0.60947116  0.49985478  1
  O  O319  1  0.50278809  0.11135717  0.00782659  1
  O  O320  1  0.50784115  0.11691666  0.50664327  1
  O  O321  1  0.50652077  0.61605144  0.00467062  1
  O  O322  1  0.50664996  0.61351221  0.49041824  1
  O  O323  1  0.49307270  0.37887939  0.49218169  1
  O  O324  1  0.49996804  0.39003892  1.00357825  1
  O  O325  1  0.50913289  0.88508868  0.48249149  1
  O  O326  1  0.49512547  0.88487017  0.99574366  1
  O  O327  1  0.99972436  0.38423720  0.49052147  1
  O  O328  1  0.99300982  0.38145921  0.99826258  1
  O  O329  1  0.98990079  0.88303066  0.49744291  1
  O  O330  1  0.98793383  0.87355899  1.00813963  1
  O  O331  1  0.50238196  0.48478272  0.38346594  1
  O  O332  1  0.50930514  0.50160296  0.88919180  1
  O  O333  1  0.49368463  0.99587500  0.37948186  1
  O  O334  1  0.49414251  0.99388940  0.88234085  1
  O  O335  1  0.99476570  0.49514123  0.38252073  1
  O  O336  1  0.99161923  0.49625775  0.88569378  1
  O  O337  1  0.99474051  0.99384827  0.38266716  1
  O  O338  1  0.98061423  1.04380547  0.88926814  1
  O  O339  1  0.01009358  0.00811069  0.13045753  1
  O  O340  1  0.01434464  -0.00752836  0.61662518  1
  O  O341  1  -0.00676698  0.49981820  0.10895973  1
  O  O342  1  -0.00677465  0.49994794  0.60771888  1
  O  O343  1  0.50465025  0.00654686  0.11918136  1
  O  O344  1  0.50443522  0.00408141  0.61765435  1
  O  O345  1  0.50888355  0.50765453  0.11573138  1
  O  O346  1  0.50891104  0.49637262  0.60944225  1
  O  O347  1  0.24111541  0.37142712  0.23550723  1
  O  O348  1  0.23608354  0.38705325  0.74388475  1
  O  O349  1  0.24452499  0.87659719  0.24305824  1
  O  O350  1  0.24909762  0.87326472  0.74072955  1
  O  O351  1  0.74594825  0.37850736  0.24377805  1
  O  O352  1  0.73939990  0.38111362  0.73924535  1
  O  O353  1  0.73803174  0.87699963  0.24571356  1
  O  O354  1  0.75851116  0.88727981  0.75125661  1
  O  O355  1  0.26396684  0.12227344  0.25143811  1
  O  O356  1  0.25099401  0.13361624  0.74733913  1
  O  O357  1  0.25258697  0.63762146  0.27070266  1
  O  O358  1  0.25563959  0.62230647  0.75678719  1
  O  O359  1  0.75893288  0.12179498  0.25617578  1
  O  O360  1  0.75203887  0.11342153  0.75338178  1
  O  O361  1  0.75047022  0.61616589  0.25670549  1
  O  O362  1  0.76355983  0.61801827  0.75151027  1
  O  O363  1  0.37846439  0.11827936  0.36723274  1
  O  O364  1  0.37583273  0.10776778  0.87971083  1
  O  O365  1  0.36064356  0.62628456  0.37575145  1
  O  O366  1  0.36069889  0.63847343  0.86233653  1
  O  O367  1  0.87045489  0.11991946  0.37118341  1
  O  O368  1  0.85544420  0.13850388  0.85706272  1
  O  O369  1  0.86709236  0.61688451  0.37360678  1
  O  O370  1  0.87038892  0.61982083  0.86759516  1
  O  O371  1  0.13845478  0.37261910  0.12980018  1
  O  O372  1  0.12344150  0.37345058  0.63835797  1
  O  O373  1  0.13310807  0.87809090  0.12806814  1
  O  O374  1  0.13620673  0.88817262  0.62330537  1
  O  O375  1  0.63064034  0.37700886  0.12938957  1
  O  O376  1  0.62982275  0.38175847  0.62669558  1
  O  O377  1  0.62533090  0.87998738  0.13483134  1
  O  O378  1  0.62658972  0.88740383  0.61682000  1
  O  O379  1  0.11461653  0.25309955  0.24873194  1
  O  O380  1  0.11447587  0.25949328  0.74704283  1
  O  O381  1  0.11777049  0.75755716  0.26066412  1
  O  O382  1  0.10983791  0.75349723  0.76150421  1
  O  O383  1  0.63001908  0.26124005  0.24941352  1
  O  O384  1  0.62775475  0.25947267  0.75596095  1
  O  O385  1  0.62687320  0.76238966  0.24627896  1
  O  O386  1  0.63223645  0.74497763  0.75931687  1
  O  O387  1  0.37234439  0.24306777  0.23648049  1
  O  O388  1  0.37663551  0.26634811  0.74071067  1
  O  O389  1  0.37889674  0.74999585  0.23746654  1
  O  O390  1  0.37182555  0.74309714  0.74148364  1
  O  O391  1  0.88737250  0.24392074  0.24388619  1
  O  O392  1  0.87811958  0.24532346  0.73869308  1
  O  O393  1  0.88321083  0.75079198  0.24255408  1
  O  O394  1  0.88469296  0.74300930  0.74630114  1
  O  O395  1  0.38417728  0.48781438  0.49039191  1
  O  O396  1  0.39109837  0.49998352  1.00007315  1
  O  O397  1  0.39055265  1.00290138  0.49138552  1
  O  O398  1  0.38310750  0.99052908  0.99351881  1
  O  O399  1  0.88142146  0.49676950  0.48829997  1
  O  O400  1  0.87792487  0.48754923  0.99498396  1
  O  O401  1  0.88255351  0.99412624  0.49863532  1
  O  O402  1  0.87016653  0.98128997  1.00466450  1
  O  O403  1  0.13017589  0.00634117  0.01329663  1
  O  O404  1  0.11916259  0.00476609  0.50478135  1
  O  O405  1  0.11175224  0.49764011  -0.00753242  1
  O  O406  1  0.11556415  0.49736211  0.49813051  1
  O  O407  1  0.61856012  -0.00180208  0.01173607  1
  O  O408  1  0.61697959  0.00948287  0.50605659  1
  O  O409  1  0.62191856  0.50573243  0.00461554  1
  O  O410  1  0.61775849  0.50638713  0.50464292  1
  O  O411  1  0.36597098  0.36750165  0.12179595  1
  O  O412  1  0.37430502  0.37036685  0.61179277  1
  O  O413  1  0.37274777  0.87098055  0.11967882  1
  O  O414  1  0.36246709  0.86711330  0.63102695  1
  O  O415  1  0.86971235  0.36862994  0.11789073  1
  O  O416  1  0.86314626  0.36736741  0.62185248  1
  O  O417  1  0.87050573  0.86411450  0.11916540  1
  O  O418  1  0.87285911  0.86690421  0.61736197  1
  O  O419  1  0.12751927  0.12425850  0.38679666  1
  O  O420  1  0.12962347  0.12472030  0.88644225  1
  O  O421  1  0.13475076  0.63770269  0.37360864  1
  O  O422  1  0.13784035  0.63231456  0.87803185  1
  O  O423  1  0.63256015  0.12603678  0.38102070  1
  O  O424  1  0.63464387  0.12961436  0.87494011  1
  O  O425  1  0.63410470  0.61571468  0.38259794  1
  O  O426  1  0.63251008  0.63130272  0.87801434  1
