# generated using pymatgen
data_V85Zn86O256
_symmetry_space_group_name_H-M   'P 1'
_cell_length_a   17.00436858
_cell_length_b   16.99111998
_cell_length_c   16.99675903
_cell_angle_alpha   89.97591639
_cell_angle_beta   89.92069525
_cell_angle_gamma   89.97017326
_symmetry_Int_Tables_number   1
_chemical_formula_structural   V85Zn86O256
_chemical_formula_sum   'V85 Zn86 O256'
_cell_volume   4910.75333905
_cell_formula_units_Z   1
loop_
 _symmetry_equiv_pos_site_id
 _symmetry_equiv_pos_as_xyz
  1  'x, y, z'
loop_
 _atom_site_type_symbol
 _atom_site_label
 _atom_site_symmetry_multiplicity
 _atom_site_fract_x
 _atom_site_fract_y
 _atom_site_fract_z
 _atom_site_occupancy
  V  V0  1  0.11838066  0.62584884  0.00647092  1
  V  V1  1  0.74243609  0.50192800  0.74987239  1
  V  V2  1  0.11938305  0.73145209  0.37709365  1
  V  V3  1  0.74563417  0.36678856  0.62956904  1
  V  V4  1  0.12490709  0.50116322  0.13623663  1
  V  V5  1  0.61737603  -0.00438662  0.62031800  1
  V  V6  1  0.75050512  0.87408826  0.12940746  1
  V  V7  1  0.00119399  0.37725059  0.87370833  1
  V  V8  1  0.37247956  0.75537124  0.62095502  1
  V  V9  1  0.37589454  0.74935134  0.13166183  1
  V  V10  1  0.86060364  0.36132472  0.49879896  1
  V  V11  1  0.92849406  0.04684150  0.81897500  1
  V  V12  1  0.75080268  0.49806984  0.25478466  1
  V  V13  1  0.00248981  0.25683864  0.26361151  1
  V  V14  1  0.38045331  0.25363615  0.62362037  1
  V  V15  1  0.62252278  0.50197668  0.62258863  1
  V  V16  1  0.24686316  0.12834387  0.88090492  1
  V  V17  1  0.12207785  0.74927052  0.87413998  1
  V  V18  1  0.87522862  0.37205246  0.00130558  1
  V  V19  1  0.74945320  0.24921624  0.00070664  1
  V  V20  1  0.62221591  0.62672264  0.00451111  1
  V  V21  1  -0.00095299  0.74588600  0.74909162  1
  V  V22  1  0.87401501  0.12160658  0.25220692  1
  V  V23  1  0.88564611  0.49647436  0.37876384  1
  V  V24  1  0.12145041  0.36333303  0.74763208  1
  V  V25  1  0.25049047  0.37112988  0.12583099  1
  V  V26  1  0.61806696  0.36800639  0.25100505  1
  V  V27  1  0.87216225  0.87834758  -0.00211458  1
  V  V28  1  0.50270386  0.24744998  0.74843722  1
  V  V29  1  0.74989219  0.62546050  0.37991799  1
  V  V30  1  0.61852855  0.13080811  0.51409184  1
  V  V31  1  -0.00118880  0.12925586  0.12148007  1
  V  V32  1  0.49712289  0.75635477  0.74924676  1
  V  V33  1  0.61944959  0.12587939  0.00033535  1
  V  V34  1  0.87266920  0.88478381  0.49817347  1
  V  V35  1  0.49882216  0.00137118  0.00461987  1
  V  V36  1  0.26792334  0.51115519  0.24316443  1
  V  V37  1  0.88246988  0.62100690  0.24654130  1
  V  V38  1  0.37307514  0.62837958  0.74991473  1
  V  V39  1  -0.00277092  0.74414936  0.24326046  1
  V  V40  1  0.37447640  0.50060298  0.87477382  1
  V  V41  1  0.24812515  0.87689560  0.12507505  1
  V  V42  1  0.38994963  0.24176282  0.12845080  1
  V  V43  1  0.62315367  0.75297030  0.37611760  1
  V  V44  1  0.74910992  0.37319184  0.12623516  1
  V  V45  1  0.00210849  0.62200381  0.61362187  1
  V  V46  1  -0.00188818  0.50344015  0.00836497  1
  V  V47  1  0.26725467  0.63126634  0.36688370  1
  V  V48  1  0.62379478  0.50192939  0.12887132  1
  V  V49  1  0.12508346  0.25192433  0.88774135  1
  V  V50  1  0.75231196  0.11737058  0.87259249  1
  V  V51  1  0.62241754  0.24788950  0.37602776  1
  V  V52  1  0.75253794  0.00058789  0.25839455  1
  V  V53  1  0.74824648  0.75081562  0.00367356  1
  V  V54  1  0.37341841  0.37511703  -0.00025799  1
  V  V55  1  0.25286260  0.37335628  0.61910020  1
  V  V56  1  0.62648966  0.00547850  0.12708484  1
  V  V57  1  -0.00310273  0.48019347  0.50791683  1
  V  V58  1  0.63082255  0.87292325  0.74685976  1
  V  V59  1  0.87610408  0.61953566  0.74937235  1
  V  V60  1  0.12085468  0.87040064  0.24981439  1
  V  V61  1  0.37687760  0.12458401  0.74712734  1
  V  V62  1  0.25216465  0.00363604  0.26440971  1
  V  V63  1  0.11900394  0.01230993  0.61010990  1
  V  V64  1  0.37550298  0.00316351  0.87242874  1
  V  V65  1  0.24488745  0.49901974  0.74946075  1
  V  V66  1  0.75153985  0.12736538  0.38520380  1
  V  V67  1  0.62285990  0.75121770  0.87570119  1
  V  V68  1  0.37316353  0.87547463  -0.00225737  1
  V  V69  1  0.24105175  0.00028068  0.75278537  1
  V  V70  1  0.62526961  0.25158513  0.86844111  1
  V  V71  1  0.12537556  0.00759097  0.12024817  1
  V  V72  1  0.49411994  0.88705669  0.38448056  1
  V  V73  1  0.24368773  0.74403892  0.49922512  1
  V  V74  1  0.12509741  0.50044032  0.61477682  1
  V  V75  1  0.50419843  0.37695814  0.87152441  1
  V  V76  1  -0.00328200  0.87963800  0.37950734  1
  V  V77  1  0.24719872  0.62614079  0.87458550  1
  V  V78  1  -0.00237601  0.00523947  0.00133088  1
  V  V79  1  0.74889694  0.62523516  0.87592836  1
  V  V80  1  0.75132662  -0.00280467  0.74740830  1
  V  V81  1  0.86922601  0.74947977  0.61922727  1
  V  V82  1  -0.00595704  0.87149167  0.87603962  1
  V  V83  1  0.24262520  0.87678608  0.62335798  1
  V  V84  1  0.24826782  0.75143398  -0.00185434  1
  Zn  Zn85  1  0.11261603  0.13944193  0.46776653  1
  Zn  Zn86  1  0.87553956  0.25046685  0.12700329  1
  Zn  Zn87  1  0.49459593  0.75347253  0.25640373  1
  Zn  Zn88  1  0.15121006  0.35001599  0.28194662  1
  Zn  Zn89  1  0.24966209  0.24122494  0.00709562  1
  Zn  Zn90  1  0.62197549  0.87820910  0.25494380  1
  Zn  Zn91  1  0.48988547  0.62136751  0.13230960  1
  Zn  Zn92  1  0.87578261  0.74233613  0.12401552  1
  Zn  Zn93  1  0.49995362  0.50282990  -0.00077242  1
  Zn  Zn94  1  0.38547720  0.13423336  0.27209883  1
  Zn  Zn95  1  0.96140189  0.15415739  0.61994152  1
  Zn  Zn96  1  0.50056493  0.87748159  0.87500628  1
  Zn  Zn97  1  0.37046939  0.89064962  0.49604229  1
  Zn  Zn98  1  0.87424489  0.50165046  0.87738555  1
  Zn  Zn99  1  0.62176073  0.62968448  0.50106461  1
  Zn  Zn100  1  0.38074166  0.50038020  0.37609248  1
  Zn  Zn101  1  0.38114409  0.37868217  0.49687884  1
  Zn  Zn102  1  0.49759482  0.50475518  0.49464278  1
  Zn  Zn103  1  0.74948453  0.75572333  0.50179120  1
  Zn  Zn104  1  0.49961667  0.62806288  0.62448903  1
  Zn  Zn105  1  0.11907185  0.87857210  0.74973143  1
  Zn  Zn106  1  0.50263271  0.37792264  0.37971715  1
  Zn  Zn107  1  0.19021871  0.18200934  0.30298314  1
  Zn  Zn108  1  0.20830334  0.18711913  0.58354104  1
  Zn  Zn109  1  0.18617373  0.68802455  0.18741222  1
  Zn  Zn110  1  0.18372418  0.68573693  0.68599371  1
  Zn  Zn111  1  0.68699854  0.18684135  0.18912803  1
  Zn  Zn112  1  0.79192363  0.18766566  0.68887569  1
  Zn  Zn113  1  0.68465366  0.68657496  0.19563435  1
  Zn  Zn114  1  0.68809301  0.68671790  0.68636756  1
  Zn  Zn115  1  0.32623405  0.31567463  0.30970995  1
  Zn  Zn116  1  0.31121993  0.31157764  0.81082912  1
  Zn  Zn117  1  0.31142772  0.82055973  0.31374964  1
  Zn  Zn118  1  0.31101869  0.81747693  0.81100141  1
  Zn  Zn119  1  0.81154998  0.30748756  0.31385858  1
  Zn  Zn120  1  0.79923681  0.32483995  0.82100673  1
  Zn  Zn121  1  0.81301197  0.80965615  0.31428792  1
  Zn  Zn122  1  0.81227832  0.80945742  0.81191204  1
  Zn  Zn123  1  0.18103489  0.33398610  0.43966961  1
  Zn  Zn124  1  0.18592896  0.43980668  0.94042160  1
  Zn  Zn125  1  0.17669047  0.93178660  0.44033691  1
  Zn  Zn126  1  0.18215122  0.93884164  0.93551964  1
  Zn  Zn127  1  0.68629743  0.43833499  0.43859548  1
  Zn  Zn128  1  0.68566352  0.43970058  0.93872579  1
  Zn  Zn129  1  0.68581452  0.93748359  0.43994590  1
  Zn  Zn130  1  0.68718910  0.93756202  0.93551867  1
  Zn  Zn131  1  0.31083476  0.06305212  0.06370992  1
  Zn  Zn132  1  0.30308747  0.07111976  0.44608392  1
  Zn  Zn133  1  0.31049863  0.56506563  0.05863094  1
  Zn  Zn134  1  0.31344810  0.56555667  0.55894405  1
  Zn  Zn135  1  0.81278763  0.06232873  0.06260264  1
  Zn  Zn136  1  0.80570695  0.05100125  0.56298218  1
  Zn  Zn137  1  0.80930845  0.56039052  0.06438545  1
  Zn  Zn138  1  0.81299482  0.55972359  0.56320963  1
  Zn  Zn139  1  0.44067242  0.43458281  0.18549745  1
  Zn  Zn140  1  0.43933454  0.43757323  0.69089860  1
  Zn  Zn141  1  0.45836396  0.97272844  0.21772911  1
  Zn  Zn142  1  0.44044280  1.05416167  0.57126602  1
  Zn  Zn143  1  0.93740878  0.43814425  0.18708855  1
  Zn  Zn144  1  0.93180108  0.33385710  0.68936287  1
  Zn  Zn145  1  0.93458575  0.93515596  0.18830239  1
  Zn  Zn146  1  0.94064891  0.92999435  0.67960456  1
  Zn  Zn147  1  0.05520086  0.05386474  0.30018956  1
  Zn  Zn148  1  0.10655348  0.13286528  0.75210123  1
  Zn  Zn149  1  0.11908167  0.51479657  0.36560533  1
  Zn  Zn150  1  0.06102944  0.55919115  0.81318827  1
  Zn  Zn151  1  0.56258206  0.06802079  0.31736978  1
  Zn  Zn152  1  0.56352950  0.06188524  0.81092852  1
  Zn  Zn153  1  0.55711266  0.56973418  0.31070827  1
  Zn  Zn154  1  0.56060749  0.56701911  0.81061344  1
  Zn  Zn155  1  0.44364793  0.19064311  0.43971212  1
  Zn  Zn156  1  0.43683887  0.18937416  0.93977949  1
  Zn  Zn157  1  0.44154886  0.69250993  0.44388402  1
  Zn  Zn158  1  0.43779137  0.68844414  0.93948498  1
  Zn  Zn159  1  0.93341107  0.18103897  0.43442272  1
  Zn  Zn160  1  0.93650572  0.20823070  0.81754421  1
  Zn  Zn161  1  0.93647871  0.68434437  0.43516777  1
  Zn  Zn162  1  0.93446314  0.68747757  0.93977336  1
  Zn  Zn163  1  0.06390855  0.31575890  0.06821953  1
  Zn  Zn164  1  0.04221671  0.28050665  0.55075329  1
  Zn  Zn165  1  0.06064961  0.81429016  0.06270756  1
  Zn  Zn166  1  0.06101700  0.80992952  0.56030488  1
  Zn  Zn167  1  0.56199064  0.31558807  0.05784644  1
  Zn  Zn168  1  0.56661959  0.31555693  0.56238271  1
  Zn  Zn169  1  0.56091786  0.81926043  0.06436737  1
  Zn  Zn170  1  0.56109381  0.81534519  0.56052967  1
  O  O171  1  0.11172824  0.10847162  0.12555651  1
  O  O172  1  0.12682290  0.11460784  0.64062082  1
  O  O173  1  0.12863373  0.62055413  0.11127155  1
  O  O174  1  0.11307669  0.61297805  0.63196568  1
  O  O175  1  0.63340576  0.11316430  0.11516175  1
  O  O176  1  0.63624160  0.11533398  0.61201703  1
  O  O177  1  0.63177824  0.61658920  0.11812688  1
  O  O178  1  0.62563944  0.61537922  0.62355659  1
  O  O179  1  0.38418692  0.38025096  0.37719242  1
  O  O180  1  0.37911759  0.38149285  0.88118982  1
  O  O181  1  0.38855647  0.87208573  0.37824298  1
  O  O182  1  0.37464454  0.88613672  0.88037698  1
  O  O183  1  0.86167872  0.38337310  0.38983443  1
  O  O184  1  0.88167601  0.38113154  0.88414085  1
  O  O185  1  0.88745407  0.86448747  0.38546607  1
  O  O186  1  0.88122044  0.86504903  0.88636781  1
  O  O187  1  0.24450168  -0.01024517  0.36673528  1
  O  O188  1  0.25659573  0.00500478  0.87373645  1
  O  O189  1  0.25343224  0.51884941  0.35660892  1
  O  O190  1  0.25260803  0.50628115  0.86815056  1
  O  O191  1  0.74261832  0.00545468  0.36202244  1
  O  O192  1  0.74689643  0.00633774  0.86565069  1
  O  O193  1  0.75738922  0.50630869  0.37184843  1
  O  O194  1  0.74875150  0.50653543  0.86788149  1
  O  O195  1  0.24488083  0.49927244  0.12700929  1
  O  O196  1  0.24310225  0.49828711  0.63270144  1
  O  O197  1  0.24020729  0.99145595  0.12130548  1
  O  O198  1  0.22941464  0.98812056  0.63772766  1
  O  O199  1  0.73977033  0.49258742  0.13067211  1
  O  O200  1  0.74039854  0.49935314  0.63309511  1
  O  O201  1  0.74445541  0.99326955  0.13151943  1
  O  O202  1  0.73716803  0.99667127  0.64255101  1
  O  O203  1  -0.01045476  0.35538661  0.24333863  1
  O  O204  1  0.00929550  0.38678196  0.76334386  1
  O  O205  1  -0.00004305  0.86395782  0.25756754  1
  O  O206  1  -0.00183985  0.86345676  0.75825715  1
  O  O207  1  0.51678944  0.37678769  0.24888747  1
  O  O208  1  0.49534740  0.36739570  0.76639033  1
  O  O209  1  0.50313242  0.87535359  0.26472699  1
  O  O210  1  0.51360910  0.86132694  0.75516022  1
  O  O211  1  0.48138844  0.08211915  0.24390181  1
  O  O212  1  0.49009365  0.13659246  0.76461953  1
  O  O213  1  0.51417264  0.64227421  0.23897847  1
  O  O214  1  0.49266747  0.63912251  0.74755725  1
  O  O215  1  0.98955187  0.13085615  0.23895505  1
  O  O216  1  0.98934345  0.11563315  0.76666578  1
  O  O217  1  0.98437485  0.63056753  0.25355773  1
  O  O218  1  0.99132794  0.62607818  0.74507921  1
  O  O219  1  0.37124677  0.26050401  0.00511694  1
  O  O220  1  0.38745151  0.25367589  0.52196377  1
  O  O221  1  0.36660540  0.75818118  0.00071986  1
  O  O222  1  0.36359658  0.75408944  0.50887346  1
  O  O223  1  0.86588888  0.26665888  0.00255409  1
  O  O224  1  0.86740662  0.26350597  0.49296532  1
  O  O225  1  0.86676030  0.75737249  0.00521999  1
  O  O226  1  0.87493751  0.75223989  0.50697435  1
  O  O227  1  0.14129013  0.25394255  0.50940262  1
  O  O228  1  0.13117330  0.25997543  0.99112191  1
  O  O229  1  0.13012255  0.74998707  0.48871029  1
  O  O230  1  0.12630128  0.74298755  0.99512920  1
  O  O231  1  0.62739254  0.23603720  0.49793702  1
  O  O232  1  0.62920342  0.24133812  0.99517437  1
  O  O233  1  0.63090440  0.75085723  0.49204343  1
  O  O234  1  0.62872399  0.74526290  0.99883940  1
  O  O235  1  0.48842490  0.25204214  0.11698086  1
  O  O236  1  0.49957590  0.26062186  0.64423758  1
  O  O237  1  0.48131600  0.75943210  0.12228706  1
  O  O238  1  0.48819208  0.75384428  0.63210618  1
  O  O239  1  0.99758638  0.23595318  0.11809646  1
  O  O240  1  1.00285681  0.25502279  0.65244433  1
  O  O241  1  0.99809002  0.75367238  0.13896621  1
  O  O242  1  0.99354417  0.73969698  0.62952637  1
  O  O243  1  -0.00439646  0.24983990  0.36198424  1
  O  O244  1  0.00929772  0.26803145  0.88024553  1
  O  O245  1  0.00541028  0.74874460  0.36506088  1
  O  O246  1  0.00334643  0.75131717  0.87033350  1
  O  O247  1  0.51867391  0.25300408  0.37807619  1
  O  O248  1  0.50583693  0.25834582  0.87331913  1
  O  O249  1  0.50991518  0.75809516  0.37603115  1
  O  O250  1  0.50575480  0.75045719  0.86784925  1
  O  O251  1  0.21753796  0.10714734  0.50877549  1
  O  O252  1  0.25006111  0.12340656  0.98585023  1
  O  O253  1  0.25223167  0.63863490  0.48875614  1
  O  O254  1  0.23978499  0.63133747  0.99181110  1
  O  O255  1  0.74066945  0.11250878  0.48770384  1
  O  O256  1  0.74370612  0.12618341  0.99036075  1
  O  O257  1  0.75305285  0.62543903  0.48786311  1
  O  O258  1  0.74015220  0.62917896  0.99622646  1
  O  O259  1  0.26315496  0.38225248  0.00586137  1
  O  O260  1  0.25805258  0.37916745  0.51788065  1
  O  O261  1  0.25044948  0.87000324  0.00452786  1
  O  O262  1  0.24642522  0.86446214  0.50775015  1
  O  O263  1  0.75552925  0.37310771  0.00557957  1
  O  O264  1  0.75444090  0.37952187  0.51348619  1
  O  O265  1  0.75490454  0.87204968  0.00688374  1
  O  O266  1  0.76845890  0.87405496  0.49213118  1
  O  O267  1  0.13422330  0.51185219  0.23637647  1
  O  O268  1  0.13461188  0.49555842  0.74740064  1
  O  O269  1  0.13565589  0.98940291  0.23826047  1
  O  O270  1  0.13926637  1.00199091  0.76415469  1
  O  O271  1  0.63304306  0.49331241  0.24281999  1
  O  O272  1  0.63595606  0.51039698  0.74281630  1
  O  O273  1  0.63524305  0.99979895  0.24065866  1
  O  O274  1  0.63100010  0.99064941  0.74705859  1
  O  O275  1  0.34566564  -0.02348714  0.24204050  1
  O  O276  1  0.36746099  0.00813270  0.76557015  1
  O  O277  1  0.37003956  0.50553985  0.24258618  1
  O  O278  1  0.36300038  0.50654663  0.75443035  1
  O  O279  1  0.86661711  0.01165127  0.24333499  1
  O  O280  1  0.86859211  -0.01202072  0.75293920  1
  O  O281  1  0.87246249  0.50324813  0.25969525  1
  O  O282  1  0.86126952  0.51537384  0.75274353  1
  O  O283  1  0.11885122  0.40410031  0.37505871  1
  O  O284  1  0.11882254  0.37429886  0.87140031  1
  O  O285  1  0.11098111  0.86136070  0.36998930  1
  O  O286  1  0.11359890  0.86474093  0.87506278  1
  O  O287  1  0.63157220  0.36624864  0.36629726  1
  O  O288  1  0.61566640  0.36540481  0.88491740  1
  O  O289  1  0.61802288  0.86852723  0.37843056  1
  O  O290  1  0.62334805  0.86716571  0.86830354  1
  O  O291  1  0.37170186  0.14308173  0.11565678  1
  O  O292  1  0.38076437  0.13448611  0.64260541  1
  O  O293  1  0.37403815  0.64521306  0.11274987  1
  O  O294  1  0.36966697  0.63970298  0.63444587  1
  O  O295  1  0.88178115  0.12599159  0.13066085  1
  O  O296  1  0.85915494  0.11823321  0.63300501  1
  O  O297  1  0.86495724  0.62435777  0.13970449  1
  O  O298  1  0.88205611  0.62874160  0.63199441  1
  O  O299  1  0.25849414  0.26880940  0.12215407  1
  O  O300  1  0.26716482  0.26254912  0.64022062  1
  O  O301  1  0.25329146  0.75655003  0.11724667  1
  O  O302  1  0.24867355  0.75254915  0.61713437  1
  O  O303  1  0.75007418  0.25602061  0.11794061  1
  O  O304  1  0.73222958  0.26963489  0.63493789  1
  O  O305  1  0.74704255  0.75899706  0.12153423  1
  O  O306  1  0.76572046  0.74524726  0.62418194  1
  O  O307  1  0.22817690  0.27752071  0.34775219  1
  O  O308  1  0.24449744  0.24463906  0.87955664  1
  O  O309  1  0.24090940  0.74727649  0.37871935  1
  O  O310  1  0.24241500  0.74649856  0.87863504  1
  O  O311  1  0.73986475  0.23565908  0.37108063  1
  O  O312  1  0.74142068  0.24359832  0.88253390  1
  O  O313  1  0.74506588  0.74152035  0.37769202  1
  O  O314  1  0.74267246  0.74386585  0.88331469  1
  O  O315  1  -0.00949274  0.10617052  0.00814849  1
  O  O316  1  0.00685892  0.15667806  0.51372438  1
  O  O317  1  0.00604841  0.61627483  -0.00284904  1
  O  O318  1  -0.00839626  0.61387232  0.51162940  1
  O  O319  1  0.51244418  0.11823400  -0.00479895  1
  O  O320  1  0.51480895  0.12394112  0.50761930  1
  O  O321  1  0.51249089  0.62637135  0.00609620  1
  O  O322  1  0.50373191  0.62366737  0.50860568  1
  O  O323  1  0.50210620  0.38361271  0.50098841  1
  O  O324  1  0.48929935  0.37877031  0.98974641  1
  O  O325  1  0.49235851  0.87113335  0.48975499  1
  O  O326  1  0.49277313  0.88391794  0.99522408  1
  O  O327  1  0.98031236  0.37715740  0.51126001  1
  O  O328  1  0.99180322  0.38280071  0.99789967  1
  O  O329  1  0.99213736  0.86638620  0.48553029  1
  O  O330  1  0.98930757  0.87826878  0.99638295  1
  O  O331  1  0.50084768  0.49887020  0.37481169  1
  O  O332  1  0.49506937  0.49442780  0.87411992  1
  O  O333  1  0.50986854  0.98487486  0.38256658  1
  O  O334  1  0.49224251  1.00051240  0.88496475  1
  O  O335  1  0.98782848  0.50441214  0.39216717  1
  O  O336  1  1.00013083  0.49237640  0.88928033  1
  O  O337  1  0.99853239  0.97733623  0.36509465  1
  O  O338  1  0.99203320  0.98935716  0.88446220  1
  O  O339  1  0.00402412  0.00193032  0.12052070  1
  O  O340  1  0.02494889  -0.00383283  0.64273898  1
  O  O341  1  0.00856954  0.49541340  0.11555569  1
  O  O342  1  0.00679058  0.50585664  0.61886279  1
  O  O343  1  0.51269831  -0.00896334  0.11009663  1
  O  O344  1  0.52058566  0.00832883  0.63994530  1
  O  O345  1  0.51320721  0.50150914  0.12199786  1
  O  O346  1  0.51649666  0.50274177  0.63630021  1
  O  O347  1  0.25299505  0.39420538  0.23608488  1
  O  O348  1  0.24230465  0.38459263  0.74849470  1
  O  O349  1  0.23648819  0.87313248  0.24104133  1
  O  O350  1  0.24469003  0.88299505  0.74428192  1
  O  O351  1  0.74628059  0.37944284  0.24312082  1
  O  O352  1  0.75089976  0.39064395  0.73966221  1
  O  O353  1  0.75226661  0.88308126  0.24428956  1
  O  O354  1  0.73791784  0.87843253  0.75685483  1
  O  O355  1  0.26112002  0.10520806  0.24866670  1
  O  O356  1  0.26095389  0.11537456  0.76478474  1
  O  O357  1  0.25255650  0.62417008  0.25385728  1
  O  O358  1  0.25239830  0.61919929  0.75611781  1
  O  O359  1  0.75612337  0.11776484  0.25514713  1
  O  O360  1  0.74448241  0.11329690  0.76534264  1
  O  O361  1  0.75644946  0.61767588  0.26244449  1
  O  O362  1  0.75605998  0.62323014  0.75721928  1
  O  O363  1  0.36349806  0.14158228  0.38227954  1
  O  O364  1  0.36880607  0.12037534  0.87302322  1
  O  O365  1  0.36855234  0.63229431  0.37425482  1
  O  O366  1  0.36860661  0.62045292  0.87036523  1
  O  O367  1  0.86377142  0.12486483  0.36543904  1
  O  O368  1  0.86905437  0.11901196  0.87104376  1
  O  O369  1  0.86876835  0.61483674  0.36880565  1
  O  O370  1  0.86786889  0.62399196  0.86847199  1
  O  O371  1  0.13700110  0.38770754  0.12101518  1
  O  O372  1  0.13616892  0.38535797  0.63732823  1
  O  O373  1  0.13242300  0.87812662  0.12834149  1
  O  O374  1  0.13133369  0.87313964  0.62880040  1
  O  O375  1  0.63048564  0.38088653  0.12887595  1
  O  O376  1  0.63601983  0.39128741  0.62403550  1
  O  O377  1  0.63642385  0.88570838  0.12503359  1
  O  O378  1  0.62231957  0.88584114  0.63237328  1
  O  O379  1  0.10497070  0.25077790  0.24094378  1
  O  O380  1  0.12893452  0.26312156  0.76555211  1
  O  O381  1  0.11497440  0.75065694  0.25628342  1
  O  O382  1  0.11547897  0.74796713  0.75760037  1
  O  O383  1  0.63047367  0.25732268  0.25868827  1
  O  O384  1  0.61683203  0.24575545  0.76793428  1
  O  O385  1  0.63083051  0.75902744  0.26597311  1
  O  O386  1  0.62010391  0.75475566  0.75263041  1
  O  O387  1  0.37857948  0.24799304  0.23254155  1
  O  O388  1  0.38440138  0.24291769  0.75089063  1
  O  O389  1  0.37034034  0.75739255  0.23311387  1
  O  O390  1  0.38129746  0.74928526  0.74670153  1
  O  O391  1  0.88018667  0.23781031  0.24662704  1
  O  O392  1  0.86181994  0.26000216  0.75195530  1
  O  O393  1  0.88058692  0.74035004  0.24898729  1
  O  O394  1  0.87969523  0.73998725  0.74315456  1
  O  O395  1  0.37814341  0.49950563  0.49797824  1
  O  O396  1  0.37839322  0.49609786  0.99246024  1
  O  O397  1  0.36629742  1.00187377  0.51131481  1
  O  O398  1  0.38195169  0.99719209  0.99432459  1
  O  O399  1  0.87880696  0.49012473  0.49677919  1
  O  O400  1  0.88142386  0.49308570  1.00165419  1
  O  O401  1  0.87934437  0.98332273  0.50345739  1
  O  O402  1  0.87934641  0.98478101  1.00614880  1
  O  O403  1  0.10976685  -0.01041739  0.00877290  1
  O  O404  1  0.11009597  -0.00661749  0.51196256  1
  O  O405  1  0.11722440  0.50830616  0.00795078  1
  O  O406  1  0.11314439  0.49502330  0.51300643  1
  O  O407  1  0.61927594  0.00663604  0.00367976  1
  O  O408  1  0.62835372  0.00350224  0.51572455  1
  O  O409  1  0.62440894  0.51003854  0.00879208  1
  O  O410  1  0.62726222  0.50561374  0.51455410  1
  O  O411  1  0.37273845  0.37118763  0.11571133  1
  O  O412  1  0.36822358  0.36910260  0.63428092  1
  O  O413  1  0.35758856  0.86477208  0.11414379  1
  O  O414  1  0.35386633  0.86055251  0.62742286  1
  O  O415  1  0.86541544  0.37598965  0.11841726  1
  O  O416  1  0.85515358  0.37718283  0.61434547  1
  O  O417  1  0.86260958  0.87132918  0.11960126  1
  O  O418  1  0.88481883  0.86298086  0.60729630  1
  O  O419  1  0.12070864  0.11727210  0.35973159  1
  O  O420  1  0.13369883  0.14262424  0.86506723  1
  O  O421  1  0.13427431  0.62971691  0.37304758  1
  O  O422  1  0.12711111  0.62991008  0.88390468  1
  O  O423  1  0.63038161  0.12932371  0.38523589  1
  O  O424  1  0.63254693  0.12987875  0.88389611  1
  O  O425  1  0.63488828  0.63411865  0.37777455  1
  O  O426  1  0.62820696  0.63113654  0.88455424  1
