# generated using pymatgen
data_V85Zn86O256
_symmetry_space_group_name_H-M   'P 1'
_cell_length_a   16.93356342
_cell_length_b   16.93821370
_cell_length_c   16.93712965
_cell_angle_alpha   89.90359247
_cell_angle_beta   90.03599324
_cell_angle_gamma   90.01919016
_symmetry_Int_Tables_number   1
_chemical_formula_structural   V85Zn86O256
_chemical_formula_sum   'V85 Zn86 O256'
_cell_volume   4857.97252035
_cell_formula_units_Z   1
loop_
 _symmetry_equiv_pos_site_id
 _symmetry_equiv_pos_as_xyz
  1  'x, y, z'
loop_
 _atom_site_type_symbol
 _atom_site_label
 _atom_site_symmetry_multiplicity
 _atom_site_fract_x
 _atom_site_fract_y
 _atom_site_fract_z
 _atom_site_occupancy
  V  V0  1  0.00225763  0.00459175  0.50250494  1
  V  V1  1  0.87582739  0.74863469  0.62648380  1
  V  V2  1  0.50530696  0.13338227  0.13022370  1
  V  V3  1  0.74755120  0.61364687  0.37551034  1
  V  V4  1  0.25137898  0.87361943  0.12345003  1
  V  V5  1  0.23703543  0.37857212  0.13027940  1
  V  V6  1  0.00231118  0.62370744  0.62203274  1
  V  V7  1  0.37492243  0.00157919  0.87545620  1
  V  V8  1  0.74927170  0.36908603  0.62080769  1
  V  V9  1  0.23445262  0.24384726  0.49751072  1
  V  V10  1  0.75199157  0.62702944  0.88177012  1
  V  V11  1  0.50382367  0.37171809  0.87803209  1
  V  V12  1  0.73589684  0.24925353  -0.00185038  1
  V  V13  1  0.50698080  0.76021836  0.25383650  1
  V  V14  1  0.00762142  0.61608033  0.12152477  1
  V  V15  1  0.37707245  0.74882725  0.12511865  1
  V  V16  1  0.24727285  0.37581439  0.61980617  1
  V  V17  1  0.62424671  0.12612236  0.49610378  1
  V  V18  1  0.12762110  0.87644555  0.74852688  1
  V  V19  1  0.12339543  0.87512991  0.24563980  1
  V  V20  1  0.61699531  0.49920526  0.62835975  1
  V  V21  1  0.50050130  0.12361894  0.62324168  1
  V  V22  1  0.62910116  0.74934576  0.88021454  1
  V  V23  1  0.87605968  0.12528033  0.24824591  1
  V  V24  1  0.38067083  0.87076248  0.49001714  1
  V  V25  1  0.75130116  0.12504042  0.37392323  1
  V  V26  1  0.62309544  -0.00032937  0.11222492  1
  V  V27  1  0.88431547  0.49549883  0.87558817  1
  V  V28  1  0.36962748  0.62801693  0.75521219  1
  V  V29  1  0.87157250  0.24992894  0.12553467  1
  V  V30  1  0.38178803  0.49806428  0.38864351  1
  V  V31  1  0.61706458  0.24438250  0.35469113  1
  V  V32  1  0.74490955  0.86949447  0.11920640  1
  V  V33  1  0.87154050  0.74787234  0.11820421  1
  V  V34  1  0.02164784  0.37257226  0.37253104  1
  V  V35  1  0.24624375  0.49749032  0.74999607  1
  V  V36  1  0.87415609  0.62563041  0.75130658  1
  V  V37  1  0.75022136  0.74647949  0.49984085  1
  V  V38  1  0.87091541  0.49078484  0.37466304  1
  V  V39  1  0.75122398  0.87432108  0.62805757  1
  V  V40  1  0.25222251  0.74209889  -0.00317902  1
  V  V41  1  0.61983452  0.62476314  0.50273794  1
  V  V42  1  -0.00214287  0.13585615  0.62044596  1
  V  V43  1  0.74676715  0.38818788  0.13010727  1
  V  V44  1  0.87707884  0.13412113  0.75422299  1
  V  V45  1  0.87528624  0.87510366  0.50121188  1
  V  V46  1  0.24779115  0.62608596  0.37588648  1
  V  V47  1  0.38078513  0.00517969  0.36637667  1
  V  V48  1  0.00256131  0.26509324  0.75336878  1
  V  V49  1  0.62649640  -0.00116875  0.62504758  1
  V  V50  1  0.87387674  0.00013228  0.37344823  1
  V  V51  1  0.74044071  -0.00320330  0.24499865  1
  V  V52  1  0.12372070  0.75342460  0.37570540  1
  V  V53  1  0.74599364  0.49794156  0.75296901  1
  V  V54  1  -0.00614452  0.74970213  0.24783532  1
  V  V55  1  0.00107377  0.12242370  0.12078970  1
  V  V56  1  0.00116095  0.75109181  0.75069325  1
  V  V57  1  0.50249675  0.24967858  0.75522790  1
  V  V58  1  0.37748128  0.24749368  0.14531840  1
  V  V59  1  0.25768540  0.87715246  0.62122724  1
  V  V60  1  0.37547245  0.62262654  0.25120720  1
  V  V61  1  0.01617533  0.25248187  0.25235088  1
  V  V62  1  0.73804889  0.12749319  0.87923229  1
  V  V63  1  0.25377238  0.00789867  0.24719667  1
  V  V64  1  0.37341517  0.12976250  0.74682636  1
  V  V65  1  -0.00108535  0.88377082  0.87387969  1
  V  V66  1  0.87426167  0.87980288  -0.00353851  1
  V  V67  1  0.49300944  0.62606964  0.62554207  1
  V  V68  1  0.23721928  0.49914697  0.25017047  1
  V  V69  1  0.25247848  0.24667225  -0.00077892  1
  V  V70  1  0.62806478  0.61939307  0.00458449  1
  V  V71  1  0.50256313  0.87605167  0.87850391  1
  V  V72  1  0.25010584  0.75326406  0.50404502  1
  V  V73  1  0.37799163  0.25661460  0.61208495  1
  V  V74  1  0.62082456  0.39506740  0.25036743  1
  V  V75  1  0.50498578  0.61675116  0.12716854  1
  V  V76  1  0.86899426  0.61952209  0.24862234  1
  V  V77  1  -0.00489800  0.87516920  0.37262622  1
  V  V78  1  0.87881397  0.37202554  -0.00268316  1
  V  V79  1  0.75750294  0.00160794  0.75469838  1
  V  V80  1  0.37774232  0.37424147  0.00852653  1
  V  V81  1  0.49650858  0.75017958  0.74922570  1
  V  V82  1  0.12835248  0.74388672  0.87572641  1
  V  V83  1  0.37189773  0.50273458  0.87849948  1
  V  V84  1  0.25099938  0.00174014  0.74715630  1
  Zn  Zn85  1  0.62670890  0.87476972  0.75186942  1
  Zn  Zn86  1  0.37677182  0.87673727  0.00074542  1
  Zn  Zn87  1  0.50428571  0.49718816  0.00521850  1
  Zn  Zn88  1  -0.00036702  0.00466643  -0.00737606  1
  Zn  Zn89  1  0.12602393  0.00735328  0.62436409  1
  Zn  Zn90  1  0.24579906  0.12410387  0.87569271  1
  Zn  Zn91  1  0.00948629  0.48757804  0.00247925  1
  Zn  Zn92  1  0.12080172  0.49385480  0.62661378  1
  Zn  Zn93  1  0.50212306  0.01299620  -0.00467786  1
  Zn  Zn94  1  0.12537202  0.12309214  -0.00499779  1
  Zn  Zn95  1  0.12636940  -0.00000349  0.11847519  1
  Zn  Zn96  1  0.75243001  0.24758253  0.50184956  1
  Zn  Zn97  1  0.62614958  0.36778590  0.75665347  1
  Zn  Zn98  1  0.50334110  -0.00747108  0.49236150  1
  Zn  Zn99  1  0.61563076  0.76139071  0.37787685  1
  Zn  Zn100  1  0.11488272  0.25733491  0.87612189  1
  Zn  Zn101  1  0.00226414  0.49834951  0.49863342  1
  Zn  Zn102  1  0.48880764  0.36314048  0.38292297  1
  Zn  Zn103  1  0.12399529  0.62337089  0.50057433  1
  Zn  Zn104  1  0.13341000  0.61339315  -0.00228094  1
  Zn  Zn105  1  0.88007134  0.36926611  0.50206244  1
  Zn  Zn106  1  0.24216223  0.13516555  0.37009015  1
  Zn  Zn107  1  0.18901342  0.18667032  0.18073479  1
  Zn  Zn108  1  0.18380777  0.19099404  0.68534389  1
  Zn  Zn109  1  0.18672014  0.68844278  0.18827217  1
  Zn  Zn110  1  0.18927615  0.68919051  0.68657724  1
  Zn  Zn111  1  0.68862890  0.18363530  0.18114506  1
  Zn  Zn112  1  0.68509165  0.18624918  0.69010135  1
  Zn  Zn113  1  0.68818451  0.68636099  0.18859506  1
  Zn  Zn114  1  0.68459732  0.68658042  0.69201290  1
  Zn  Zn115  1  0.30468284  0.31954812  0.31880028  1
  Zn  Zn116  1  0.28578764  0.32912734  0.82861048  1
  Zn  Zn117  1  0.31364760  0.81375117  0.31254550  1
  Zn  Zn118  1  0.31352410  0.81373188  0.81343624  1
  Zn  Zn119  1  0.80712014  0.30955440  0.30962659  1
  Zn  Zn120  1  0.81272338  0.31043212  0.81256965  1
  Zn  Zn121  1  0.77941782  0.82482901  0.32421890  1
  Zn  Zn122  1  0.81291022  0.81261177  0.81525391  1
  Zn  Zn123  1  0.19299948  0.44150682  0.44509907  1
  Zn  Zn124  1  0.18388343  0.43299606  0.93601784  1
  Zn  Zn125  1  0.17240443  0.97067728  0.41797880  1
  Zn  Zn126  1  0.18613900  0.93656387  0.93824137  1
  Zn  Zn127  1  0.64748919  0.42169446  0.45242423  1
  Zn  Zn128  1  0.68931767  0.43659234  0.93997574  1
  Zn  Zn129  1  0.68553202  0.93663499  0.43752218  1
  Zn  Zn130  1  0.69150729  0.93878817  0.93647764  1
  Zn  Zn131  1  0.31961749  0.06505544  0.06424896  1
  Zn  Zn132  1  0.31538607  0.06086132  0.55704135  1
  Zn  Zn133  1  0.31321610  0.55926406  0.06619976  1
  Zn  Zn134  1  0.31094087  0.56653080  0.56496286  1
  Zn  Zn135  1  0.81326644  0.06139903  0.05747963  1
  Zn  Zn136  1  0.81658607  0.06633833  0.56498656  1
  Zn  Zn137  1  0.81754782  0.56149023  0.05871483  1
  Zn  Zn138  1  0.81224790  0.55501039  0.56137903  1
  Zn  Zn139  1  0.43587471  0.43779757  0.19627369  1
  Zn  Zn140  1  0.43219557  0.43532598  0.68957592  1
  Zn  Zn141  1  0.44046906  0.93947133  0.18375720  1
  Zn  Zn142  1  0.43787529  0.93590131  0.68679504  1
  Zn  Zn143  1  0.93669099  0.43566106  0.19229460  1
  Zn  Zn144  1  0.93070985  0.44119163  0.68477181  1
  Zn  Zn145  1  0.93159170  0.93758597  0.18492996  1
  Zn  Zn146  1  0.93709817  0.94191357  0.68867556  1
  Zn  Zn147  1  0.06538358  0.06580331  0.30829734  1
  Zn  Zn148  1  0.06627386  0.06936058  0.81089474  1
  Zn  Zn149  1  0.05757918  0.56407768  0.31475929  1
  Zn  Zn150  1  0.06424446  0.56239578  0.81142004  1
  Zn  Zn151  1  0.56006542  0.05919581  0.30549582  1
  Zn  Zn152  1  0.56383348  0.06160903  0.80946218  1
  Zn  Zn153  1  0.56131305  0.56927016  0.31628539  1
  Zn  Zn154  1  0.55886356  0.56129898  0.81659414  1
  Zn  Zn155  1  0.43747952  0.18050661  0.43378791  1
  Zn  Zn156  1  0.43466266  0.18981882  0.94235420  1
  Zn  Zn157  1  0.43626574  0.68790625  0.43634796  1
  Zn  Zn158  1  0.43976195  0.68695950  0.93883331  1
  Zn  Zn159  1  0.93617906  0.19533504  0.43812511  1
  Zn  Zn160  1  0.93302971  0.18938349  0.93370178  1
  Zn  Zn161  1  0.93368299  0.68566227  0.43580657  1
  Zn  Zn162  1  0.93992229  0.69030240  0.93906405  1
  Zn  Zn163  1  0.06308954  0.30621674  0.06304984  1
  Zn  Zn164  1  0.06171295  0.31403930  0.56411521  1
  Zn  Zn165  1  0.06164217  0.80889099  0.05952908  1
  Zn  Zn166  1  0.06540319  0.81654717  0.56317371  1
  Zn  Zn167  1  0.56122589  0.31405886  0.07156939  1
  Zn  Zn168  1  0.56146033  0.31177990  0.56104844  1
  Zn  Zn169  1  0.56389683  0.80842970  0.06259501  1
  Zn  Zn170  1  0.56202240  0.81022929  0.56617957  1
  O  O171  1  0.11396479  0.12344026  0.12042483  1
  O  O172  1  0.10301534  0.12350053  0.63168073  1
  O  O173  1  0.10968900  0.63021322  0.12408810  1
  O  O174  1  0.11045461  0.62887214  0.62647892  1
  O  O175  1  0.61357735  0.11790470  0.12400434  1
  O  O176  1  0.62333034  0.11751030  0.61597139  1
  O  O177  1  0.61862804  0.62991867  0.11638704  1
  O  O178  1  0.61489067  0.62105011  0.62367091  1
  O  O179  1  0.37627657  0.39282552  0.37184081  1
  O  O180  1  0.38140893  0.38197595  0.88879201  1
  O  O181  1  0.37779432  0.87857143  0.38591677  1
  O  O182  1  0.38412922  0.88667423  0.87297048  1
  O  O183  1  0.86708247  0.38632642  0.37007517  1
  O  O184  1  0.86543043  0.38355680  0.88559521  1
  O  O185  1  0.87468110  0.88023467  0.38021619  1
  O  O186  1  0.88538745  0.86681667  0.88406555  1
  O  O187  1  0.26849826  -0.01891088  0.35745623  1
  O  O188  1  0.25925869  0.00022340  0.86692750  1
  O  O189  1  0.25759057  0.50715542  0.36928879  1
  O  O190  1  0.26500775  0.49699958  0.86563155  1
  O  O191  1  0.75300518  0.00943205  0.36478860  1
  O  O192  1  0.74784683  0.01330518  0.86732662  1
  O  O193  1  0.75474899  0.51147178  0.38529837  1
  O  O194  1  0.75616006  0.50643440  0.86930657  1
  O  O195  1  0.25385196  0.48633022  0.13363199  1
  O  O196  1  0.25151683  0.49019972  0.62847501  1
  O  O197  1  0.25529418  0.99032260  0.13059648  1
  O  O198  1  0.24830024  0.99484264  0.62834151  1
  O  O199  1  0.75356949  0.48624919  0.11975907  1
  O  O200  1  0.73843263  0.49644626  0.63505901  1
  O  O201  1  0.74267479  0.99661121  0.12644214  1
  O  O202  1  0.74243124  0.99721167  0.63046925  1
  O  O203  1  -0.00171102  0.36665374  0.26208823  1
  O  O204  1  -0.00800670  0.36320672  0.74106562  1
  O  O205  1  0.00206559  0.87000023  0.25147371  1
  O  O206  1  0.00454777  0.86995068  0.75379181  1
  O  O207  1  0.51709509  0.38188246  0.25837374  1
  O  O208  1  0.49693595  0.36603668  0.76013798  1
  O  O209  1  0.49729017  0.85841237  0.24328508  1
  O  O210  1  0.50145932  0.86797020  0.75965074  1
  O  O211  1  0.49596192  0.11633348  0.22997139  1
  O  O212  1  0.49425986  0.12905697  0.74338635  1
  O  O213  1  0.49288583  0.63114016  0.24412896  1
  O  O214  1  0.49263318  0.63182998  0.74720303  1
  O  O215  1  0.99441754  0.13194491  0.24524833  1
  O  O216  1  0.98836763  0.12989293  0.74369804  1
  O  O217  1  0.99185939  0.62918894  0.23974056  1
  O  O218  1  0.99302846  0.63131287  0.74434400  1
  O  O219  1  0.37362125  0.26253525  0.01611930  1
  O  O220  1  0.37652202  0.24390343  0.51035024  1
  O  O221  1  0.36939254  0.75269390  0.00474485  1
  O  O222  1  0.36678062  0.76253530  0.49421501  1
  O  O223  1  0.86710661  0.25471215  0.00932762  1
  O  O224  1  0.86375530  0.25782595  0.49394545  1
  O  O225  1  0.87871380  0.75720493  0.01203422  1
  O  O226  1  0.86979067  0.75363166  0.50894127  1
  O  O227  1  0.13590549  0.24829235  0.50407915  1
  O  O228  1  0.13902046  0.24875148  0.99931485  1
  O  O229  1  0.13275328  0.75279237  0.49225585  1
  O  O230  1  0.13355138  0.74643302  0.99186385  1
  O  O231  1  0.63165277  0.23341476  0.49340769  1
  O  O232  1  0.63689010  0.25592093  1.00682681  1
  O  O233  1  0.63330533  0.74320000  0.50077526  1
  O  O234  1  0.62060701  0.73843668  0.98688245  1
  O  O235  1  0.49075136  0.24388388  0.13117671  1
  O  O236  1  0.49477431  0.24532516  0.62912742  1
  O  O237  1  0.49480600  0.74106023  0.13256544  1
  O  O238  1  0.50556014  0.74254683  0.64149114  1
  O  O239  1  0.99204658  0.24161338  0.13244693  1
  O  O240  1  0.99658271  0.24096601  0.63056044  1
  O  O241  1  0.99158726  0.74142667  0.12945708  1
  O  O242  1  0.99515423  0.74614040  0.63107328  1
  O  O243  1  -0.00040436  0.26338220  0.36609144  1
  O  O244  1  -0.00393875  0.25357887  0.85937242  1
  O  O245  1  0.00061634  0.75609134  0.36805143  1
  O  O246  1  0.00738023  0.75758644  0.86859592  1
  O  O247  1  0.51123756  0.24631828  0.37638260  1
  O  O248  1  0.48892860  0.25830925  0.86692559  1
  O  O249  1  0.49960238  0.74761832  0.35978996  1
  O  O250  1  0.50668939  0.75606751  0.86805090  1
  O  O251  1  0.25163706  0.14193568  0.50642561  1
  O  O252  1  0.24963611  0.13345556  1.00460578  1
  O  O253  1  0.24880535  0.63728247  0.49622875  1
  O  O254  1  0.25080741  0.63776765  1.00841716  1
  O  O255  1  0.74382509  0.12004333  0.48945040  1
  O  O256  1  0.75489316  0.13147377  0.98594556  1
  O  O257  1  0.74346601  0.63040802  0.50073545  1
  O  O258  1  0.74604371  0.62207752  0.98929623  1
  O  O259  1  0.26047644  0.36984922  0.01670626  1
  O  O260  1  0.25206857  0.36417030  0.51201335  1
  O  O261  1  0.25035648  0.86620854  0.01102483  1
  O  O262  1  0.26050257  0.87111403  0.50482879  1
  O  O263  1  0.75575950  0.36839398  0.00981870  1
  O  O264  1  0.73755586  0.37618937  0.51588036  1
  O  O265  1  0.75899793  0.87689523  0.00827500  1
  O  O266  1  0.75662708  0.86602171  0.50995928  1
  O  O267  1  0.13829622  0.51027389  0.25341980  1
  O  O268  1  0.14215551  0.50696492  0.74814851  1
  O  O269  1  0.13479689  0.98872322  0.24039920  1
  O  O270  1  0.13448782  0.99433336  0.74892353  1
  O  O271  1  0.62868958  0.49334030  0.25847320  1
  O  O272  1  0.63433554  0.50208825  0.74817655  1
  O  O273  1  0.63606096  1.00181378  0.23771600  1
  O  O274  1  0.63734911  0.99986713  0.74146399  1
  O  O275  1  0.37100435  -0.00726901  0.25895577  1
  O  O276  1  0.37116813  0.00915742  0.75273283  1
  O  O277  1  0.36677739  0.51288119  0.25546603  1
  O  O278  1  0.37059879  0.50906838  0.75829940  1
  O  O279  1  0.86721289  0.00728967  0.25409779  1
  O  O280  1  0.86272924  0.01044863  0.74638610  1
  O  O281  1  0.87585340  0.51197613  0.25619610  1
  O  O282  1  0.86316442  0.50535806  0.75660620  1
  O  O283  1  0.11924177  0.38032096  0.37395077  1
  O  O284  1  0.17572683  0.35146871  0.86350166  1
  O  O285  1  0.11481502  0.87386068  0.36540158  1
  O  O286  1  0.11835831  0.86635457  0.86826990  1
  O  O287  1  0.64254552  0.35991655  0.35289365  1
  O  O288  1  0.60884963  0.38100469  0.87594081  1
  O  O289  1  0.67197113  0.85756550  0.36316585  1
  O  O290  1  0.62081047  0.86776506  0.87439014  1
  O  O291  1  0.38020773  0.14242909  0.12865387  1
  O  O292  1  0.38319810  0.12696486  0.62968342  1
  O  O293  1  0.38184775  0.62978857  0.13279921  1
  O  O294  1  0.38772852  0.62077440  0.63394749  1
  O  O295  1  0.87829058  0.13247063  0.12754852  1
  O  O296  1  0.88412717  0.12307241  0.63903975  1
  O  O297  1  0.87816399  0.63012770  0.13011141  1
  O  O298  1  0.88257190  0.62765975  0.63041526  1
  O  O299  1  0.26106157  0.25877047  0.12287281  1
  O  O300  1  0.25718387  0.25838370  0.61990953  1
  O  O301  1  0.25681184  0.75519117  0.12013203  1
  O  O302  1  0.24663456  0.75889372  0.61172821  1
  O  O303  1  0.75690455  0.25397923  0.11768445  1
  O  O304  1  0.74107469  0.26620485  0.62802814  1
  O  O305  1  0.75773514  0.75839547  0.12874621  1
  O  O306  1  0.75400433  0.75106325  0.61909820  1
  O  O307  1  0.25243076  0.25041213  0.39213145  1
  O  O308  1  0.28190220  0.23667191  0.89741410  1
  O  O309  1  0.24452135  0.74755356  0.38256674  1
  O  O310  1  0.24234243  0.75835429  0.88566863  1
  O  O311  1  0.74068247  0.23378043  0.36948411  1
  O  O312  1  0.75249877  0.23862966  0.88251962  1
  O  O313  1  0.76506468  0.73150973  0.39420537  1
  O  O314  1  0.74150713  0.73929722  0.86921005  1
  O  O315  1  -0.00324318  0.12630396  0.00706100  1
  O  O316  1  -0.00958209  0.12013691  0.51242908  1
  O  O317  1  -0.00188878  0.62408083  0.01526924  1
  O  O318  1  -0.00046439  0.62549427  0.50918497  1
  O  O319  1  0.49037410  0.12635939  0.01939563  1
  O  O320  1  0.50873056  0.11661450  0.50473017  1
  O  O321  1  0.50852461  0.62356845  0.00971979  1
  O  O322  1  0.50714167  0.63628368  0.51231844  1
  O  O323  1  0.54083615  0.38514369  0.48117199  1
  O  O324  1  0.49466980  0.37653325  0.99864020  1
  O  O325  1  0.48524973  0.87387606  0.50787736  1
  O  O326  1  0.49962766  0.87302758  0.98633415  1
  O  O327  1  1.00075668  0.37395601  0.48473047  1
  O  O328  1  0.98392830  0.37048220  1.00917092  1
  O  O329  1  0.99075922  0.87984332  0.49560971  1
  O  O330  1  0.99401525  0.87453753  0.98987572  1
  O  O331  1  0.48258104  0.50933277  0.37390504  1
  O  O332  1  0.48838259  0.49153299  0.87749145  1
  O  O333  1  0.48664451  0.99918126  0.37241737  1
  O  O334  1  0.49667623  0.99266343  0.87454268  1
  O  O335  1  0.99207760  0.48565423  0.37239041  1
  O  O336  1  0.98692867  0.50177717  0.87137451  1
  O  O337  1  0.99083451  0.99494188  0.38121880  1
  O  O338  1  1.00359187  0.98684757  0.86892455  1
  O  O339  1  -0.00308128  0.01440562  0.12701222  1
  O  O340  1  -0.00304553  0.01087831  0.61785997  1
  O  O341  1  -0.00642090  0.51318496  0.12554884  1
  O  O342  1  0.00077312  0.50927943  0.62522245  1
  O  O343  1  0.50761696  0.00589692  0.11917573  1
  O  O344  1  0.51469014  0.00235838  0.62647869  1
  O  O345  1  0.49511573  0.51315454  0.12729941  1
  O  O346  1  0.51034906  0.50820847  0.63663594  1
  O  O347  1  0.25101139  0.38378347  0.23915963  1
  O  O348  1  0.26743735  0.38768934  0.73148357  1
  O  O349  1  0.24460381  0.87386796  0.23701155  1
  O  O350  1  0.24998382  0.88056768  0.74055784  1
  O  O351  1  0.74384527  0.37287050  0.23436842  1
  O  O352  1  0.74680225  0.38202604  0.74507690  1
  O  O353  1  0.76450246  0.88850944  0.22883035  1
  O  O354  1  0.75099955  0.88411334  0.74665616  1
  O  O355  1  0.24803521  0.11111900  0.24719599  1
  O  O356  1  0.25824793  0.12185737  0.74780227  1
  O  O357  1  0.25727042  0.62238444  0.25405657  1
  O  O358  1  0.26431208  0.61881917  0.74007076  1
  O  O359  1  0.75575034  0.11605299  0.25272442  1
  O  O360  1  0.75777827  0.12338459  0.75620973  1
  O  O361  1  0.75766198  0.63025140  0.26212304  1
  O  O362  1  0.75428168  0.61803900  0.75953992  1
  O  O363  1  0.36469723  0.10732212  0.37872364  1
  O  O364  1  0.37999189  0.11226786  0.86483768  1
  O  O365  1  0.36700843  0.62092048  0.36865702  1
  O  O366  1  0.38157530  0.61643600  0.86773170  1
  O  O367  1  0.86788216  0.12078149  0.36930461  1
  O  O368  1  0.86721831  0.12578899  0.85908954  1
  O  O369  1  0.87172977  0.61309832  0.36723091  1
  O  O370  1  0.86885066  0.62018211  0.87302730  1
  O  O371  1  0.13883687  0.37015915  0.12490380  1
  O  O372  1  0.14224789  0.37406996  0.62573062  1
  O  O373  1  0.13202870  0.87232131  0.12915441  1
  O  O374  1  0.13725400  0.87695335  0.63278000  1
  O  O375  1  0.63395274  0.37627345  0.13881830  1
  O  O376  1  0.63046576  0.38497845  0.63431758  1
  O  O377  1  0.63443173  0.88166709  0.11819250  1
  O  O378  1  0.63242246  0.88174377  0.62772953  1
  O  O379  1  0.11541148  0.24384291  0.24849883  1
  O  O380  1  0.10461814  0.24868716  0.74660562  1
  O  O381  1  0.11612869  0.75662347  0.25475999  1
  O  O382  1  0.12323481  0.75717401  0.75613065  1
  O  O383  1  0.62530426  0.24676860  0.25300868  1
  O  O384  1  0.60734049  0.24869611  0.74720505  1
  O  O385  1  0.60956629  0.74388384  0.25101618  1
  O  O386  1  0.61731683  0.75057234  0.76271803  1
  O  O387  1  0.36956783  0.25602257  0.24346881  1
  O  O388  1  0.38311775  0.23697396  0.73876793  1
  O  O389  1  0.38081633  0.73985018  0.24641256  1
  O  O390  1  0.38385337  0.74158406  0.75787595  1
  O  O391  1  0.87735125  0.24468163  0.23860538  1
  O  O392  1  0.88162871  0.24065883  0.74866691  1
  O  O393  1  0.88020349  0.73906652  0.23966250  1
  O  O394  1  0.87916864  0.74425234  0.74509921  1
  O  O395  1  0.37081642  0.50682497  0.48695071  1
  O  O396  1  0.37669082  0.49130337  0.99647767  1
  O  O397  1  0.37606603  0.98833982  0.48653240  1
  O  O398  1  0.37764586  0.99694519  0.98877483  1
  O  O399  1  0.87985566  0.49382284  0.48950302  1
  O  O400  1  0.87948380  0.49060265  0.99128398  1
  O  O401  1  0.88122944  0.99493211  0.49519655  1
  O  O402  1  0.88068307  0.98472609  1.00329603  1
  O  O403  1  0.11862552  0.00233476  0.00142361  1
  O  O404  1  0.10416002  -0.01385547  0.50888581  1
  O  O405  1  0.12031369  0.50186330  -0.00901008  1
  O  O406  1  0.12190827  0.50552715  0.50682390  1
  O  O407  1  0.62427772  -0.00013139  0.00831158  1
  O  O408  1  0.62510691  0.00580114  0.50512565  1
  O  O409  1  0.62327036  0.51451438  -0.00555855  1
  O  O410  1  0.62932088  0.51861530  0.51498707  1
  O  O411  1  0.37495328  0.36718580  0.12510862  1
  O  O412  1  0.37013494  0.36556034  0.62170245  1
  O  O413  1  0.36847659  0.86717420  0.12286923  1
  O  O414  1  0.36460079  0.88165819  0.61421077  1
  O  O415  1  0.86416939  0.36892504  0.12246899  1
  O  O416  1  0.85277390  0.38554274  0.62102848  1
  O  O417  1  0.87116360  0.86564168  0.11547690  1
  O  O418  1  0.87001682  0.86952587  0.62222816  1
  O  O419  1  0.14408456  0.08091753  0.38345435  1
  O  O420  1  0.12955146  0.13694224  0.87611951  1
  O  O421  1  0.12936097  0.63534519  0.37585882  1
  O  O422  1  0.12098944  0.64027042  0.87484199  1
  O  O423  1  0.62954638  0.12552790  0.37693562  1
  O  O424  1  0.63905779  0.12582815  0.86917614  1
  O  O425  1  0.63179313  0.63078012  0.38623294  1
  O  O426  1  0.63215619  0.63028198  0.88009398  1
