# generated using pymatgen
data_V85Zn86O256
_symmetry_space_group_name_H-M   'P 1'
_cell_length_a   16.95012887
_cell_length_b   16.95214224
_cell_length_c   16.95282045
_cell_angle_alpha   89.97171755
_cell_angle_beta   89.93506272
_cell_angle_gamma   90.02082064
_symmetry_Int_Tables_number   1
_chemical_formula_structural   V85Zn86O256
_chemical_formula_sum   'V85 Zn86 O256'
_cell_volume   4871.23626202
_cell_formula_units_Z   1
loop_
 _symmetry_equiv_pos_site_id
 _symmetry_equiv_pos_as_xyz
  1  'x, y, z'
loop_
 _atom_site_type_symbol
 _atom_site_label
 _atom_site_symmetry_multiplicity
 _atom_site_fract_x
 _atom_site_fract_y
 _atom_site_fract_z
 _atom_site_occupancy
  V  V0  1  0.49643913  0.25238805  0.75071532  1
  V  V1  1  0.36773304  0.12207818  0.74943059  1
  V  V2  1  -0.01139734  0.74521692  0.24711618  1
  V  V3  1  0.49914355  0.37563245  0.87829309  1
  V  V4  1  0.88100441  0.11993314  0.25214218  1
  V  V5  1  0.62832174  0.62476885  -0.00031230  1
  V  V6  1  0.37764954  0.87538522  0.50159457  1
  V  V7  1  0.49837229  0.12624705  0.12322866  1
  V  V8  1  0.74337698  0.12946296  0.37543190  1
  V  V9  1  0.50126922  0.62709129  0.62198921  1
  V  V10  1  0.50095157  0.87673240  0.87088630  1
  V  V11  1  0.62763943  0.12570754  -0.00052667  1
  V  V12  1  0.37274289  0.12433698  0.24603582  1
  V  V13  1  0.87377868  -0.00602241  0.38236967  1
  V  V14  1  0.25275784  0.37572617  0.62037584  1
  V  V15  1  0.37368694  -0.00243442  0.37154283  1
  V  V16  1  0.50186233  0.75326053  0.74632376  1
  V  V17  1  0.87662597  0.50202159  0.87641989  1
  V  V18  1  0.50047758  0.87419704  0.37213031  1
  V  V19  1  0.12354478  0.24578384  0.88050968  1
  V  V20  1  -0.00019597  0.87282898  0.37547945  1
  V  V21  1  0.75348346  0.37820719  0.62561182  1
  V  V22  1  0.49611123  0.74961753  0.24750561  1
  V  V23  1  0.24855443  0.24943496  0.50058799  1
  V  V24  1  0.37264033  0.26201184  0.11991670  1
  V  V25  1  0.63254182  -0.00591284  0.12298650  1
  V  V26  1  0.00177133  0.24965514  0.24751129  1
  V  V27  1  0.12239183  0.11942671  0.51322267  1
  V  V28  1  0.87804551  0.49608992  0.36063608  1
  V  V29  1  0.49830302  0.49192714  0.00377013  1
  V  V30  1  0.62704800  0.00189069  0.64654023  1
  V  V31  1  0.62519203  0.36773712  0.26068954  1
  V  V32  1  0.12475675  0.37632469  0.75187862  1
  V  V33  1  0.36783192  0.87274048  -0.00160400  1
  V  V34  1  0.12699522  0.62430561  0.50075435  1
  V  V35  1  0.87767507  0.37820781  0.49863377  1
  V  V36  1  0.62623375  0.75441357  0.87318125  1
  V  V37  1  0.12729096  0.49748741  0.12133763  1
  V  V38  1  0.23852148  -0.00520032  0.24757639  1
  V  V39  1  0.12765712  0.37076671  0.25123808  1
  V  V40  1  0.62718819  0.74715581  0.37307603  1
  V  V41  1  0.25292678  0.48443612  0.24932111  1
  V  V42  1  0.12065041  0.88537716  0.75435867  1
  V  V43  1  0.25076339  0.50156772  0.75167810  1
  V  V44  1  -0.00754190  0.24664939  0.74662340  1
  V  V45  1  0.62342359  0.50283245  0.62549287  1
  V  V46  1  0.37446642  0.49519338  0.88028102  1
  V  V47  1  0.49876809  0.62360562  0.12384457  1
  V  V48  1  0.62492877  0.62168255  0.49575975  1
  V  V49  1  0.37184809  0.62623929  0.75318601  1
  V  V50  1  0.37594745  0.48941874  0.38224560  1
  V  V51  1  0.37571587  0.75326514  0.62438963  1
  V  V52  1  0.87194459  -0.00754744  0.85860665  1
  V  V53  1  0.75935028  0.62903709  0.87735689  1
  V  V54  1  0.36742290  0.74742406  0.11815760  1
  V  V55  1  0.75228523  0.24975679  0.00077397  1
  V  V56  1  -0.00122231  0.49545381  0.49551821  1
  V  V57  1  0.11546864  0.24971462  0.37796797  1
  V  V58  1  0.75981143  0.12707428  0.85760194  1
  V  V59  1  0.75339345  0.37539967  0.13009911  1
  V  V60  1  0.75258117  0.51154869  0.75093036  1
  V  V61  1  0.36783595  -0.00142572  0.87116242  1
  V  V62  1  -0.00013636  0.37643756  0.87927280  1
  V  V63  1  0.24949390  0.75082348  0.50164581  1
  V  V64  1  0.62550667  0.37853937  0.75163472  1
  V  V65  1  0.24107352  0.88923145  0.62710839  1
  V  V66  1  0.24565093  0.12197453  0.37586375  1
  V  V67  1  0.12889731  0.75457727  0.36276608  1
  V  V68  1  0.11496763  0.01457471  0.11877059  1
  V  V69  1  -0.00456840  0.62484009  0.62952439  1
  V  V70  1  0.75654369  0.61772909  0.36125571  1
  V  V71  1  0.24666403  0.12163411  0.88296647  1
  V  V72  1  -0.00309351  0.00738828  -0.01338585  1
  V  V73  1  0.62535075  0.25098702  0.87521306  1
  V  V74  1  0.25260062  0.26329692  0.00059750  1
  V  V75  1  0.25276540  0.62391974  0.37236974  1
  V  V76  1  0.12684131  0.50140437  0.62523620  1
  V  V77  1  0.23641814  0.87244336  0.12442804  1
  V  V78  1  -0.00026126  0.74630750  0.76093932  1
  V  V79  1  0.88128579  0.24087857  0.12294104  1
  V  V80  1  0.37400569  0.25398403  0.62228837  1
  V  V81  1  0.63140216  0.49744437  0.13223587  1
  V  V82  1  0.00137480  -0.00607740  0.50861257  1
  V  V83  1  0.49622834  0.48671899  0.49818830  1
  V  V84  1  0.50716816  0.00304143  0.49875294  1
  Zn  Zn85  1  -0.00858866  0.61998270  0.12910441  1
  Zn  Zn86  1  0.62890894  0.87048372  0.24010429  1
  Zn  Zn87  1  0.85624552  0.75039123  0.12478043  1
  Zn  Zn88  1  0.87915417  0.76041695  0.62018591  1
  Zn  Zn89  1  0.49846287  0.12862681  0.62229555  1
  Zn  Zn90  1  0.76018656  -0.01054540  0.24375660  1
  Zn  Zn91  1  0.74218432  0.25968327  0.48941213  1
  Zn  Zn92  1  -0.00994693  0.11250464  0.63439985  1
  Zn  Zn93  1  0.51176154  0.24695546  0.26635420  1
  Zn  Zn94  1  0.75440502  0.88647663  0.63059857  1
  Zn  Zn95  1  0.86955673  0.88245885  0.01709294  1
  Zn  Zn96  1  0.00048174  0.50597087  0.00257647  1
  Zn  Zn97  1  0.12618954  0.64682765  0.00685460  1
  Zn  Zn98  1  0.75057807  0.77329321  0.00237935  1
  Zn  Zn99  1  0.87690213  0.37563015  0.00322128  1
  Zn  Zn100  1  0.49821710  0.00012227  -0.00125718  1
  Zn  Zn101  1  0.77162093  0.76330618  0.49673578  1
  Zn  Zn102  1  0.25447292  0.63594765  0.90048125  1
  Zn  Zn103  1  0.86987849  0.24497903  0.62370003  1
  Zn  Zn104  1  0.62212272  0.13261301  0.49832189  1
  Zn  Zn105  1  0.37479498  0.61953642  0.24926717  1
  Zn  Zn106  1  0.13540200  0.75348163  0.87996805  1
  Zn  Zn107  1  0.19255623  0.18807821  0.18598770  1
  Zn  Zn108  1  0.18544383  0.18738364  0.69360708  1
  Zn  Zn109  1  0.19060400  0.67847441  0.18384608  1
  Zn  Zn110  1  0.18660515  0.69344335  0.69342063  1
  Zn  Zn111  1  0.69320169  0.18440767  0.19059363  1
  Zn  Zn112  1  0.68173364  0.19124812  0.67877230  1
  Zn  Zn113  1  0.68619350  0.68698032  0.18631809  1
  Zn  Zn114  1  0.70326774  0.71970456  0.69685464  1
  Zn  Zn115  1  0.33517400  0.29740448  0.32533766  1
  Zn  Zn116  1  0.31076025  0.31350474  0.81271798  1
  Zn  Zn117  1  0.31251384  0.81235194  0.30837484  1
  Zn  Zn118  1  0.30852592  0.81700675  0.80708676  1
  Zn  Zn119  1  0.81527976  0.31357614  0.30966936  1
  Zn  Zn120  1  0.81234627  0.31700048  0.81323510  1
  Zn  Zn121  1  0.81152818  0.81495796  0.31141677  1
  Zn  Zn122  1  0.81298201  0.81367184  0.80262331  1
  Zn  Zn123  1  0.18765609  0.43432222  0.43538199  1
  Zn  Zn124  1  0.18925393  0.44090005  0.93563469  1
  Zn  Zn125  1  0.18496899  0.93546677  0.43980896  1
  Zn  Zn126  1  0.18333378  0.93494904  0.94182719  1
  Zn  Zn127  1  0.69320907  0.44393373  0.43756747  1
  Zn  Zn128  1  0.68963686  0.43855843  0.94242747  1
  Zn  Zn129  1  0.69257943  0.93405497  0.43557217  1
  Zn  Zn130  1  0.68915424  0.94398462  0.92800511  1
  Zn  Zn131  1  0.30907254  0.06025971  0.05956848  1
  Zn  Zn132  1  0.31672095  0.06420964  0.55982779  1
  Zn  Zn133  1  0.31086224  0.55547952  0.06632695  1
  Zn  Zn134  1  0.31385960  0.56498822  0.56352746  1
  Zn  Zn135  1  0.81475721  0.06144512  0.05667233  1
  Zn  Zn136  1  0.81112556  0.06333509  0.56384710  1
  Zn  Zn137  1  0.81571394  0.56821889  0.06710427  1
  Zn  Zn138  1  0.79820350  0.59688444  0.57573971  1
  Zn  Zn139  1  0.44307458  0.43562071  0.19506088  1
  Zn  Zn140  1  0.43742951  0.43829703  0.68713303  1
  Zn  Zn141  1  0.43742909  0.93763518  0.18297660  1
  Zn  Zn142  1  0.44088383  0.94013544  0.68513549  1
  Zn  Zn143  1  0.94529542  0.42742372  0.18630868  1
  Zn  Zn144  1  0.93718520  0.44135925  0.68983573  1
  Zn  Zn145  1  0.94281652  0.92853572  0.19072981  1
  Zn  Zn146  1  0.93612908  0.92940895  0.68737114  1
  Zn  Zn147  1  0.06074777  0.06143847  0.31508929  1
  Zn  Zn148  1  0.06374850  0.06253867  0.81087054  1
  Zn  Zn149  1  0.06518307  0.56208915  0.31124598  1
  Zn  Zn150  1  0.06709929  0.56953772  0.82023932  1
  Zn  Zn151  1  0.56177112  0.06014523  0.30729124  1
  Zn  Zn152  1  0.55503145  0.06909255  0.81653330  1
  Zn  Zn153  1  0.55965422  0.55843502  0.31071205  1
  Zn  Zn154  1  0.56249592  0.56662813  0.81366170  1
  Zn  Zn155  1  0.43714308  0.18863887  0.43613000  1
  Zn  Zn156  1  0.43493704  0.18747444  0.93875069  1
  Zn  Zn157  1  0.43826384  0.68464022  0.43732154  1
  Zn  Zn158  1  0.43836007  0.68597370  0.93779974  1
  Zn  Zn159  1  0.93307229  0.18249189  0.44427600  1
  Zn  Zn160  1  0.94061805  0.18196940  0.94030662  1
  Zn  Zn161  1  0.94167569  0.68098106  0.43323218  1
  Zn  Zn162  1  0.94214391  0.69293285  0.95221081  1
  Zn  Zn163  1  0.06648437  0.31245712  0.06453656  1
  Zn  Zn164  1  0.06428164  0.31443026  0.56305556  1
  Zn  Zn165  1  0.05242875  0.81969961  0.05862240  1
  Zn  Zn166  1  0.06085081  0.80937697  0.56127476  1
  Zn  Zn167  1  0.56303307  0.31095680  0.06823938  1
  Zn  Zn168  1  0.56534747  0.31127505  0.56130486  1
  Zn  Zn169  1  0.55910987  0.81240937  0.05624820  1
  Zn  Zn170  1  0.59470797  0.82996362  0.54681989  1
  O  O171  1  0.13162077  0.11219856  0.12421960  1
  O  O172  1  0.12082884  0.13099200  0.61570583  1
  O  O173  1  0.11960711  0.60785596  0.13125030  1
  O  O174  1  0.12443289  0.61803652  0.61893936  1
  O  O175  1  0.61883541  0.12183039  0.11781027  1
  O  O176  1  0.61768465  0.11603385  0.62151562  1
  O  O177  1  0.61812802  0.61469652  0.11816355  1
  O  O178  1  0.61770230  0.61886211  0.61276857  1
  O  O179  1  0.36098155  0.39284898  0.38626041  1
  O  O180  1  0.38239849  0.38784874  0.86832768  1
  O  O181  1  0.38031431  0.87880783  0.37939293  1
  O  O182  1  0.37630018  0.88221529  0.87819863  1
  O  O183  1  0.86842899  0.38865652  0.38152571  1
  O  O184  1  0.88300892  0.38270877  0.87836062  1
  O  O185  1  0.88494624  0.88260589  0.37619687  1
  O  O186  1  0.86847197  0.89194211  0.86564224  1
  O  O187  1  0.25301223  0.00014968  0.36619239  1
  O  O188  1  0.25906114  0.00646681  0.88063257  1
  O  O189  1  0.25726216  0.50728768  0.37289381  1
  O  O190  1  0.26053060  0.50082282  0.86824403  1
  O  O191  1  0.75990464  0.00714406  0.37643884  1
  O  O192  1  0.76051692  0.01683255  0.86765421  1
  O  O193  1  0.76373920  0.50815894  0.37119420  1
  O  O194  1  0.75522462  0.50604291  0.87002362  1
  O  O195  1  0.24413300  0.49527094  0.14071988  1
  O  O196  1  0.24777381  0.49306449  0.62931547  1
  O  O197  1  0.24159905  0.99353284  0.12905606  1
  O  O198  1  0.25302425  0.98713924  0.61801730  1
  O  O199  1  0.74155273  0.48906442  0.11719418  1
  O  O200  1  0.74560151  0.49893349  0.63396579  1
  O  O201  1  0.73509968  1.00902875  0.12420292  1
  O  O202  1  0.73029046  1.00300738  0.62205220  1
  O  O203  1  0.00992846  0.35726800  0.25491921  1
  O  O204  1  0.00531251  0.36981107  0.76149837  1
  O  O205  1  0.00500569  0.86085714  0.26735646  1
  O  O206  1  0.01514670  0.86188984  0.74178133  1
  O  O207  1  0.52091548  0.37018297  0.24694900  1
  O  O208  1  0.50579672  0.37178296  0.75661334  1
  O  O209  1  0.50182909  0.86651411  0.25279669  1
  O  O210  1  0.49083264  0.86602647  0.76171011  1
  O  O211  1  0.49029217  0.12816618  0.24198044  1
  O  O212  1  0.48501331  0.13697814  0.75234933  1
  O  O213  1  0.49655627  0.63088887  0.24235148  1
  O  O214  1  0.48822406  0.62913185  0.74547769  1
  O  O215  1  0.98939905  0.13434083  0.25713420  1
  O  O216  1  1.00755016  0.14344229  0.74879827  1
  O  O217  1  1.00719002  0.64196759  0.25355035  1
  O  O218  1  1.01204935  0.63639467  0.74147783  1
  O  O219  1  0.36362251  0.24819640  0.00572766  1
  O  O220  1  0.36526178  0.24247940  0.51691015  1
  O  O221  1  0.38049996  0.75676466  0.00941344  1
  O  O222  1  0.37127557  0.75633629  0.50390309  1
  O  O223  1  0.87185429  0.24927907  0.00791960  1
  O  O224  1  0.87511903  0.26847542  0.49786832  1
  O  O225  1  0.87077925  0.76241194  0.00017702  1
  O  O226  1  0.88035777  0.73696858  0.50478427  1
  O  O227  1  0.12785438  0.24320791  0.49438294  1
  O  O228  1  0.13568551  0.25467250  0.98900954  1
  O  O229  1  0.13226531  0.74144878  0.49190738  1
  O  O230  1  0.12163323  0.76276934  0.99515280  1
  O  O231  1  0.62966339  0.24657916  0.50141669  1
  O  O232  1  0.63005273  0.24403180  0.99542549  1
  O  O233  1  0.61066494  0.73523346  0.48130476  1
  O  O234  1  0.61936067  0.74053779  0.98708508  1
  O  O235  1  0.49061802  0.23851364  0.12515236  1
  O  O236  1  0.48960974  0.25199875  0.63263521  1
  O  O237  1  0.49324564  0.74541276  0.12976698  1
  O  O238  1  0.49639043  0.74644793  0.63269445  1
  O  O239  1  0.99300084  0.25165121  0.13296754  1
  O  O240  1  1.00169599  0.25819079  0.64236511  1
  O  O241  1  1.00670598  0.75483182  0.14574902  1
  O  O242  1  1.00363704  0.73675807  0.62950601  1
  O  O243  1  0.01188503  0.24276085  0.37157919  1
  O  O244  1  0.00617010  0.25478671  0.87009088  1
  O  O245  1  0.01138652  0.75200319  0.36974218  1
  O  O246  1  0.00286964  0.74249695  0.86188148  1
  O  O247  1  0.44340231  0.25918669  0.35333403  1
  O  O248  1  0.50302079  0.25694962  0.87170440  1
  O  O249  1  0.50154284  0.75205293  0.36418377  1
  O  O250  1  0.50360660  0.75658652  0.86831262  1
  O  O251  1  0.24143105  0.12756396  0.49617440  1
  O  O252  1  0.25474411  0.13437898  0.98643715  1
  O  O253  1  0.24646812  0.63026110  0.49347667  1
  O  O254  1  0.23967039  0.61887893  1.01165084  1
  O  O255  1  0.74843074  0.12678668  0.48312859  1
  O  O256  1  0.74024594  0.13102092  0.99222400  1
  O  O257  1  0.73060899  0.61071493  0.48258565  1
  O  O258  1  0.73585872  0.61734292  0.99124192  1
  O  O259  1  0.25402852  0.36177693  -0.00808297  1
  O  O260  1  0.24277203  0.36816602  0.51390679  1
  O  O261  1  0.26103197  0.87937993  0.00887137  1
  O  O262  1  0.25596679  0.87024139  0.50863561  1
  O  O263  1  0.75109545  0.36586386  0.01024976  1
  O  O264  1  0.75869240  0.38034789  0.50926377  1
  O  O265  1  0.75579447  0.88687513  -0.00629722  1
  O  O266  1  0.71125468  0.85807348  0.51843314  1
  O  O267  1  0.13285788  0.48818534  0.25016207  1
  O  O268  1  0.13203335  0.49546712  0.74624639  1
  O  O269  1  0.13429026  1.00376105  0.24287535  1
  O  O270  1  0.11621490  0.98515889  0.74478247  1
  O  O271  1  0.62086466  0.49089476  0.23693653  1
  O  O272  1  0.63045585  0.49762861  0.74641374  1
  O  O273  1  0.62259653  1.00036735  0.22999765  1
  O  O274  1  0.62132835  1.00996763  0.74549188  1
  O  O275  1  0.36813646  0.00889947  0.24906535  1
  O  O276  1  0.37834550  0.01019631  0.75782444  1
  O  O277  1  0.37069446  0.49733794  0.26292942  1
  O  O278  1  0.37270510  0.50811703  0.75722151  1
  O  O279  1  0.88021509  0.00659081  0.26109223  1
  O  O280  1  0.88865513  0.00685347  0.76128633  1
  O  O281  1  0.88461420  0.49080130  0.26237746  1
  O  O282  1  0.86513341  0.49645152  0.76467661  1
  O  O283  1  0.13039875  0.36180733  0.36583897  1
  O  O284  1  0.11874751  0.37009156  0.87047474  1
  O  O285  1  0.12127739  0.86216866  0.37830310  1
  O  O286  1  0.13279141  0.87777304  0.85721677  1
  O  O287  1  0.63651079  0.38257643  0.35840657  1
  O  O288  1  0.62115673  0.37057949  0.87138272  1
  O  O289  1  0.61499003  0.86232710  0.37442406  1
  O  O290  1  0.61354392  0.86646631  0.87758366  1
  O  O291  1  0.38215112  0.12485757  0.12684817  1
  O  O292  1  0.37295571  0.13319640  0.63459812  1
  O  O293  1  0.38120185  0.63210517  0.12618841  1
  O  O294  1  0.38215574  0.63246905  0.63086139  1
  O  O295  1  0.86832826  0.13416998  0.13456964  1
  O  O296  1  0.88065443  0.13370554  0.61400743  1
  O  O297  1  0.87828001  0.63525455  0.12633563  1
  O  O298  1  0.89760552  0.60521223  0.63051833  1
  O  O299  1  0.25424033  0.24653648  0.10678060  1
  O  O300  1  0.25326815  0.25747590  0.62361602  1
  O  O301  1  0.26154030  0.75765076  0.13536623  1
  O  O302  1  0.25795378  0.75603634  0.61885092  1
  O  O303  1  0.75835026  0.25394996  0.11948371  1
  O  O304  1  0.75077643  0.26968520  0.62755417  1
  O  O305  1  0.73890759  0.74418404  0.11185064  1
  O  O306  1  0.76733854  0.70643346  0.60620327  1
  O  O307  1  0.24472381  0.24068697  0.38372100  1
  O  O308  1  0.24434414  0.24531140  0.88273153  1
  O  O309  1  0.24760395  0.74393429  0.37896165  1
  O  O310  1  0.25114444  0.74176371  0.86110379  1
  O  O311  1  0.75880908  0.23323324  0.37159774  1
  O  O312  1  0.74656314  0.24488720  0.88046440  1
  O  O313  1  0.74231951  0.73597246  0.37850262  1
  O  O314  1  0.74073920  0.74257891  0.87750232  1
  O  O315  1  -0.00332734  0.10770571  0.00709149  1
  O  O316  1  0.00932638  0.11423152  0.49925659  1
  O  O317  1  0.00925824  0.62147182  0.00851672  1
  O  O318  1  0.00988339  0.61205673  0.50704469  1
  O  O319  1  0.51077125  0.12630682  0.00413708  1
  O  O320  1  0.49762560  0.11741107  0.49808098  1
  O  O321  1  0.50978391  0.61490898  0.00266330  1
  O  O322  1  0.50716011  0.61521258  0.50134339  1
  O  O323  1  0.49706558  0.38793757  0.50948793  1
  O  O324  1  0.50674699  0.38534734  0.99692633  1
  O  O325  1  0.49650030  0.88268984  0.49198841  1
  O  O326  1  0.48706908  0.87538997  0.98653508  1
  O  O327  1  0.99673249  0.38750867  0.50378280  1
  O  O328  1  1.00060971  0.37450747  0.98780762  1
  O  O329  1  1.01067940  0.88227724  0.48786285  1
  O  O330  1  0.98949035  0.90407136  1.01299853  1
  O  O331  1  0.48454822  0.50216428  0.38142817  1
  O  O332  1  0.49554001  0.49573662  0.88344851  1
  O  O333  1  0.49333842  0.99485301  0.37700989  1
  O  O334  1  0.48899113  0.99300126  0.87597135  1
  O  O335  1  0.98863903  0.50753220  0.38272414  1
  O  O336  1  0.99303052  0.49346286  0.87443905  1
  O  O337  1  0.99552810  0.98984251  0.37996097  1
  O  O338  1  0.98943060  1.00692135  0.88021976  1
  O  O339  1  0.01565897  0.00279732  0.13538234  1
  O  O340  1  -0.00081660  -0.00386202  0.61169863  1
  O  O341  1  0.01146516  0.49598622  0.12576518  1
  O  O342  1  0.01191791  0.50130740  0.62055271  1
  O  O343  1  0.50586231  0.01265557  0.12053028  1
  O  O344  1  0.50339021  0.00813233  0.61513937  1
  O  O345  1  0.50478848  0.50294203  0.11918218  1
  O  O346  1  0.50292411  0.50714775  0.61895187  1
  O  O347  1  0.24775548  0.38101130  0.26174794  1
  O  O348  1  0.24414697  0.38119400  0.74292055  1
  O  O349  1  0.25904739  0.88626182  0.23795302  1
  O  O350  1  0.23903330  0.87565271  0.73380635  1
  O  O351  1  0.74268543  0.36958932  0.23676835  1
  O  O352  1  0.74519965  0.38766634  0.74579272  1
  O  O353  1  0.73868188  0.88002649  0.26146126  1
  O  O354  1  0.73292408  0.82761175  0.72717781  1
  O  O355  1  0.25335404  0.11281449  0.25443144  1
  O  O356  1  0.26090499  0.13254050  0.76282673  1
  O  O357  1  0.25328585  0.61155526  0.25896427  1
  O  O358  1  0.26485534  0.61826605  0.73952315  1
  O  O359  1  0.76319965  0.11864619  0.25868106  1
  O  O360  1  0.74705344  0.13978037  0.76088770  1
  O  O361  1  0.74156156  0.62204962  0.26374739  1
  O  O362  1  0.74298202  0.61625884  0.76121558  1
  O  O363  1  0.36446395  0.11398277  0.36492932  1
  O  O364  1  0.36913587  0.11752140  0.87011335  1
  O  O365  1  0.36332719  0.61980693  0.37436206  1
  O  O366  1  0.37593515  0.61422344  0.86843338  1
  O  O367  1  0.86920612  0.11647212  0.36934600  1
  O  O368  1  0.86218878  0.12653238  0.87330698  1
  O  O369  1  0.86374291  0.61196244  0.37473331  1
  O  O370  1  0.86347387  0.62021863  0.88163597  1
  O  O371  1  0.12468833  0.37656376  0.14341341  1
  O  O372  1  0.13313234  0.38118074  0.63226266  1
  O  O373  1  0.13563752  0.88502114  0.12369066  1
  O  O374  1  0.13783085  0.87148813  0.62702228  1
  O  O375  1  0.63411800  0.38002996  0.13013392  1
  O  O376  1  0.63247276  0.38504848  0.63202079  1
  O  O377  1  0.61461605  0.89173067  0.11895319  1
  O  O378  1  0.60766979  0.90143236  0.63401083  1
  O  O379  1  0.12223056  0.25061804  0.25616601  1
  O  O380  1  0.11927995  0.25851906  0.76202710  1
  O  O381  1  0.13116817  0.74493421  0.26192233  1
  O  O382  1  0.11626738  0.76055040  0.75082915  1
  O  O383  1  0.62663428  0.26106340  0.24799717  1
  O  O384  1  0.61685121  0.25791791  0.75535147  1
  O  O385  1  0.61209199  0.74662733  0.25845838  1
  O  O386  1  0.60723585  0.73416649  0.76243427  1
  O  O387  1  0.35106849  0.22945336  0.22974252  1
  O  O388  1  0.37666121  0.24611525  0.74260580  1
  O  O389  1  0.38466397  0.74773432  0.24152305  1
  O  O390  1  0.38484765  0.74345506  0.74572678  1
  O  O391  1  0.88474638  0.24413603  0.24429058  1
  O  O392  1  0.89038978  0.25890061  0.75028591  1
  O  O393  1  0.88769901  0.74694024  0.25814149  1
  O  O394  1  0.89664002  0.75259705  0.74488868  1
  O  O395  1  0.38144501  0.50771767  0.49003207  1
  O  O396  1  0.38603896  0.50227711  0.99252040  1
  O  O397  1  0.38385524  0.99428085  0.49277921  1
  O  O398  1  0.37694594  0.99143698  0.99147037  1
  O  O399  1  0.88446204  0.49130289  0.49266805  1
  O  O400  1  0.87511494  0.49643074  0.98809642  1
  O  O401  1  0.88552533  1.00462049  0.48796255  1
  O  O402  1  0.88178126  1.00560389  0.98379297  1
  O  O403  1  0.11287108  -0.00046739  0.00938557  1
  O  O404  1  0.11657390  0.01021022  0.49423975  1
  O  O405  1  0.12600812  0.48528815  0.01791337  1
  O  O406  1  0.12087161  0.50379380  0.50316037  1
  O  O407  1  0.62122266  0.01078156  0.00549232  1
  O  O408  1  0.61116178  0.00463018  0.49309925  1
  O  O409  1  0.61738908  0.50514830  0.00817434  1
  O  O410  1  0.61485962  0.50244541  0.50319098  1
  O  O411  1  0.38240549  0.36014834  0.13235296  1
  O  O412  1  0.36371144  0.36728218  0.63251987  1
  O  O413  1  0.37016703  0.86843218  0.11490484  1
  O  O414  1  0.36790307  0.87117044  0.62142127  1
  O  O415  1  0.86933648  0.36270404  0.12498157  1
  O  O416  1  0.86801147  0.37860183  0.61821547  1
  O  O417  1  0.87304976  0.86630615  0.13368413  1
  O  O418  1  0.86704249  0.87496752  0.62137152  1
  O  O419  1  0.13056535  0.13111763  0.38171916  1
  O  O420  1  0.13397317  0.13410426  0.86976136  1
  O  O421  1  0.13788557  0.62825660  0.38080858  1
  O  O422  1  0.13602353  0.62732818  0.88357944  1
  O  O423  1  0.64079728  0.11951581  0.36725930  1
  O  O424  1  0.63180653  0.13176633  0.88161779  1
  O  O425  1  0.62948793  0.62578370  0.37600266  1
  O  O426  1  0.63069196  0.63055432  0.88306217  1
