# generated using pymatgen
data_V85Zn86O256
_symmetry_space_group_name_H-M   'P 1'
_cell_length_a   16.95133970
_cell_length_b   16.96942084
_cell_length_c   16.95213484
_cell_angle_alpha   89.98979526
_cell_angle_beta   90.00582984
_cell_angle_gamma   89.98221809
_symmetry_Int_Tables_number   1
_chemical_formula_structural   V85Zn86O256
_chemical_formula_sum   'V85 Zn86 O256'
_cell_volume   4876.35612918
_cell_formula_units_Z   1
loop_
 _symmetry_equiv_pos_site_id
 _symmetry_equiv_pos_as_xyz
  1  'x, y, z'
loop_
 _atom_site_type_symbol
 _atom_site_label
 _atom_site_symmetry_multiplicity
 _atom_site_fract_x
 _atom_site_fract_y
 _atom_site_fract_z
 _atom_site_occupancy
  V  V0  1  0.37278407  0.62299364  0.24969450  1
  V  V1  1  0.00906688  0.00405677  0.50938939  1
  V  V2  1  0.37686419  0.12559461  0.24899437  1
  V  V3  1  0.62166873  0.74462557  0.87679950  1
  V  V4  1  0.73879512  0.62344961  0.37224412  1
  V  V5  1  0.62346304  0.12602373  0.50245413  1
  V  V6  1  0.14590805  0.24022594  0.87607765  1
  V  V7  1  0.87302713  0.12805731  0.25320606  1
  V  V8  1  0.00196404  0.11745289  0.12168532  1
  V  V9  1  0.00105613  0.25202460  0.24695760  1
  V  V10  1  0.63041092  0.10962850  0.00383696  1
  V  V11  1  0.37662355  0.87632111  0.49462592  1
  V  V12  1  -0.00354278  0.74886841  0.24849178  1
  V  V13  1  0.11867132  0.49471268  0.62265061  1
  V  V14  1  0.37552781  0.74717528  0.62514186  1
  V  V15  1  0.63211550  0.38968513  0.24697680  1
  V  V16  1  0.24738824  0.88214923  0.62527285  1
  V  V17  1  0.89093279  0.49940037  0.87751711  1
  V  V18  1  0.87305436  0.88362250  -0.00793192  1
  V  V19  1  0.25343744  -0.00097726  0.77438007  1
  V  V20  1  0.11700194  0.74317067  0.86326077  1
  V  V21  1  0.12240345  0.37551168  0.24927741  1
  V  V22  1  0.24709726  0.74456070  -0.00995709  1
  V  V23  1  0.25000332  0.37860211  0.63857013  1
  V  V24  1  0.89224814  0.24538869  0.62564592  1
  V  V25  1  0.89038528  0.12449846  0.74833916  1
  V  V26  1  0.87441833  0.74878826  0.12399005  1
  V  V27  1  0.50774144  0.62238007  0.12734103  1
  V  V28  1  0.74036162  0.75070898  0.49766293  1
  V  V29  1  0.24659275  0.12654217  0.37421797  1
  V  V30  1  0.80977422  0.41638199  0.56851259  1
  V  V31  1  0.37378428  0.11786807  0.77032590  1
  V  V32  1  0.74830131  0.87557343  0.62441185  1
  V  V33  1  0.50863550  0.50026377  0.00242437  1
  V  V34  1  0.75620550  0.12882739  0.87505989  1
  V  V35  1  0.88462621  0.37488638  -0.00133265  1
  V  V36  1  0.62092496  0.87376968  0.75045666  1
  V  V37  1  0.36793022  0.74753931  0.12025708  1
  V  V38  1  0.63118420  0.25178073  0.88619461  1
  V  V39  1  0.12137802  0.61901674  -0.00702514  1
  V  V40  1  0.37329355  0.37594174  0.50291536  1
  V  V41  1  0.24937060  0.37230146  0.12271020  1
  V  V42  1  0.49863737  0.37587161  0.37549961  1
  V  V43  1  0.87395076  0.87587677  0.50092755  1
  V  V44  1  0.75380714  0.24851132  0.51021843  1
  V  V45  1  0.24339212  -0.00226173  0.24260369  1
  V  V46  1  0.00931761  0.35954397  0.86294672  1
  V  V47  1  0.37331357  0.24893287  0.62880491  1
  V  V48  1  -0.00826878  0.38266039  0.38643858  1
  V  V49  1  0.24604394  0.74850438  0.49967643  1
  V  V50  1  0.11806041  0.87824059  0.23992273  1
  V  V51  1  0.00918749  -0.00114645  -0.00656082  1
  V  V52  1  0.74859588  0.38947596  0.12062916  1
  V  V53  1  0.87084351  0.61656623  0.25231265  1
  V  V54  1  0.37944097  0.25037123  0.12016957  1
  V  V55  1  0.62280737  0.00097335  0.62428927  1
  V  V56  1  0.37300717  0.37479683  -0.00118131  1
  V  V57  1  0.37150326  0.49905056  0.37667890  1
  V  V58  1  0.36962658  0.50853035  0.87409673  1
  V  V59  1  0.74987713  0.74798325  0.00191398  1
  V  V60  1  0.62743816  0.25325965  0.37796916  1
  V  V61  1  0.49237572  0.12305815  0.62650387  1
  V  V62  1  0.12264851  0.24905789  0.37459706  1
  V  V63  1  -0.00253823  0.87582426  0.37290470  1
  V  V64  1  0.50512526  0.25320678  0.24933565  1
  V  V65  1  0.86760352  0.25098003  0.11961690  1
  V  V66  1  0.12221288  0.74937639  0.37361041  1
  V  V67  1  0.51156367  0.11590897  0.12513189  1
  V  V68  1  0.50132288  0.24740073  0.75230812  1
  V  V69  1  0.49453286  -0.00056986  0.49662533  1
  V  V70  1  0.87974122  0.75334449  0.63346394  1
  V  V71  1  0.24719024  0.49976152  0.24885117  1
  V  V72  1  0.50313303  0.37662720  0.87567153  1
  V  V73  1  0.75135543  0.62008216  0.87448239  1
  V  V74  1  0.75560627  0.49303408  0.75203312  1
  V  V75  1  0.63008920  0.37157121  0.74433154  1
  V  V76  1  0.49645847  0.88492526  0.88462401  1
  V  V77  1  0.37578754  -0.00492007  0.37034088  1
  V  V78  1  0.62423729  0.50335364  0.62072960  1
  V  V79  1  0.49534338  0.76445397  0.25432658  1
  V  V80  1  0.00261090  0.62923435  0.62275908  1
  V  V81  1  0.87309331  0.00191238  0.37826660  1
  V  V82  1  0.11473102  0.49711080  0.11760808  1
  V  V83  1  0.75184587  0.00320459  0.75533133  1
  V  V84  1  0.11945945  0.87786554  0.74726789  1
  Zn  Zn85  1  0.62286354  0.88937246  0.25129123  1
  Zn  Zn86  1  0.37404047  0.62833248  0.75120959  1
  Zn  Zn87  1  -0.00318510  0.61993757  0.12030302  1
  Zn  Zn88  1  0.11402895  0.61885537  0.49455399  1
  Zn  Zn89  1  -0.00620652  0.87487418  0.86639338  1
  Zn  Zn90  1  0.49853093  0.74710849  0.74982383  1
  Zn  Zn91  1  0.24189638  0.87335095  0.11939629  1
  Zn  Zn92  1  0.87213706  0.50058096  0.38708138  1
  Zn  Zn93  1  0.50190511  0.50970310  0.49827233  1
  Zn  Zn94  1  0.62899380  0.61850594  0.00527090  1
  Zn  Zn95  1  0.24530823  0.62345861  0.37513240  1
  Zn  Zn96  1  0.11113516  0.13272308  0.52057022  1
  Zn  Zn97  1  0.74755111  0.00053757  0.24191596  1
  Zn  Zn98  1  0.73490205  0.88639460  0.12070558  1
  Zn  Zn99  1  0.61275792  0.75570753  0.37852195  1
  Zn  Zn100  1  0.88065715  0.62910337  0.75276275  1
  Zn  Zn101  1  0.36575436  0.88660489  -0.01224975  1
  Zn  Zn102  1  0.24216085  0.50908851  0.75575473  1
  Zn  Zn103  1  0.50660050  0.63180451  0.61940574  1
  Zn  Zn104  1  0.24619310  0.25062092  0.50416098  1
  Zn  Zn105  1  0.74832938  0.12572833  0.37643475  1
  Zn  Zn106  1  0.14401963  0.12288902  -0.00258638  1
  Zn  Zn107  1  0.20886441  0.16555368  0.15405085  1
  Zn  Zn108  1  0.18319270  0.18815391  0.69917334  1
  Zn  Zn109  1  0.18351949  0.68475897  0.18310486  1
  Zn  Zn110  1  0.19176887  0.68256017  0.68698554  1
  Zn  Zn111  1  0.69033575  0.19228671  0.18781392  1
  Zn  Zn112  1  0.69082041  0.18937926  0.68715112  1
  Zn  Zn113  1  0.68418299  0.69488589  0.19071407  1
  Zn  Zn114  1  0.69295047  0.68618243  0.69064113  1
  Zn  Zn115  1  0.31145445  0.31190710  0.30911206  1
  Zn  Zn116  1  0.31446298  0.31219063  0.81482972  1
  Zn  Zn117  1  0.30881043  0.81192584  0.30959321  1
  Zn  Zn118  1  0.30991679  0.81027637  0.81187371  1
  Zn  Zn119  1  0.81047718  0.31446711  0.31330325  1
  Zn  Zn120  1  0.81929412  0.30916351  0.81044006  1
  Zn  Zn121  1  0.80598324  0.81316654  0.31041182  1
  Zn  Zn122  1  0.80693739  0.81284886  0.81450405  1
  Zn  Zn123  1  0.18619669  0.43532747  0.44077228  1
  Zn  Zn124  1  0.18725853  0.43171710  0.93738238  1
  Zn  Zn125  1  0.18783330  0.93625496  0.43285655  1
  Zn  Zn126  1  0.17978070  0.92796601  0.93852814  1
  Zn  Zn127  1  0.68556802  0.44131392  0.43124244  1
  Zn  Zn128  1  0.69364510  0.43385465  0.93833910  1
  Zn  Zn129  1  0.68287395  0.93606409  0.42701286  1
  Zn  Zn130  1  0.68843674  0.93457624  0.93393253  1
  Zn  Zn131  1  0.32007751  0.05882316  0.05230748  1
  Zn  Zn132  1  0.27685595  0.08508976  0.58494319  1
  Zn  Zn133  1  0.30880533  0.56206011  0.05854300  1
  Zn  Zn134  1  0.30720548  0.56361344  0.56257137  1
  Zn  Zn135  1  0.81533763  0.06684157  0.05612654  1
  Zn  Zn136  1  0.81447693  0.06314410  0.56606378  1
  Zn  Zn137  1  0.81662344  0.56191035  0.05849584  1
  Zn  Zn138  1  0.80896745  0.58057815  0.56239104  1
  Zn  Zn139  1  0.43964949  0.43929929  0.18716056  1
  Zn  Zn140  1  0.44118953  0.43831306  0.69030325  1
  Zn  Zn141  1  0.42486241  0.94558444  0.15795353  1
  Zn  Zn142  1  0.43308582  0.93512452  0.68833321  1
  Zn  Zn143  1  0.93416898  0.43550026  0.19052495  1
  Zn  Zn144  1  0.94742603  0.44127428  0.69231359  1
  Zn  Zn145  1  0.90154919  0.95164133  0.16848722  1
  Zn  Zn146  1  0.93618703  0.94335975  0.68717383  1
  Zn  Zn147  1  0.05838756  0.06260468  0.31346522  1
  Zn  Zn148  1  0.07135423  0.06220217  0.81759802  1
  Zn  Zn149  1  0.05792122  0.56196362  0.31020095  1
  Zn  Zn150  1  0.06276116  0.56287834  0.80320498  1
  Zn  Zn151  1  0.56158202  0.06351843  0.31316737  1
  Zn  Zn152  1  0.56482494  0.06281226  0.81557528  1
  Zn  Zn153  1  0.55793209  0.56579824  0.31522949  1
  Zn  Zn154  1  0.55892961  0.56351946  0.80676847  1
  Zn  Zn155  1  0.43379844  0.18786850  0.43767435  1
  Zn  Zn156  1  0.44760087  0.18710576  0.94327896  1
  Zn  Zn157  1  0.43627747  0.68363398  0.43943971  1
  Zn  Zn158  1  0.44108418  0.68922420  0.94107562  1
  Zn  Zn159  1  0.93815307  0.18982152  0.43967602  1
  Zn  Zn160  1  0.93805540  0.18617791  0.93778885  1
  Zn  Zn161  1  0.93154143  0.68812749  0.44056302  1
  Zn  Zn162  1  0.94055934  0.68610432  0.93696599  1
  Zn  Zn163  1  0.06193984  0.30620992  0.05698828  1
  Zn  Zn164  1  0.06573457  0.31561701  0.56207386  1
  Zn  Zn165  1  0.05783736  0.80803764  0.05716223  1
  Zn  Zn166  1  0.06172576  0.81521837  0.56292596  1
  Zn  Zn167  1  0.56606354  0.31520409  0.06400237  1
  Zn  Zn168  1  0.56020426  0.31525611  0.56443777  1
  Zn  Zn169  1  0.56204356  0.81244212  0.06752554  1
  Zn  Zn170  1  0.55828784  0.81569197  0.56036147  1
  O  O171  1  0.10256370  0.13006790  0.12783492  1
  O  O172  1  0.17088174  0.12265204  0.61283569  1
  O  O173  1  0.12197329  0.61223259  0.11636122  1
  O  O174  1  0.11775730  0.61925349  0.61952365  1
  O  O175  1  0.62757134  0.13482634  0.11024124  1
  O  O176  1  0.61649080  0.12269703  0.61754490  1
  O  O177  1  0.61111538  0.62834090  0.12675921  1
  O  O178  1  0.63286404  0.60575693  0.63085957  1
  O  O179  1  0.37803891  0.37774992  0.38202084  1
  O  O180  1  0.38403585  0.37899548  0.88419783  1
  O  O181  1  0.36508240  0.88478918  0.38096733  1
  O  O182  1  0.39201260  0.86933636  0.87354951  1
  O  O183  1  0.88698247  0.37958698  0.37097439  1
  O  O184  1  0.88424596  0.37818247  0.88064773  1
  O  O185  1  0.87836082  0.88271087  0.38105780  1
  O  O186  1  0.87820148  0.86415322  0.88585891  1
  O  O187  1  0.25649573  0.00805147  0.36664376  1
  O  O188  1  0.25583447  -0.01044810  0.87307445  1
  O  O189  1  0.25291315  0.49977064  0.36739233  1
  O  O190  1  0.26663411  0.49148485  0.87576544  1
  O  O191  1  0.76582933  0.00630423  0.38385279  1
  O  O192  1  0.74357181  0.00859216  0.86230345  1
  O  O193  1  0.75066801  0.51845614  0.37858836  1
  O  O194  1  0.75868545  0.50214111  0.86835300  1
  O  O195  1  0.24519154  0.48831739  0.12955515  1
  O  O196  1  0.24374926  0.49224718  0.62616734  1
  O  O197  1  0.24525989  0.99347838  0.14119625  1
  O  O198  1  0.26082330  0.98173448  0.62963115  1
  O  O199  1  0.75416734  0.48838438  0.12404570  1
  O  O200  1  0.74944918  0.49140917  0.62898539  1
  O  O201  1  0.78856045  0.99035395  0.13244346  1
  O  O202  1  0.74222322  0.99527261  0.63298206  1
  O  O203  1  0.00399291  0.36803070  0.25567382  1
  O  O204  1  0.00123824  0.37177355  0.76490566  1
  O  O205  1  0.00287005  0.86787772  0.25720690  1
  O  O206  1  0.01476889  0.88656786  0.74832674  1
  O  O207  1  0.50648507  0.36737105  0.25275333  1
  O  O208  1  0.51003141  0.36860072  0.75698092  1
  O  O209  1  0.48605572  0.86259788  0.24098787  1
  O  O210  1  0.51129522  0.87452521  0.75671190  1
  O  O211  1  0.49924292  0.14097289  0.24844057  1
  O  O212  1  0.49467304  0.12639317  0.74566116  1
  O  O213  1  0.48559899  0.62417976  0.24335420  1
  O  O214  1  0.49345156  0.62832228  0.73942917  1
  O  O215  1  0.98979192  0.13204731  0.24546147  1
  O  O216  1  0.98820983  0.11350186  0.75460712  1
  O  O217  1  0.98958205  0.63244760  0.24771480  1
  O  O218  1  0.99521991  0.62186307  0.73137669  1
  O  O219  1  0.38688926  0.25905114  0.01303678  1
  O  O220  1  0.37422172  0.25793481  0.50988351  1
  O  O221  1  0.36449408  0.74743261  0.00511077  1
  O  O222  1  0.36516081  0.75955224  0.50002957  1
  O  O223  1  0.87837076  0.25814303  0.00934568  1
  O  O224  1  0.86642022  0.24317164  0.51159085  1
  O  O225  1  0.86730696  0.74987872  0.00402811  1
  O  O226  1  0.86434396  0.75949991  0.50922276  1
  O  O227  1  0.12692861  0.24783000  0.48880652  1
  O  O228  1  0.11639651  0.24186347  0.98328425  1
  O  O229  1  0.13010854  0.75154725  0.49012132  1
  O  O230  1  0.12875754  0.74255302  0.98780855  1
  O  O231  1  0.62978572  0.24458766  0.50087586  1
  O  O232  1  0.62536775  0.25112339  0.98801444  1
  O  O233  1  0.63663470  0.75806727  0.50013874  1
  O  O234  1  0.63288472  0.74551012  0.99249895  1
  O  O235  1  0.49854872  0.24921552  0.13366926  1
  O  O236  1  0.49209359  0.24510183  0.63271008  1
  O  O237  1  0.48674811  0.73890549  0.13198070  1
  O  O238  1  0.49017316  0.75350455  0.62703032  1
  O  O239  1  0.98971958  0.24777524  0.13264639  1
  O  O240  1  0.99209252  0.24863496  0.61750162  1
  O  O241  1  0.99110782  0.74445387  0.12930658  1
  O  O242  1  0.98919380  0.74663737  0.62129997  1
  O  O243  1  0.00444943  0.25777798  0.36832748  1
  O  O244  1  -0.00176220  0.25894928  0.87298623  1
  O  O245  1  0.00300716  0.75534862  0.37097660  1
  O  O246  1  0.01370037  0.75183731  0.87363557  1
  O  O247  1  0.50497072  0.25704741  0.36946513  1
  O  O248  1  0.51064717  0.25629709  0.87038544  1
  O  O249  1  0.48982832  0.74810066  0.35749529  1
  O  O250  1  0.51242286  0.75206197  0.87230492  1
  O  O251  1  0.25843864  0.13124773  0.47758648  1
  O  O252  1  0.24437174  0.13439307  1.04807662  1
  O  O253  1  0.24667509  0.64005940  0.49656718  1
  O  O254  1  0.23581242  0.63148962  1.00075904  1
  O  O255  1  0.73970101  0.13134654  0.50367675  1
  O  O256  1  0.74271741  0.12449725  0.98894969  1
  O  O257  1  0.75005510  0.63813549  0.48555361  1
  O  O258  1  0.74798670  0.62975916  0.99271892  1
  O  O259  1  0.26503268  0.37798364  0.00841882  1
  O  O260  1  0.26226119  0.37186216  0.50630869  1
  O  O261  1  0.24958199  0.86265486  0.00194298  1
  O  O262  1  0.25425513  0.86832257  0.50472394  1
  O  O263  1  0.75982283  0.37625344  0.01364150  1
  O  O264  1  0.74716785  0.36659368  0.50005107  1
  O  O265  1  0.75662375  0.86604426  -0.00085220  1
  O  O266  1  0.75535244  0.87237578  0.50599446  1
  O  O267  1  0.12874506  0.49487208  0.24125071  1
  O  O268  1  0.12750503  0.50178483  0.73058599  1
  O  O269  1  0.12894396  0.98827049  0.25993378  1
  O  O270  1  0.14350811  0.99150181  0.75837282  1
  O  O271  1  0.61804927  0.48783219  0.25378564  1
  O  O272  1  0.63429237  0.49105177  0.74249659  1
  O  O273  1  0.63795874  1.00553827  0.26372144  1
  O  O274  1  0.63028493  0.99460880  0.74368822  1
  O  O275  1  0.36650144  0.00518755  0.25313174  1
  O  O276  1  0.36456680  0.00439846  0.75138670  1
  O  O277  1  0.36827652  0.50394061  0.25506545  1
  O  O278  1  0.38013013  0.49729243  0.76808484  1
  O  O279  1  0.87827234  0.01323833  0.26414202  1
  O  O280  1  0.86366285  0.01289446  0.74438101  1
  O  O281  1  0.87698376  0.51465112  0.25070842  1
  O  O282  1  0.86927185  0.49830400  0.75838192  1
  O  O283  1  0.11690473  0.36746852  0.37018628  1
  O  O284  1  0.11381326  0.36458626  0.88234363  1
  O  O285  1  0.11793813  0.86379225  0.36795934  1
  O  O286  1  0.11992759  0.86135763  0.86548931  1
  O  O287  1  0.61960828  0.37114271  0.36782917  1
  O  O288  1  0.62408250  0.36894233  0.86703578  1
  O  O289  1  0.62201577  0.86818034  0.36638396  1
  O  O290  1  0.61910512  0.86563009  0.86891659  1
  O  O291  1  0.39218589  0.13699977  0.13187954  1
  O  O292  1  0.37509659  0.13308349  0.63317580  1
  O  O293  1  0.37713041  0.62967982  0.13063946  1
  O  O294  1  0.37273220  0.64130310  0.61801583  1
  O  O295  1  0.88175743  0.13579081  0.13162352  1
  O  O296  1  0.87368836  0.13108451  0.63908597  1
  O  O297  1  0.87478925  0.63223396  0.13050758  1
  O  O298  1  0.88021148  0.63762038  0.62812348  1
  O  O299  1  0.26586074  0.26717462  0.13788134  1
  O  O300  1  0.26007271  0.26228057  0.62792590  1
  O  O301  1  0.25128766  0.74557653  0.11194165  1
  O  O302  1  0.25469370  0.75938550  0.61549932  1
  O  O303  1  0.76495916  0.26045465  0.13066664  1
  O  O304  1  0.75616487  0.25215165  0.61574242  1
  O  O305  1  0.75483103  0.74509910  0.11178839  1
  O  O306  1  0.75402945  0.75588401  0.61790263  1
  O  O307  1  0.23791638  0.24501767  0.36906780  1
  O  O308  1  0.24509831  0.25549138  0.88350202  1
  O  O309  1  0.23872601  0.74962714  0.38058558  1
  O  O310  1  0.23835579  0.75235440  0.88371129  1
  O  O311  1  0.74478104  0.24914853  0.38841064  1
  O  O312  1  0.74248394  0.23999605  0.86660387  1
  O  O313  1  0.75044010  0.74237003  0.38389258  1
  O  O314  1  0.74093613  0.74282159  0.88286066  1
  O  O315  1  -0.00649685  0.11025062  0.00525938  1
  O  O316  1  0.00059385  0.10986814  0.49609900  1
  O  O317  1  0.01504084  0.62630828  0.00187665  1
  O  O318  1  -0.00355003  0.62826878  0.51363164  1
  O  O319  1  0.52010582  0.12686915  0.00998548  1
  O  O320  1  0.50294935  0.12062991  0.50695511  1
  O  O321  1  0.50293515  0.61726469  0.00936263  1
  O  O322  1  0.50158360  0.62293778  0.50497926  1
  O  O323  1  0.48816439  0.37768887  0.49559543  1
  O  O324  1  0.49288456  0.38235339  0.99887198  1
  O  O325  1  0.48440316  0.88282430  0.50121845  1
  O  O326  1  0.49965640  0.86495836  0.98530941  1
  O  O327  1  1.00047310  0.37179060  0.48409037  1
  O  O328  1  0.98867250  0.37378232  0.99350893  1
  O  O329  1  0.99409916  0.88336834  0.49284743  1
  O  O330  1  0.99429555  0.88561614  0.99769244  1
  O  O331  1  0.49090720  0.49259907  0.37644729  1
  O  O332  1  0.49444786  0.49385397  0.88217122  1
  O  O333  1  0.48165413  1.01106868  0.38013328  1
  O  O334  1  0.50856090  0.98339587  0.87659901  1
  O  O335  1  0.99753179  0.48700088  0.37414683  1
  O  O336  1  0.99341134  0.49134879  0.86888805  1
  O  O337  1  0.98952001  0.99450637  0.38178936  1
  O  O338  1  1.00285435  0.99763842  0.88937535  1
  O  O339  1  -0.01172474  0.00770838  0.11220546  1
  O  O340  1  0.00116219  -0.00438432  0.60802710  1
  O  O341  1  0.01212352  0.49602848  0.12788156  1
  O  O342  1  0.01207625  0.50472545  0.62202611  1
  O  O343  1  0.51311515  0.01965870  0.14687281  1
  O  O344  1  0.50249721  0.00391098  0.61871670  1
  O  O345  1  0.49267297  0.50961727  0.11454928  1
  O  O346  1  0.51642194  0.49816937  0.62589725  1
  O  O347  1  0.24190068  0.38139318  0.24394210  1
  O  O348  1  0.25878692  0.38196218  0.74032496  1
  O  O349  1  0.23538536  0.88093042  0.25148419  1
  O  O350  1  0.24530563  0.88342648  0.74576051  1
  O  O351  1  0.74363467  0.37368573  0.23862605  1
  O  O352  1  0.74492454  0.38446289  0.75672192  1
  O  O353  1  0.75175932  0.87890424  0.24067427  1
  O  O354  1  0.73894003  0.88319958  0.74790758  1
  O  O355  1  0.25421243  0.11826796  0.25391567  1
  O  O356  1  0.25989708  0.10608580  0.75640474  1
  O  O357  1  0.25780631  0.61871279  0.24829893  1
  O  O358  1  0.26080552  0.62046183  0.74716113  1
  O  O359  1  0.76394573  0.13074024  0.25369058  1
  O  O360  1  0.74957950  0.11772376  0.75740013  1
  O  O361  1  0.75595468  0.63655383  0.26385310  1
  O  O362  1  0.75481862  0.61080068  0.75622646  1
  O  O363  1  0.36749842  0.12257024  0.36445516  1
  O  O364  1  0.38522494  0.12691497  0.86931389  1
  O  O365  1  0.36910423  0.61710175  0.36543215  1
  O  O366  1  0.38126740  0.61009877  0.87906927  1
  O  O367  1  0.87581941  0.12075451  0.36892155  1
  O  O368  1  0.86526590  0.13138429  0.86213069  1
  O  O369  1  0.86634491  0.62211083  0.36886547  1
  O  O370  1  0.87260467  0.61561824  0.87387439  1
  O  O371  1  0.13210010  0.37709085  0.12528664  1
  O  O372  1  0.13498822  0.38503383  0.62028934  1
  O  O373  1  0.12087096  0.86645926  0.13723030  1
  O  O374  1  0.13523954  0.86793972  0.63462750  1
  O  O375  1  0.64114866  0.37204670  0.13057110  1
  O  O376  1  0.62373070  0.37991199  0.63901911  1
  O  O377  1  0.62419443  0.87058866  0.13567251  1
  O  O378  1  0.62817979  0.88012263  0.63293413  1
  O  O379  1  0.11087413  0.25584990  0.25528053  1
  O  O380  1  0.12988492  0.24935493  0.77381876  1
  O  O381  1  0.11733891  0.75340004  0.25558594  1
  O  O382  1  0.13194268  0.75711149  0.75970929  1
  O  O383  1  0.62029018  0.25740719  0.25703464  1
  O  O384  1  0.62123374  0.25543731  0.75611351  1
  O  O385  1  0.60041877  0.74769133  0.24995023  1
  O  O386  1  0.62800957  0.75810411  0.75752179  1
  O  O387  1  0.38556640  0.24886775  0.24207361  1
  O  O388  1  0.38168654  0.24145023  0.74836022  1
  O  O389  1  0.37654431  0.73862063  0.24517555  1
  O  O390  1  0.37656145  0.75328338  0.73832756  1
  O  O391  1  0.88424597  0.24673666  0.24703664  1
  O  O392  1  0.87290379  0.23416535  0.74031014  1
  O  O393  1  0.87847874  0.74339093  0.24090277  1
  O  O394  1  0.86489560  0.75136978  0.73700854  1
  O  O395  1  0.37330924  0.49234710  0.49428587  1
  O  O396  1  0.38246889  0.49374261  0.99124819  1
  O  O397  1  0.37462777  0.99148318  0.48863236  1
  O  O398  1  0.39073809  0.97852501  1.04745520  1
  O  O399  1  0.85921971  0.48813033  0.51059080  1
  O  O400  1  0.87267746  0.49021296  0.98761226  1
  O  O401  1  0.88308941  0.99566986  0.49726088  1
  O  O402  1  0.88116250  0.98683425  0.99516478  1
  O  O403  1  0.11298198  0.00113625  0.00133132  1
  O  O404  1  0.11137543  0.00078870  0.49057036  1
  O  O405  1  0.13179387  0.50575786  0.00643401  1
  O  O406  1  0.13287292  0.50427432  0.51498660  1
  O  O407  1  0.63249584  0.01112582  0.00078703  1
  O  O408  1  0.61839319  0.00865860  0.50386589  1
  O  O409  1  0.61264732  0.49767416  -0.00559811  1
  O  O410  1  0.62584820  0.48849748  0.51810580  1
  O  O411  1  0.37138479  0.37151174  0.11891773  1
  O  O412  1  0.37193930  0.37215263  0.62028293  1
  O  O413  1  0.36229510  0.85071881  0.13524820  1
  O  O414  1  0.36875678  0.86523529  0.61559663  1
  O  O415  1  0.86884562  0.37200457  0.11868941  1
  O  O416  1  0.87799044  0.36691688  0.63080019  1
  O  O417  1  0.87671110  0.85576358  0.10883121  1
  O  O418  1  0.86823079  0.87154392  0.62183534  1
  O  O419  1  0.12963821  0.13637512  0.37118154  1
  O  O420  1  0.13397516  0.13329104  0.88088952  1
  O  O421  1  0.12271645  0.63619061  0.37431368  1
  O  O422  1  0.12026870  0.63443482  0.87619366  1
  O  O423  1  0.62318568  0.13458039  0.39087904  1
  O  O424  1  0.63118018  0.13160986  0.88622683  1
  O  O425  1  0.63504483  0.63304069  0.36947711  1
  O  O426  1  0.63079256  0.63018260  0.87432263  1
