# generated using pymatgen
data_V85Zn86O256
_symmetry_space_group_name_H-M   'P 1'
_cell_length_a   16.95004310
_cell_length_b   16.96396913
_cell_length_c   16.94030474
_cell_angle_alpha   89.96883055
_cell_angle_beta   90.02115344
_cell_angle_gamma   90.04174181
_symmetry_Int_Tables_number   1
_chemical_formula_structural   V85Zn86O256
_chemical_formula_sum   'V85 Zn86 O256'
_cell_volume   4871.01301365
_cell_formula_units_Z   1
loop_
 _symmetry_equiv_pos_site_id
 _symmetry_equiv_pos_as_xyz
  1  'x, y, z'
loop_
 _atom_site_type_symbol
 _atom_site_label
 _atom_site_symmetry_multiplicity
 _atom_site_fract_x
 _atom_site_fract_y
 _atom_site_fract_z
 _atom_site_occupancy
  V  V0  1  0.63247482  0.49991874  0.62039771  1
  V  V1  1  0.49981501  0.50096192  0.00065057  1
  V  V2  1  0.62151902  0.37637188  0.25629255  1
  V  V3  1  0.11560297  0.24598785  0.87208603  1
  V  V4  1  0.87448059  0.25095095  0.11860931  1
  V  V5  1  0.79975236  0.68241802  0.93055958  1
  V  V6  1  0.12523539  0.37001492  0.74721170  1
  V  V7  1  0.62223451  0.74704314  0.88210071  1
  V  V8  1  0.75756429  0.25730230  0.52499189  1
  V  V9  1  0.50169386  0.87651937  0.87494057  1
  V  V10  1  0.88713096  0.87402190  0.50050194  1
  V  V11  1  0.62543424  0.88118890  0.74365855  1
  V  V12  1  0.62246083  0.50636909  0.12765886  1
  V  V13  1  0.86178496  0.12176047  0.25563605  1
  V  V14  1  0.24897969  0.12655369  0.87122785  1
  V  V15  1  0.50681033  0.62273493  0.61840978  1
  V  V16  1  0.37563835  0.62345777  0.74898198  1
  V  V17  1  0.87293090  0.00113717  0.87485832  1
  V  V18  1  0.87210075  0.49228960  0.88863991  1
  V  V19  1  0.37474826  0.00564762  0.87385339  1
  V  V20  1  0.37826155  0.74912007  0.62290299  1
  V  V21  1  0.56086510  0.91687061  0.31607693  1
  V  V22  1  0.24489899  -0.00492726  0.24825968  1
  V  V23  1  0.87061743  0.63048566  0.74603192  1
  V  V24  1  0.37347651  0.12416254  0.25073372  1
  V  V25  1  0.62763562  0.74904438  0.37419754  1
  V  V26  1  0.49924906  0.37399827  0.87327967  1
  V  V27  1  0.24858085  0.86323609  0.12324164  1
  V  V28  1  0.25076991  0.37656056  0.12961840  1
  V  V29  1  0.12558807  0.87096730  0.74989078  1
  V  V30  1  0.00171512  0.37899942  0.37924445  1
  V  V31  1  -0.00066766  0.87718006  0.87507966  1
  V  V32  1  0.64047137  0.25185497  0.37904055  1
  V  V33  1  0.12301983  0.75488091  0.36965748  1
  V  V34  1  0.25403071  0.74671057  0.49637185  1
  V  V35  1  0.25589792  0.36605457  0.62375200  1
  V  V36  1  0.37074822  0.86275178  0.00202625  1
  V  V37  1  0.49793755  0.25461428  0.26318274  1
  V  V38  1  0.37797096  0.36782116  0.49812385  1
  V  V39  1  0.12335557  -0.00201403  0.61550994  1
  V  V40  1  0.51038962  -0.00399505  0.50605236  1
  V  V41  1  0.49205527  0.74319757  0.25416576  1
  V  V42  1  0.74760833  0.37485178  0.12151856  1
  V  V43  1  0.37823628  -0.00656815  0.37263723  1
  V  V44  1  0.62977955  0.12780058  0.50810881  1
  V  V45  1  0.37816731  0.50205692  0.37381101  1
  V  V46  1  0.62435375  0.12227604  0.00012780  1
  V  V47  1  0.48672429  0.24739470  0.74482104  1
  V  V48  1  0.38362531  0.87327753  0.49725587  1
  V  V49  1  -0.05513952  0.29939782  0.69297874  1
  V  V50  1  0.74935780  0.25041629  -0.00029905  1
  V  V51  1  0.12731056  0.62251547  0.49904484  1
  V  V52  1  0.75536849  0.88225719  0.62216571  1
  V  V53  1  0.00558709  0.24752585  0.24824791  1
  V  V54  1  0.50396469  0.49470885  0.49528628  1
  V  V55  1  0.87709987  0.12264915  0.73820905  1
  V  V56  1  0.48695262  0.12622971  0.62698551  1
  V  V57  1  0.13081631  0.25130104  0.37249710  1
  V  V58  1  0.24929455  0.50028416  0.74963085  1
  V  V59  1  -0.00036109  0.75819554  0.24074360  1
  V  V60  1  0.50143612  -0.00246607  0.00396915  1
  V  V61  1  0.37586747  0.24901285  0.12698338  1
  V  V62  1  -0.00179333  0.63153420  0.62362399  1
  V  V63  1  0.74757923  0.50262906  0.75496300  1
  V  V64  1  0.25378426  0.87393405  0.62391437  1
  V  V65  1  -0.00160484  0.12008247  0.12294386  1
  V  V66  1  0.75075578  0.86576315  0.12959193  1
  V  V67  1  0.75372120  0.74179099  0.51030165  1
  V  V68  1  0.37421958  0.37369485  -0.00114352  1
  V  V69  1  0.50071326  0.12439204  0.12553595  1
  V  V70  1  0.25718228  0.50419589  0.24753182  1
  V  V71  1  0.75012333  0.12425576  0.87151515  1
  V  V72  1  0.87474516  0.62922332  0.24351881  1
  V  V73  1  0.75005564  0.62467394  0.37717156  1
  V  V74  1  0.13267443  0.74973517  0.88804457  1
  V  V75  1  0.48316230  0.62904285  0.12776856  1
  V  V76  1  0.07845177  0.43302347  0.19185766  1
  V  V77  1  0.12809027  0.60022398  0.00622696  1
  V  V78  1  -0.00206288  0.11825127  0.61984696  1
  V  V79  1  -0.00354312  0.37680159  0.89005805  1
  V  V80  1  0.50252128  0.75019784  0.74697768  1
  V  V81  1  0.12332904  -0.00596258  0.12638634  1
  V  V82  1  0.62728645  0.37313304  0.74416446  1
  V  V83  1  0.25491913  0.00181965  0.74766430  1
  V  V84  1  0.62234979  0.24949240  0.87368497  1
  Zn  Zn85  1  0.24881291  0.24698851  0.00052107  1
  Zn  Zn86  1  0.62481762  0.62844286  0.00000159  1
  Zn  Zn87  1  0.12497072  0.12150321  -0.00175256  1
  Zn  Zn88  1  -0.00463788  0.50230404  0.50063970  1
  Zn  Zn89  1  0.37581515  0.50045945  0.87384251  1
  Zn  Zn90  1  0.25460623  0.62745932  0.36594074  1
  Zn  Zn91  1  0.74755279  0.50146137  0.25450056  1
  Zn  Zn92  1  0.12226737  0.12251467  0.49442238  1
  Zn  Zn93  1  0.87998028  0.00406957  0.37540245  1
  Zn  Zn94  1  0.25331419  0.62919732  0.87878252  1
  Zn  Zn95  1  0.64066067  -0.00154982  0.15094032  1
  Zn  Zn96  1  0.74465830  0.00537821  0.74250476  1
  Zn  Zn97  1  -0.00414200  0.75030397  0.74847089  1
  Zn  Zn98  1  0.25348758  0.24268416  0.50472543  1
  Zn  Zn99  1  0.00246951  0.61872386  0.12228827  1
  Zn  Zn100  1  0.87463076  0.37422535  0.51179332  1
  Zn  Zn101  1  0.24770492  0.12207895  0.37609303  1
  Zn  Zn102  1  0.86847214  0.86157917  0.00104506  1
  Zn  Zn103  1  0.87340188  0.49874166  0.37942678  1
  Zn  Zn104  1  0.12706497  0.50025242  0.62289785  1
  Zn  Zn105  1  0.00700602  0.88299121  0.37092835  1
  Zn  Zn106  1  -0.00122665  -0.00301717  0.00015865  1
  Zn  Zn107  1  0.18673878  0.18368987  0.18767673  1
  Zn  Zn108  1  0.18496235  0.18515256  0.68762698  1
  Zn  Zn109  1  0.18172078  0.68275954  0.18501501  1
  Zn  Zn110  1  0.18810370  0.68806084  0.68601543  1
  Zn  Zn111  1  0.68380779  0.18819395  0.18653043  1
  Zn  Zn112  1  0.68315828  0.18594411  0.68569683  1
  Zn  Zn113  1  0.68522310  0.69538986  0.19210374  1
  Zn  Zn114  1  0.68611418  0.68685860  0.69135667  1
  Zn  Zn115  1  0.31337276  0.32061081  0.31322702  1
  Zn  Zn116  1  0.30954589  0.31092466  0.81306372  1
  Zn  Zn117  1  0.31140482  0.81429105  0.31046028  1
  Zn  Zn118  1  0.31444805  0.81395202  0.81356113  1
  Zn  Zn119  1  0.81571327  0.31123043  0.30736955  1
  Zn  Zn120  1  0.80604448  0.31730087  0.81451280  1
  Zn  Zn121  1  0.81345179  0.81279440  0.31322895  1
  Zn  Zn122  1  0.81323087  0.81918579  0.80652270  1
  Zn  Zn123  1  0.18935329  0.43602836  0.43305440  1
  Zn  Zn124  1  0.19196782  0.43084182  0.93138054  1
  Zn  Zn125  1  0.19186721  0.93436921  0.43592013  1
  Zn  Zn126  1  0.18695007  0.93866314  0.94054861  1
  Zn  Zn127  1  0.69044440  0.43484776  0.43921676  1
  Zn  Zn128  1  0.68544451  0.43886327  0.93825378  1
  Zn  Zn129  1  0.70211042  0.94192561  0.43798486  1
  Zn  Zn130  1  0.69058526  0.93368660  0.94285426  1
  Zn  Zn131  1  0.31117209  0.05923245  0.06042029  1
  Zn  Zn132  1  0.31325477  0.06160134  0.55636231  1
  Zn  Zn133  1  0.30734921  0.56094196  0.05976325  1
  Zn  Zn134  1  0.31413760  0.55810413  0.56187619  1
  Zn  Zn135  1  0.81056129  0.05675636  0.06332897  1
  Zn  Zn136  1  0.80696123  0.05266852  0.53230520  1
  Zn  Zn137  1  0.81211258  0.55879545  0.06966801  1
  Zn  Zn138  1  0.81374032  0.55935094  0.56258213  1
  Zn  Zn139  1  0.43765217  0.43802741  0.18853458  1
  Zn  Zn140  1  0.43874111  0.43637543  0.68343505  1
  Zn  Zn141  1  0.43238029  0.93560642  0.18108098  1
  Zn  Zn142  1  0.43958999  0.94048167  0.68505198  1
  Zn  Zn143  1  0.91635205  0.43733222  0.19250882  1
  Zn  Zn144  1  0.94087754  0.46383771  0.69283005  1
  Zn  Zn145  1  0.92196047  0.93727847  0.18543785  1
  Zn  Zn146  1  0.93422943  0.93728079  0.68324375  1
  Zn  Zn147  1  0.05839205  0.06099882  0.31299005  1
  Zn  Zn148  1  0.06052992  0.06120216  0.80288265  1
  Zn  Zn149  1  0.05926505  0.57114257  0.31812266  1
  Zn  Zn150  1  0.06078884  0.56132104  0.81524771  1
  Zn  Zn151  1  0.56109916  0.08248396  0.32211838  1
  Zn  Zn152  1  0.56116002  0.06317708  0.80950648  1
  Zn  Zn153  1  0.56430265  0.56661086  0.31531585  1
  Zn  Zn154  1  0.56210056  0.56298117  0.81269726  1
  Zn  Zn155  1  0.43771284  0.18387447  0.43852394  1
  Zn  Zn156  1  0.43633112  0.18689491  0.93626621  1
  Zn  Zn157  1  0.44141055  0.68303103  0.43466667  1
  Zn  Zn158  1  0.44178711  0.68550263  0.93599811  1
  Zn  Zn159  1  0.93724617  0.19383000  0.43833299  1
  Zn  Zn160  1  0.93596084  0.18549539  0.93565707  1
  Zn  Zn161  1  0.93622242  0.69150968  0.43474675  1
  Zn  Zn162  1  0.96365902  0.68146406  0.93344845  1
  Zn  Zn163  1  0.06250238  0.30376383  0.05616863  1
  Zn  Zn164  1  0.07075592  0.31390810  0.55441435  1
  Zn  Zn165  1  0.05862263  0.81528214  0.06356555  1
  Zn  Zn166  1  0.06805986  0.80514713  0.56424651  1
  Zn  Zn167  1  0.56191257  0.31252894  0.06588643  1
  Zn  Zn168  1  0.56130944  0.31173116  0.56378901  1
  Zn  Zn169  1  0.56961138  0.81454004  0.07311012  1
  Zn  Zn170  1  0.57135753  0.81059401  0.55918406  1
  O  O171  1  0.11702881  0.11432891  0.12310865  1
  O  O172  1  0.11794392  0.11368218  0.62567407  1
  O  O173  1  0.12580823  0.61586089  0.11026905  1
  O  O174  1  0.12084998  0.62490983  0.61647443  1
  O  O175  1  0.61881141  0.11763785  0.12100200  1
  O  O176  1  0.61308872  0.12884907  0.61380941  1
  O  O177  1  0.62166907  0.61357638  0.12705674  1
  O  O178  1  0.61591327  0.61476014  0.63171281  1
  O  O179  1  0.37286476  0.38872622  0.38566631  1
  O  O180  1  0.37988399  0.37395348  0.88326436  1
  O  O181  1  0.37350551  0.88586149  0.38088330  1
  O  O182  1  0.37920340  0.88494366  0.88292310  1
  O  O183  1  0.89242690  0.37415246  0.36594315  1
  O  O184  1  0.88096419  0.38379148  0.87295932  1
  O  O185  1  0.87403565  0.87489932  0.39324444  1
  O  O186  1  0.88254602  0.88337571  0.87307217  1
  O  O187  1  0.25886778  -0.00177980  0.36564888  1
  O  O188  1  0.25490299  0.00462549  0.86795829  1
  O  O189  1  0.25860974  0.50028001  0.36518989  1
  O  O190  1  0.25505691  0.49906140  0.86036877  1
  O  O191  1  0.77770945  0.01924866  0.42238755  1
  O  O192  1  0.75648253  0.00692654  0.87035057  1
  O  O193  1  0.74887301  0.50990396  0.37479051  1
  O  O194  1  0.76022670  0.49482642  0.86973072  1
  O  O195  1  0.25595060  0.48515704  0.13080528  1
  O  O196  1  0.24878740  0.49105963  0.63597971  1
  O  O197  1  0.24217499  0.99480555  0.12968528  1
  O  O198  1  0.24748181  0.99461000  0.63136894  1
  O  O199  1  0.74010391  0.49169488  0.12915940  1
  O  O200  1  0.73778664  0.50296676  0.63290729  1
  O  O201  1  0.75000642  0.98801330  0.12386796  1
  O  O202  1  0.75187090  0.98479706  0.62097136  1
  O  O203  1  0.00906770  0.37304958  0.24820257  1
  O  O204  1  0.00303732  0.36890602  0.75037217  1
  O  O205  1  -0.00991797  0.86033582  0.24854351  1
  O  O206  1  0.00780185  0.87455657  0.75791260  1
  O  O207  1  0.50878549  0.36499292  0.24392628  1
  O  O208  1  0.50475610  0.36823025  0.75377335  1
  O  O209  1  0.49890483  0.86596856  0.24797323  1
  O  O210  1  0.50712973  0.87040442  0.75131141  1
  O  O211  1  0.49289329  0.13509958  0.24499031  1
  O  O212  1  0.50335337  0.13130832  0.73593237  1
  O  O213  1  0.50168825  0.63547917  0.24462402  1
  O  O214  1  0.49268020  0.62785655  0.74037954  1
  O  O215  1  0.99522742  0.13358655  0.23712716  1
  O  O216  1  0.99106847  0.12694991  0.73709504  1
  O  O217  1  0.98952560  0.63069568  0.24706765  1
  O  O218  1  0.99081999  0.62341318  0.74430497  1
  O  O219  1  0.37456816  0.25902391  0.00527364  1
  O  O220  1  0.37278078  0.26325718  0.48971095  1
  O  O221  1  0.37757221  0.76481269  -0.00995491  1
  O  O222  1  0.37440991  0.75286939  0.50322271  1
  O  O223  1  0.86792795  0.24386245  0.01135606  1
  O  O224  1  0.86116003  0.25330621  0.50372051  1
  O  O225  1  0.86934640  0.73716890  -0.01976172  1
  O  O226  1  0.85993926  0.75496041  0.49896405  1
  O  O227  1  0.13202279  0.24631100  0.48703888  1
  O  O228  1  0.12978370  0.24285255  0.98757925  1
  O  O229  1  0.13443335  0.74043250  0.49328150  1
  O  O230  1  0.12395824  0.75259621  0.98813122  1
  O  O231  1  0.63475631  0.25002623  0.49725600  1
  O  O232  1  0.62671985  0.24201835  0.99542528  1
  O  O233  1  0.64112002  0.75303005  0.48859980  1
  O  O234  1  0.61368697  0.75075917  0.98543008  1
  O  O235  1  0.49457073  0.24338498  0.13363247  1
  O  O236  1  0.50045409  0.23773162  0.63130467  1
  O  O237  1  0.50777652  0.74087788  0.14139788  1
  O  O238  1  0.49962346  0.74107850  0.62708913  1
  O  O239  1  0.99334827  0.24470797  0.12859961  1
  O  O240  1  1.00464416  0.24614281  0.62941778  1
  O  O241  1  1.00524542  0.74486542  0.13746036  1
  O  O242  1  1.00555643  0.73668385  0.63215464  1
  O  O243  1  0.00816510  0.25714613  0.36508883  1
  O  O244  1  0.00854384  0.25608875  0.87680561  1
  O  O245  1  0.00785615  0.75240509  0.36390186  1
  O  O246  1  0.01556731  0.75849070  0.86700976  1
  O  O247  1  0.50730165  0.24654448  0.36578985  1
  O  O248  1  0.50473804  0.25311120  0.86763841  1
  O  O249  1  0.51098010  0.74457125  0.36723415  1
  O  O250  1  0.50446020  0.75754708  0.86558124  1
  O  O251  1  0.24588240  0.12645037  0.49420917  1
  O  O252  1  0.24931056  0.12384565  0.98478665  1
  O  O253  1  0.24555387  0.63204351  0.50180263  1
  O  O254  1  0.23565309  0.61986125  0.99399980  1
  O  O255  1  0.74008503  0.14541310  0.51536548  1
  O  O256  1  0.74313030  0.13002554  0.99285375  1
  O  O257  1  0.75498852  0.63569376  0.49527028  1
  O  O258  1  0.74694350  0.62703523  0.99869153  1
  O  O259  1  0.25894769  0.37112301  0.00593259  1
  O  O260  1  0.25795608  0.37477400  0.50849665  1
  O  O261  1  0.26366725  0.88056670  0.00528058  1
  O  O262  1  0.26089804  0.86742900  0.50595496  1
  O  O263  1  0.73779604  0.36658894  0.01350617  1
  O  O264  1  0.75250747  0.36107968  0.50154174  1
  O  O265  1  0.75539605  0.87360507  0.00779284  1
  O  O266  1  0.75840702  0.86414707  0.51156217  1
  O  O267  1  0.13024615  0.49623263  0.25349411  1
  O  O268  1  0.13179047  0.48877985  0.75195959  1
  O  O269  1  0.13566167  1.00405594  0.24148156  1
  O  O270  1  0.13628256  0.98770717  0.74454445  1
  O  O271  1  0.62342582  0.49253619  0.24507001  1
  O  O272  1  0.63015281  0.49387939  0.74668413  1
  O  O273  1  0.61068855  0.99568308  0.26497113  1
  O  O274  1  0.62551352  0.98547764  0.75361266  1
  O  O275  1  0.37180888  0.00332736  0.25573550  1
  O  O276  1  0.36296804  -0.00782239  0.75799446  1
  O  O277  1  0.36980070  0.49490307  0.26018849  1
  O  O278  1  0.36962289  0.50779492  0.74804317  1
  O  O279  1  0.87422737  0.01846626  0.25167453  1
  O  O280  1  0.87180092  0.00718268  0.75710969  1
  O  O281  1  0.86810810  0.51448996  0.25822329  1
  O  O282  1  0.86486082  0.51141831  0.76219676  1
  O  O283  1  0.11350481  0.36635937  0.37776683  1
  O  O284  1  0.11603274  0.36766372  0.86682793  1
  O  O285  1  0.12621094  0.85951402  0.37983303  1
  O  O286  1  0.12118458  0.86880968  0.87040402  1
  O  O287  1  0.62721760  0.36983850  0.36307777  1
  O  O288  1  0.61814613  0.37023166  0.86594336  1
  O  O289  1  0.63071917  0.87154924  0.38071654  1
  O  O290  1  0.61877893  0.86855387  0.86754930  1
  O  O291  1  0.37875297  0.12978574  0.12971147  1
  O  O292  1  0.38764598  0.12289433  0.62101762  1
  O  O293  1  0.38421645  0.62184848  0.12059784  1
  O  O294  1  0.38169579  0.62840765  0.63324995  1
  O  O295  1  0.88038773  0.13138917  0.13144900  1
  O  O296  1  0.87921500  0.11499583  0.63350318  1
  O  O297  1  0.87939261  0.61935058  0.13914529  1
  O  O298  1  0.88367119  0.61854674  0.63521336  1
  O  O299  1  0.25617134  0.25824148  0.12592629  1
  O  O300  1  0.24641542  0.26202233  0.62648465  1
  O  O301  1  0.24204109  0.76439665  0.13278305  1
  O  O302  1  0.25861147  0.75491119  0.61867843  1
  O  O303  1  0.75416372  0.25531592  0.12016129  1
  O  O304  1  0.74883135  0.25945820  0.62372132  1
  O  O305  1  0.73552879  0.76366310  0.11860967  1
  O  O306  1  0.74420207  0.75220006  0.61334433  1
  O  O307  1  0.23804773  0.25119822  0.36663033  1
  O  O308  1  0.24000743  0.24099837  0.87341896  1
  O  O309  1  0.24533710  0.74700198  0.37750662  1
  O  O310  1  0.23605542  0.74955484  0.86880802  1
  O  O311  1  0.74156671  0.25431340  0.37613146  1
  O  O312  1  0.74305143  0.24546759  0.88021026  1
  O  O313  1  0.74611214  0.74453839  0.38334606  1
  O  O314  1  0.74292390  0.74770821  0.87314195  1
  O  O315  1  -0.00040257  0.12511515  0.01313432  1
  O  O316  1  -0.00006353  0.13325190  0.51566884  1
  O  O317  1  0.01959982  0.61940309  0.00511138  1
  O  O318  1  0.00816355  0.62832981  0.50543307  1
  O  O319  1  0.50314690  0.11810295  0.00490352  1
  O  O320  1  0.50434220  0.12037255  0.51019635  1
  O  O321  1  0.50124921  0.61885321  0.00901073  1
  O  O322  1  0.49599668  0.61470342  0.51296984  1
  O  O323  1  0.49151850  0.38361280  0.50660099  1
  O  O324  1  0.49307712  0.37848007  0.99613093  1
  O  O325  1  0.49711939  0.88442804  0.50990810  1
  O  O326  1  0.49088236  0.88124868  0.99813695  1
  O  O327  1  0.99640265  0.37598531  0.49238635  1
  O  O328  1  1.00173154  0.37373892  0.98914733  1
  O  O329  1  0.98805083  0.85417931  0.49983781  1
  O  O330  1  0.99171973  0.87366000  0.98682917  1
  O  O331  1  0.49723390  0.50601171  0.38823196  1
  O  O332  1  0.49788412  0.49226928  0.88097826  1
  O  O333  1  0.49844054  0.99056759  0.37712792  1
  O  O334  1  0.49066736  0.99604855  0.87771572  1
  O  O335  1  1.00066734  0.49250941  0.37824705  1
  O  O336  1  0.98318401  0.49059950  0.86848651  1
  O  O337  1  0.99396911  0.99465652  0.37319976  1
  O  O338  1  0.99486254  0.99215614  0.87221722  1
  O  O339  1  0.00468817  0.00480808  0.12616237  1
  O  O340  1  0.01272248  0.00560881  0.63295742  1
  O  O341  1  0.01053706  0.48835000  0.14075289  1
  O  O342  1  0.00933549  0.51508175  0.62038232  1
  O  O343  1  0.50002514  0.00609786  0.11646233  1
  O  O344  1  0.49895257  0.01240404  0.61765871  1
  O  O345  1  0.50513558  0.50769495  0.12213056  1
  O  O346  1  0.50950156  0.50557925  0.61874403  1
  O  O347  1  0.25010339  0.38507243  0.23980285  1
  O  O348  1  0.24390473  0.38024074  0.74469151  1
  O  O349  1  0.25846468  0.88747758  0.23840663  1
  O  O350  1  0.24545810  0.88047530  0.74395800  1
  O  O351  1  0.73995192  0.37386898  0.23904890  1
  O  O352  1  0.73927844  0.38814838  0.75293932  1
  O  O353  1  0.75921309  0.86997965  0.23364737  1
  O  O354  1  0.74442062  0.87714281  0.73761725  1
  O  O355  1  0.25799680  0.11363480  0.25030453  1
  O  O356  1  0.24597671  0.11502839  0.76010065  1
  O  O357  1  0.24586069  0.60853065  0.24589390  1
  O  O358  1  0.25722910  0.61736710  0.74975346  1
  O  O359  1  0.76328588  0.13406712  0.24772263  1
  O  O360  1  0.75597080  0.12485262  0.75260093  1
  O  O361  1  0.76001186  0.62932171  0.25619413  1
  O  O362  1  0.75456593  0.61303832  0.74821924  1
  O  O363  1  0.37699807  0.11071330  0.36908470  1
  O  O364  1  0.36784709  0.11280251  0.87654294  1
  O  O365  1  0.37112628  0.60818043  0.38324700  1
  O  O366  1  0.37523675  0.62451261  0.86145079  1
  O  O367  1  0.88226919  0.13569918  0.35609473  1
  O  O368  1  0.87135163  0.12091815  0.86160848  1
  O  O369  1  0.86513207  0.62508532  0.36800454  1
  O  O370  1  0.86841388  0.62028656  0.87617958  1
  O  O371  1  0.13095380  0.37253140  0.12465169  1
  O  O372  1  0.13176944  0.37800442  0.63185586  1
  O  O373  1  0.13160720  0.88672932  0.11839762  1
  O  O374  1  0.13129609  0.87862072  0.63154191  1
  O  O375  1  0.62660020  0.38415665  0.13436561  1
  O  O376  1  0.61738109  0.38382595  0.63824784  1
  O  O377  1  0.63812535  0.88678234  0.12168079  1
  O  O378  1  0.64021652  0.86868445  0.63249288  1
  O  O379  1  0.11234313  0.24632503  0.25171296  1
  O  O380  1  0.12854521  0.26206013  0.75679454  1
  O  O381  1  0.10975265  0.74202256  0.25645777  1
  O  O382  1  0.12765942  0.76265299  0.75402373  1
  O  O383  1  0.61850342  0.25517528  0.25848230  1
  O  O384  1  0.61791337  0.25809812  0.75407128  1
  O  O385  1  0.61645949  0.75405998  0.26636611  1
  O  O386  1  0.62042975  0.75906236  0.75773946  1
  O  O387  1  0.38166374  0.24729040  0.24865468  1
  O  O388  1  0.38762584  0.25292930  0.75375639  1
  O  O389  1  0.39295354  0.75047485  0.26074780  1
  O  O390  1  0.38174469  0.74424412  0.74369663  1
  O  O391  1  0.88595960  0.24561127  0.23729166  1
  O  O392  1  0.87683325  0.24575952  0.74971275  1
  O  O393  1  0.88751386  0.73751527  0.25650161  1
  O  O394  1  0.87442740  0.73440646  0.75972330  1
  O  O395  1  0.38396961  0.49125207  0.49605846  1
  O  O396  1  0.37986490  0.48745776  0.99864356  1
  O  O397  1  0.38861488  0.99571156  0.49049153  1
  O  O398  1  0.38495214  0.99489486  0.99226901  1
  O  O399  1  0.87642516  0.49070366  0.49833921  1
  O  O400  1  0.86925926  0.50193256  0.98769687  1
  O  O401  1  0.89210824  0.97305271  0.52169185  1
  O  O402  1  0.87980926  1.00865938  0.98147019  1
  O  O403  1  0.11917033  0.00264624  0.00809995  1
  O  O404  1  0.13096510  -0.00286297  0.51240688  1
  O  O405  1  0.12700383  0.50229421  -0.00720287  1
  O  O406  1  0.12857869  0.51427852  0.49772088  1
  O  O407  1  0.60860182  0.00565404  -0.01199603  1
  O  O408  1  0.61457568  0.01078243  0.49382022  1
  O  O409  1  0.61726278  0.50149239  0.00962081  1
  O  O410  1  0.61770990  0.49150762  0.50976592  1
  O  O411  1  0.36962051  0.36828280  0.11887688  1
  O  O412  1  0.36658866  0.37933461  0.61426067  1
  O  O413  1  0.36620776  0.87595572  0.10961578  1
  O  O414  1  0.37274266  0.86850488  0.61941068  1
  O  O415  1  0.86064568  0.36502447  0.12724766  1
  O  O416  1  0.89302106  0.36782204  0.63854153  1
  O  O417  1  0.86305302  0.87263463  0.11564302  1
  O  O418  1  0.86194977  0.86509295  0.62461440  1
  O  O419  1  0.12476983  0.13588863  0.37329444  1
  O  O420  1  0.12864435  0.13048941  0.87093380  1
  O  O421  1  0.12993247  0.63587363  0.38275571  1
  O  O422  1  0.12431603  0.63572142  0.88269631  1
  O  O423  1  0.62186471  0.14091185  0.39492423  1
  O  O424  1  0.62918291  0.13109486  0.87765585  1
  O  O425  1  0.64063818  0.63361809  0.37158514  1
  O  O426  1  0.61947426  0.63807621  0.87636611  1
