# generated using pymatgen
data_V85Zn86O256
_symmetry_space_group_name_H-M   'P 1'
_cell_length_a   16.96762024
_cell_length_b   16.94848657
_cell_length_c   16.95628691
_cell_angle_alpha   89.98680135
_cell_angle_beta   90.00916551
_cell_angle_gamma   89.86084187
_symmetry_Int_Tables_number   1
_chemical_formula_structural   V85Zn86O256
_chemical_formula_sum   'V85 Zn86 O256'
_cell_volume   4876.19783747
_cell_formula_units_Z   1
loop_
 _symmetry_equiv_pos_site_id
 _symmetry_equiv_pos_as_xyz
  1  'x, y, z'
loop_
 _atom_site_type_symbol
 _atom_site_label
 _atom_site_symmetry_multiplicity
 _atom_site_fract_x
 _atom_site_fract_y
 _atom_site_fract_z
 _atom_site_occupancy
  V  V0  1  0.25287023  0.74349058  0.48747180  1
  V  V1  1  0.12580808  0.62805807  0.47559344  1
  V  V2  1  0.00370554  0.85297848  0.37251180  1
  V  V3  1  0.87293592  0.37194876  0.00170125  1
  V  V4  1  0.63077513  0.12043542  0.50640940  1
  V  V5  1  0.75578476  0.37266435  0.62332505  1
  V  V6  1  0.06692313  0.80973160  0.92972411  1
  V  V7  1  0.37235821  0.50440910  0.87802474  1
  V  V8  1  0.37216744  0.88007688  0.00491593  1
  V  V9  1  0.12976257  0.12357223  0.49611797  1
  V  V10  1  0.12593685  0.49269879  0.12757682  1
  V  V11  1  0.37134908  0.63360490  0.74392289  1
  V  V12  1  0.24954407  0.50284426  0.74870999  1
  V  V13  1  -0.00172334  0.37132657  0.87382204  1
  V  V14  1  0.36483158  0.00307518  0.37649177  1
  V  V15  1  0.62717409  0.50545817  0.13006254  1
  V  V16  1  0.49706186  0.63326257  0.61876138  1
  V  V17  1  0.36486421  0.50164433  0.36756461  1
  V  V18  1  0.87701358  0.62585208  0.74235415  1
  V  V19  1  0.76163655  0.24530711  0.50239205  1
  V  V20  1  0.12407471  0.62179745  -0.00472811  1
  V  V21  1  0.50721129  0.74788545  0.75771058  1
  V  V22  1  0.50335487  -0.00141532  0.50825513  1
  V  V23  1  0.37710783  0.12483303  0.74611344  1
  V  V24  1  0.87077270  0.49908639  0.87343826  1
  V  V25  1  0.38101630  -0.00058301  0.87312114  1
  V  V26  1  0.63156628  0.24438320  0.37809919  1
  V  V27  1  -0.00377296  0.12458393  0.62549709  1
  V  V28  1  0.24652369  0.12938896  0.86762440  1
  V  V29  1  0.00033347  0.24466278  0.24695432  1
  V  V30  1  0.76044075  0.87168036  0.13221450  1
  V  V31  1  0.86803512  0.63796237  0.24662599  1
  V  V32  1  -0.00449131  0.37194955  0.37438061  1
  V  V33  1  0.25017553  -0.00370710  0.74720234  1
  V  V34  1  0.13125308  0.24698805  0.37276243  1
  V  V35  1  0.50014371  0.25114060  0.74832580  1
  V  V36  1  0.74418196  0.63102257  0.87272808  1
  V  V37  1  0.24871305  0.37652136  0.62414673  1
  V  V38  1  0.38306292  0.24737764  0.12431986  1
  V  V39  1  -0.00346135  0.49561720  -0.00015513  1
  V  V40  1  0.74621807  0.87626677  0.62369844  1
  V  V41  1  0.11968506  0.86870943  0.74978863  1
  V  V42  1  0.37000272  0.75389766  0.12789389  1
  V  V43  1  0.25064852  0.24635466  0.49946379  1
  V  V44  1  0.37190316  0.87024818  0.50559137  1
  V  V45  1  0.74858075  0.74325660  0.50084374  1
  V  V46  1  0.37658418  0.37434413  0.50042468  1
  V  V47  1  0.76593177  0.76065936  -0.00275694  1
  V  V48  1  0.12383871  0.37497779  0.74864428  1
  V  V49  1  -0.00143587  0.50361853  0.50102334  1
  V  V50  1  0.74890019  0.38158775  0.13588942  1
  V  V51  1  0.62915159  -0.00438686  0.14670153  1
  V  V52  1  0.12273617  0.51233093  0.62287369  1
  V  V53  1  0.87481484  0.12606854  0.75149175  1
  V  V54  1  0.50773133  0.00581743  0.00877023  1
  V  V55  1  0.62466150  0.25055493  0.87478738  1
  V  V56  1  0.50152861  0.75453652  0.24931499  1
  V  V57  1  0.62439451  0.50461540  0.62107117  1
  V  V58  1  0.74399624  0.00075992  0.74589969  1
  V  V59  1  0.88183136  -0.01279472  0.88402221  1
  V  V60  1  0.85806372  0.23775324  0.14554402  1
  V  V61  1  0.87018823  0.49778289  0.36474556  1
  V  V62  1  0.50549425  0.24305926  0.24754385  1
  V  V63  1  0.14804451  0.10870418  0.03308628  1
  V  V64  1  0.62567172  0.37732149  0.74845815  1
  V  V65  1  0.12415148  -0.00420002  0.62438953  1
  V  V66  1  0.74158921  0.62131034  0.37054210  1
  V  V67  1  0.25014122  0.75656409  -0.00215051  1
  V  V68  1  -0.00690272  0.11747122  0.11889089  1
  V  V69  1  0.50315531  0.37488861  0.37429548  1
  V  V70  1  0.50347577  0.50385780  0.49763097  1
  V  V71  1  -0.00781437  0.62943182  0.12169595  1
  V  V72  1  0.75088088  0.25577011  -0.00457376  1
  V  V73  1  0.75218185  0.12196677  0.88349146  1
  V  V74  1  0.36869626  0.12443801  0.25687319  1
  V  V75  1  0.37673803  0.24947962  0.62410966  1
  V  V76  1  0.62390843  0.74987862  0.37874634  1
  V  V77  1  -0.00174716  0.24993303  0.74547462  1
  V  V78  1  0.25136031  0.25443367  0.00011938  1
  V  V79  1  0.49930701  0.50493648  0.00142574  1
  V  V80  1  -0.00332626  -0.00362995  0.48987196  1
  V  V81  1  0.49985705  0.37869063  0.87374711  1
  V  V82  1  0.62358923  0.63997593  -0.00148058  1
  V  V83  1  0.00463515  0.74650191  0.73989580  1
  V  V84  1  0.50163901  0.87654139  0.37467354  1
  Zn  Zn85  1  0.50732648  0.86797485  0.88066956  1
  Zn  Zn86  1  0.62557841  0.87406947  0.75026998  1
  Zn  Zn87  1  0.13027429  0.37581776  0.25316217  1
  Zn  Zn88  1  0.25597289  0.37486463  0.13677612  1
  Zn  Zn89  1  0.62792018  0.38025192  0.25322395  1
  Zn  Zn90  1  0.13446366  0.87985544  0.25371477  1
  Zn  Zn91  1  0.00420083  -0.01132578  -0.00195151  1
  Zn  Zn92  1  0.20382404  0.97267255  0.17186329  1
  Zn  Zn93  1  0.87439366  0.87360429  0.50112463  1
  Zn  Zn94  1  0.87725189  0.37454860  0.50336213  1
  Zn  Zn95  1  0.00501902  0.74237645  0.25141226  1
  Zn  Zn96  1  0.62083517  0.12822913  0.00790726  1
  Zn  Zn97  1  0.74943658  0.50245158  0.74717440  1
  Zn  Zn98  1  0.24319772  0.63112836  0.87269345  1
  Zn  Zn99  1  0.25088353  0.86163180  0.62580847  1
  Zn  Zn100  1  0.36514123  0.63185526  0.26217829  1
  Zn  Zn101  1  0.87716509  0.74783581  0.62216957  1
  Zn  Zn102  1  0.50078917  0.62837301  0.12993824  1
  Zn  Zn103  1  0.85397286  0.01861670  0.35363023  1
  Zn  Zn104  1  0.12222133  0.24642604  0.87934527  1
  Zn  Zn105  1  0.50596072  0.11845342  0.62895491  1
  Zn  Zn106  1  0.37463249  0.37989484  0.00347145  1
  Zn  Zn107  1  0.19289423  0.18358341  0.18983248  1
  Zn  Zn108  1  0.18478429  0.18750746  0.68507554  1
  Zn  Zn109  1  0.19417482  0.68716529  0.20276354  1
  Zn  Zn110  1  0.18987835  0.69107261  0.68031748  1
  Zn  Zn111  1  0.67665470  0.18854301  0.17959221  1
  Zn  Zn112  1  0.68949351  0.18802033  0.68576374  1
  Zn  Zn113  1  0.68865560  0.69894657  0.18846842  1
  Zn  Zn114  1  0.68603297  0.68564394  0.68384103  1
  Zn  Zn115  1  0.31297482  0.31298209  0.31165492  1
  Zn  Zn116  1  0.31359181  0.31621528  0.81205407  1
  Zn  Zn117  1  0.30803025  0.82490081  0.30854017  1
  Zn  Zn118  1  0.31277004  0.81307098  0.81550050  1
  Zn  Zn119  1  0.81395620  0.19838345  0.31723025  1
  Zn  Zn120  1  0.81361602  0.31170871  0.80790679  1
  Zn  Zn121  1  0.79811667  0.84877429  0.32875681  1
  Zn  Zn122  1  0.81212078  0.81135484  0.81068329  1
  Zn  Zn123  1  0.18500491  0.43356795  0.43710230  1
  Zn  Zn124  1  0.18649416  0.43769412  0.93668728  1
  Zn  Zn125  1  0.18557248  0.93388203  0.43197331  1
  Zn  Zn126  1  0.19467201  0.94414699  0.93855843  1
  Zn  Zn127  1  0.68887886  0.43562257  0.43783928  1
  Zn  Zn128  1  0.68450354  0.44368208  0.93963408  1
  Zn  Zn129  1  0.68523677  0.93654733  0.43996778  1
  Zn  Zn130  1  0.68779963  0.93282894  0.93180503  1
  Zn  Zn131  1  0.32604493  0.07561184  0.06037110  1
  Zn  Zn132  1  0.31307839  0.05867481  0.56200013  1
  Zn  Zn133  1  0.29298891  0.58307376  0.09684110  1
  Zn  Zn134  1  0.31227993  0.56511390  0.55688727  1
  Zn  Zn135  1  0.81623974  0.05690982  0.17766795  1
  Zn  Zn136  1  0.81507301  0.06133823  0.56261864  1
  Zn  Zn137  1  0.80884747  0.56579775  0.06065552  1
  Zn  Zn138  1  0.81079514  0.56222039  0.55763135  1
  Zn  Zn139  1  0.44053863  0.43358946  0.18790131  1
  Zn  Zn140  1  0.43657627  0.44189990  0.68700044  1
  Zn  Zn141  1  0.43438385  0.93849756  0.18939907  1
  Zn  Zn142  1  0.43739940  0.93249492  0.68565770  1
  Zn  Zn143  1  0.93825507  0.43089760  0.18833113  1
  Zn  Zn144  1  0.93788875  0.44145117  0.68548504  1
  Zn  Zn145  1  0.94508456  0.92901032  0.18692531  1
  Zn  Zn146  1  0.93312058  0.93537531  0.68869301  1
  Zn  Zn147  1  0.05870229  0.06256301  0.30507378  1
  Zn  Zn148  1  0.06159284  0.05804173  0.81263990  1
  Zn  Zn149  1  0.05584413  0.55881533  0.30713272  1
  Zn  Zn150  1  0.05955341  0.56254732  0.81297447  1
  Zn  Zn151  1  0.55996781  0.06410154  0.32197736  1
  Zn  Zn152  1  0.56502876  0.06259899  0.81607774  1
  Zn  Zn153  1  0.55648881  0.56841433  0.31024603  1
  Zn  Zn154  1  0.56248242  0.56527402  0.81068545  1
  Zn  Zn155  1  0.44383986  0.18567577  0.43808318  1
  Zn  Zn156  1  0.43727752  0.18642109  0.93541585  1
  Zn  Zn157  1  0.43463707  0.68674275  0.43627417  1
  Zn  Zn158  1  0.43131138  0.68610726  0.93931641  1
  Zn  Zn159  1  0.94237656  0.18383975  0.43832245  1
  Zn  Zn160  1  0.93749608  0.18241434  0.94145655  1
  Zn  Zn161  1  0.93145911  0.68241300  0.43751525  1
  Zn  Zn162  1  0.93311323  0.68221497  0.93345728  1
  Zn  Zn163  1  0.06089667  0.30297288  0.06251418  1
  Zn  Zn164  1  0.06230745  0.31360352  0.56281678  1
  Zn  Zn165  1  0.09115059  0.80102824  0.11007359  1
  Zn  Zn166  1  0.06756725  0.80807298  0.55921505  1
  Zn  Zn167  1  0.56338679  0.31778636  0.06217833  1
  Zn  Zn168  1  0.56680310  0.31188904  0.56202399  1
  Zn  Zn169  1  0.56131655  0.82126779  0.06602419  1
  Zn  Zn170  1  0.56617141  0.81210188  0.56271658  1
  O  O171  1  0.10196723  0.14489909  0.12713297  1
  O  O172  1  0.11526227  0.11686594  0.62072070  1
  O  O173  1  0.11169135  0.60904420  0.11097582  1
  O  O174  1  0.12580673  0.61327755  0.61972375  1
  O  O175  1  0.62998727  0.10272682  0.12175480  1
  O  O176  1  0.62181925  0.13139766  0.61201918  1
  O  O177  1  0.62280669  0.62270389  0.11649018  1
  O  O178  1  0.61473498  0.61109067  0.62869201  1
  O  O179  1  0.38791600  0.37816018  0.38105032  1
  O  O180  1  0.38132074  0.38857906  0.87428062  1
  O  O181  1  0.38340984  0.88341094  0.38561096  1
  O  O182  1  0.37982486  0.88553465  0.88154991  1
  O  O183  1  0.88907133  0.38257646  0.38000906  1
  O  O184  1  0.87924101  0.37898580  0.87836863  1
  O  O185  1  0.89843429  0.86986497  0.38476080  1
  O  O186  1  0.87307044  0.88868673  0.86830011  1
  O  O187  1  0.26643305  0.00177258  0.38827222  1
  O  O188  1  0.26259327  0.00876250  0.86734754  1
  O  O189  1  0.26730538  0.48881050  0.37982375  1
  O  O190  1  0.25680175  0.50248646  0.86819478  1
  O  O191  1  0.76336528  -0.04609623  0.36567484  1
  O  O192  1  0.75977714  0.00878186  0.86895881  1
  O  O193  1  0.75784335  0.50839045  0.38091540  1
  O  O194  1  0.75608008  0.50822600  0.87344643  1
  O  O195  1  0.22849996  0.48760366  0.10511294  1
  O  O196  1  0.24282949  0.49662104  0.62808144  1
  O  O197  1  0.22392752  1.06435076  0.10779599  1
  O  O198  1  0.23722049  0.99831831  0.62980974  1
  O  O199  1  0.73874513  0.49283557  0.11498006  1
  O  O200  1  0.73939661  0.49542847  0.62237556  1
  O  O201  1  0.73805549  0.98537094  0.13161626  1
  O  O202  1  0.75651415  0.99062292  0.63386793  1
  O  O203  1  0.00772243  0.36374856  0.25727373  1
  O  O204  1  0.00143520  0.36710796  0.75177506  1
  O  O205  1  0.00086561  0.86491426  0.26485739  1
  O  O206  1  0.01254993  0.86766852  0.74771985  1
  O  O207  1  0.50416120  0.36443838  0.25984680  1
  O  O208  1  0.50513714  0.37241752  0.75432717  1
  O  O209  1  0.49090967  0.86520683  0.26174139  1
  O  O210  1  0.49625723  0.85501025  0.74508227  1
  O  O211  1  0.49636107  0.13967305  0.25829097  1
  O  O212  1  0.49460449  0.13099876  0.74940073  1
  O  O213  1  0.48838732  0.64001353  0.24971203  1
  O  O214  1  0.49229365  0.63312928  0.74349444  1
  O  O215  1  0.99698420  0.13775398  0.23916977  1
  O  O216  1  0.99603653  0.13051652  0.74468067  1
  O  O217  1  0.99047080  0.62317021  0.23868269  1
  O  O218  1  0.99023198  0.63424860  0.75686349  1
  O  O219  1  0.37216877  0.24979753  0.00828431  1
  O  O220  1  0.37221069  0.25370289  0.50418873  1
  O  O221  1  0.37012110  0.76343829  0.00200786  1
  O  O222  1  0.36398250  0.75582196  0.49583526  1
  O  O223  1  0.86412026  0.25360744  0.00454867  1
  O  O224  1  0.86437136  0.25222139  0.49917425  1
  O  O225  1  0.86375513  0.74878053  -0.00275877  1
  O  O226  1  0.86477873  0.74820389  0.50318533  1
  O  O227  1  0.12841874  0.24146510  0.49633096  1
  O  O228  1  0.13732748  0.23393840  1.00038237  1
  O  O229  1  0.13032200  0.73295768  0.49526058  1
  O  O230  1  0.12674839  0.74907722  0.99934190  1
  O  O231  1  0.63247955  0.24355785  0.49415187  1
  O  O232  1  0.63136083  0.25015841  0.99353151  1
  O  O233  1  0.62932203  0.74800221  0.48791142  1
  O  O234  1  0.61909607  0.74114036  0.99997064  1
  O  O235  1  0.49729403  0.25567386  0.13452981  1
  O  O236  1  0.49328145  0.25210721  0.63189513  1
  O  O237  1  0.49587091  0.75561912  0.13560856  1
  O  O238  1  0.50371744  0.73673147  0.63073802  1
  O  O239  1  0.98364002  0.24780714  0.13252181  1
  O  O240  1  1.00529473  0.24148033  0.63670527  1
  O  O241  1  0.99753981  0.73071375  0.11597237  1
  O  O242  1  0.99963504  0.75097357  0.63601028  1
  O  O243  1  0.00649249  0.25450441  0.36831886  1
  O  O244  1  0.00116395  0.25128315  0.86420817  1
  O  O245  1  0.00454379  0.75047583  0.37619336  1
  O  O246  1  0.00425996  0.75279199  0.87172682  1
  O  O247  1  0.51100085  0.25790393  0.37251714  1
  O  O248  1  0.50341597  0.25714226  0.86894074  1
  O  O249  1  0.50288055  0.75531408  0.37163184  1
  O  O250  1  0.49334706  0.74730469  0.86059781  1
  O  O251  1  0.23667506  0.12951187  0.50871803  1
  O  O252  1  0.25220417  0.13687323  0.98404159  1
  O  O253  1  0.23857536  0.63079209  0.49560526  1
  O  O254  1  0.23725692  0.63493721  1.00196704  1
  O  O255  1  0.74372379  0.13320860  0.50976987  1
  O  O256  1  0.74698351  0.13667104  0.98693502  1
  O  O257  1  0.75210838  0.63532896  0.48884832  1
  O  O258  1  0.74285357  0.63689773  0.99290691  1
  O  O259  1  0.25285365  0.36137645  -0.00504180  1
  O  O260  1  0.25520108  0.36780147  0.50670924  1
  O  O261  1  0.26199701  0.87362197  -0.00313585  1
  O  O262  1  0.25508384  0.86442513  0.49851461  1
  O  O263  1  0.75463150  0.37038038  -0.00057224  1
  O  O264  1  0.75119975  0.36621634  0.50754482  1
  O  O265  1  0.74833104  0.86393716  0.00217086  1
  O  O266  1  0.74944289  0.86123980  0.50905219  1
  O  O267  1  0.11797057  0.49794871  0.23030118  1
  O  O268  1  0.12702307  0.49623356  0.74145946  1
  O  O269  1  0.13647082  0.99993663  0.26352810  1
  O  O270  1  0.12849216  0.99079928  0.74312637  1
  O  O271  1  0.61425644  0.50174641  0.23382812  1
  O  O272  1  0.62481764  0.49363900  0.74104643  1
  O  O273  1  0.61619666  0.99947331  0.24470769  1
  O  O274  1  0.64169229  1.00819376  0.74999969  1
  O  O275  1  0.38492737  0.01662543  0.25846097  1
  O  O276  1  0.37273743  0.00272018  0.75579005  1
  O  O277  1  0.38365651  0.49619050  0.26639152  1
  O  O278  1  0.36978419  0.50998075  0.75635054  1
  O  O279  1  0.88539890  0.00383920  0.24564571  1
  O  O280  1  0.86962049  0.01185187  0.75541478  1
  O  O281  1  0.88115356  0.50149750  0.26260343  1
  O  O282  1  0.87385038  0.50710907  0.75663057  1
  O  O283  1  0.11302774  0.36484779  0.37833001  1
  O  O284  1  0.11597780  0.37271435  0.86730795  1
  O  O285  1  0.10691236  0.87561089  0.37609606  1
  O  O286  1  0.12642544  0.87272654  0.87166215  1
  O  O287  1  0.61640240  0.36935415  0.37487397  1
  O  O288  1  0.61971871  0.37203978  0.86918848  1
  O  O289  1  0.60771091  0.86531486  0.38211708  1
  O  O290  1  0.61675726  0.88417558  0.86229501  1
  O  O291  1  0.38155974  0.13822681  0.14055753  1
  O  O292  1  0.37828078  0.12979766  0.63095257  1
  O  O293  1  0.38737267  0.64956393  0.10678449  1
  O  O294  1  0.38463253  0.61595154  0.63305989  1
  O  O295  1  0.88641404  0.13420367  0.11016807  1
  O  O296  1  0.88995525  0.12039303  0.63305082  1
  O  O297  1  0.88026392  0.61392054  0.13465647  1
  O  O298  1  0.86882670  0.62296165  0.63917644  1
  O  O299  1  0.26070442  0.24956092  0.11504016  1
  O  O300  1  0.25621647  0.25549575  0.62001407  1
  O  O301  1  0.25837222  0.75172062  0.10852392  1
  O  O302  1  0.24489192  0.74927341  0.60167918  1
  O  O303  1  0.74711294  0.26384342  0.10922672  1
  O  O304  1  0.74501890  0.26137452  0.61580544  1
  O  O305  1  0.74209155  0.75846504  0.10390827  1
  O  O306  1  0.75041428  0.75171590  0.61696613  1
  O  O307  1  0.23860358  0.25399024  0.38474584  1
  O  O308  1  0.25074086  0.24437436  0.87801552  1
  O  O309  1  0.25323694  0.75426341  0.38622965  1
  O  O310  1  0.25509172  0.74746145  0.89063256  1
  O  O311  1  0.73768427  0.25491038  0.38540623  1
  O  O312  1  0.74674871  0.24686779  0.88035190  1
  O  O313  1  0.74032878  0.74763846  0.38134965  1
  O  O314  1  0.75142273  0.74366988  0.88511606  1
  O  O315  1  0.01172264  0.12680637  0.01170048  1
  O  O316  1  0.00866495  0.11630140  0.50959274  1
  O  O317  1  0.00032699  0.61446030  0.00177425  1
  O  O318  1  0.01452207  0.61629922  0.49123895  1
  O  O319  1  0.49861330  0.11048544  -0.00162170  1
  O  O320  1  0.50857695  0.11491666  0.50356943  1
  O  O321  1  0.50748955  0.61705895  -0.00489789  1
  O  O322  1  0.49426579  0.61622167  0.50747190  1
  O  O323  1  0.49630267  0.38008958  0.49365056  1
  O  O324  1  0.50016053  0.38905629  0.99201126  1
  O  O325  1  0.49268668  0.87829315  0.49753811  1
  O  O326  1  0.49042957  0.88896521  0.99743439  1
  O  O327  1  0.99922102  0.38221869  0.49357496  1
  O  O328  1  0.99255963  0.37424102  0.99337924  1
  O  O329  1  1.00479945  0.88308739  0.49365129  1
  O  O330  1  1.01455908  0.86736186  0.99046349  1
  O  O331  1  0.49833362  0.49290767  0.38192245  1
  O  O332  1  0.49329693  0.49883869  0.87898630  1
  O  O333  1  0.49426186  0.99191427  0.38721884  1
  O  O334  1  0.48861579  1.00417996  0.88149772  1
  O  O335  1  0.99593748  0.49155951  0.38165721  1
  O  O336  1  0.99098992  0.49234725  0.88083257  1
  O  O337  1  0.99730707  1.00581552  0.38896302  1
  O  O338  1  0.98757860  1.00354174  0.87602449  1
  O  O339  1  -0.00580909  0.01527938  0.11738741  1
  O  O340  1  0.00989698  0.00400901  0.62158205  1
  O  O341  1  0.00343917  0.49923425  0.11450124  1
  O  O342  1  0.00814791  0.49460336  0.60986582  1
  O  O343  1  0.51067844  -0.00533507  0.11432622  1
  O  O344  1  0.49803224  -0.00209873  0.61298009  1
  O  O345  1  0.50378301  0.50330936  0.11548835  1
  O  O346  1  0.50513111  0.50616369  0.61698876  1
  O  O347  1  0.24273502  0.37010742  0.24869280  1
  O  O348  1  0.24471093  0.38313590  0.74421102  1
  O  O349  1  0.25298523  0.89114057  0.24066832  1
  O  O350  1  0.24009925  0.87786216  0.74882009  1
  O  O351  1  0.74597608  0.37525463  0.23467029  1
  O  O352  1  0.74339653  0.37676915  0.74166640  1
  O  O353  1  0.74615742  0.84457124  0.22728689  1
  O  O354  1  0.75052381  0.88420970  0.74336528  1
  O  O355  1  0.27026687  0.13417999  0.25883214  1
  O  O356  1  0.25781868  0.11891997  0.74976660  1
  O  O357  1  0.26852147  0.60978445  0.20921860  1
  O  O358  1  0.25508428  0.62129897  0.74970720  1
  O  O359  1  0.78093391  0.16158507  0.21376383  1
  O  O360  1  0.75855981  0.12312974  0.75619028  1
  O  O361  1  0.75510194  0.63021147  0.25711653  1
  O  O362  1  0.75489198  0.62544073  0.75759474  1
  O  O363  1  0.38336173  0.11832149  0.36654507  1
  O  O364  1  0.36689872  0.12076265  0.86565788  1
  O  O365  1  0.37467139  0.60664658  0.37730990  1
  O  O366  1  0.37100163  0.61559531  0.86682176  1
  O  O367  1  0.86507478  0.12589396  0.38465411  1
  O  O368  1  0.86775550  0.12144666  0.86907855  1
  O  O369  1  0.86445288  0.61686468  0.36547159  1
  O  O370  1  0.86314414  0.61881102  0.86624525  1
  O  O371  1  0.11936731  0.38439129  0.12072866  1
  O  O372  1  0.13069638  0.38385759  0.62910300  1
  O  O373  1  0.11897197  0.90407058  0.13142521  1
  O  O374  1  0.12665310  0.88075446  0.63189236  1
  O  O375  1  0.63228592  0.38695287  0.12391848  1
  O  O376  1  0.63166947  0.38490326  0.62879188  1
  O  O377  1  0.63244232  0.89154724  0.11948809  1
  O  O378  1  0.63939150  0.86880216  0.63198751  1
  O  O379  1  0.11976913  0.24642112  0.25961539  1
  O  O380  1  0.11733259  0.25794112  0.75038638  1
  O  O381  1  0.11722939  0.75973730  0.22359030  1
  O  O382  1  0.11920738  0.75505267  0.74839937  1
  O  O383  1  0.62103089  0.25127657  0.25899469  1
  O  O384  1  0.61994228  0.25719744  0.75458260  1
  O  O385  1  0.61246597  0.74518761  0.26476406  1
  O  O386  1  0.60905660  0.74331405  0.75039486  1
  O  O387  1  0.38526932  0.24332398  0.24734040  1
  O  O388  1  0.38006189  0.24584980  0.74440255  1
  O  O389  1  0.37726303  0.75183438  0.24159322  1
  O  O390  1  0.37886877  0.73779765  0.75159429  1
  O  O391  1  0.88590989  0.26371298  0.24564298  1
  O  O392  1  0.88279743  0.23628198  0.75224134  1
  O  O393  1  0.87981979  0.73665247  0.25406480  1
  O  O394  1  0.88491860  0.74204035  0.75000882  1
  O  O395  1  0.38519137  0.49245098  0.49333529  1
  O  O396  1  0.38340591  0.50173205  0.99056181  1
  O  O397  1  0.38325623  0.99490901  0.49466047  1
  O  O398  1  0.38211783  0.99887940  0.99527869  1
  O  O399  1  0.88517580  0.50283605  0.49008091  1
  O  O400  1  0.87823147  0.49326792  0.99339915  1
  O  O401  1  0.89224874  0.99615039  0.50680458  1
  O  O402  1  0.88110730  0.99876129  0.98257412  1
  O  O403  1  0.12306254  0.01826771  -0.01225809  1
  O  O404  1  0.11837056  0.00506660  0.50612672  1
  O  O405  1  0.11411099  0.50386982  0.00124102  1
  O  O406  1  0.12148367  0.50970593  0.50273359  1
  O  O407  1  0.61082720  0.00277869  -0.00634045  1
  O  O408  1  0.61780746  0.00840706  0.49670834  1
  O  O409  1  0.61658127  0.51071451  0.00778982  1
  O  O410  1  0.61147543  0.49402218  0.50643619  1
  O  O411  1  0.37523353  0.36323496  0.12267776  1
  O  O412  1  0.36933139  0.37148144  0.61999663  1
  O  O413  1  0.38052807  0.86918279  0.11426544  1
  O  O414  1  0.36883911  0.88045061  0.60965625  1
  O  O415  1  0.86475444  0.36628954  0.12095628  1
  O  O416  1  0.85984194  0.38377601  0.62353818  1
  O  O417  1  0.85972547  0.87868150  0.12396718  1
  O  O418  1  0.86330270  0.86911941  0.62402611  1
  O  O419  1  0.11461743  0.13583060  0.38782578  1
  O  O420  1  0.14189410  0.12617371  0.86155898  1
  O  O421  1  0.12790500  0.61718738  0.37743394  1
  O  O422  1  0.12414666  0.61927642  0.88945819  1
  O  O423  1  0.62300107  0.13431876  0.38893421  1
  O  O424  1  0.63484288  0.13466928  0.87565635  1
  O  O425  1  0.63537761  0.62858035  0.37101451  1
  O  O426  1  0.63748985  0.61849807  0.88184056  1
