# generated using pymatgen
data_V85Zn86O256
_symmetry_space_group_name_H-M   'P 1'
_cell_length_a   16.94494204
_cell_length_b   16.95213974
_cell_length_c   16.94432543
_cell_angle_alpha   90.04695055
_cell_angle_beta   89.94679806
_cell_angle_gamma   89.99848873
_symmetry_Int_Tables_number   1
_chemical_formula_structural   V85Zn86O256
_chemical_formula_sum   'V85 Zn86 O256'
_cell_volume   4867.30500642
_cell_formula_units_Z   1
loop_
 _symmetry_equiv_pos_site_id
 _symmetry_equiv_pos_as_xyz
  1  'x, y, z'
loop_
 _atom_site_type_symbol
 _atom_site_label
 _atom_site_symmetry_multiplicity
 _atom_site_fract_x
 _atom_site_fract_y
 _atom_site_fract_z
 _atom_site_occupancy
  V  V0  1  0.25433694  0.50083903  0.24723817  1
  V  V1  1  0.25446838  0.00105190  0.75349924  1
  V  V2  1  0.49966723  0.62672342  0.12401267  1
  V  V3  1  0.25149126  0.12458267  0.37628962  1
  V  V4  1  0.50176788  0.76503652  0.25276509  1
  V  V5  1  0.38102389  0.48878763  0.37531373  1
  V  V6  1  0.74614243  0.74611618  -0.00216885  1
  V  V7  1  0.88142703  0.25535105  0.62709695  1
  V  V8  1  0.62225731  -0.00194939  0.13408645  1
  V  V9  1  0.62171796  0.00211724  0.62369273  1
  V  V10  1  0.24943160  0.75426665  0.49543022  1
  V  V11  1  0.73992842  0.87457518  0.12012880  1
  V  V12  1  0.62622370  0.25262343  0.86700562  1
  V  V13  1  0.87915546  0.87121606  -0.00270800  1
  V  V14  1  0.25480609  0.12208796  0.87397666  1
  V  V15  1  0.75384651  0.74781246  0.50042653  1
  V  V16  1  0.75502729  0.12798700  0.88540066  1
  V  V17  1  0.11857099  0.00248809  0.62477934  1
  V  V18  1  0.49998612  0.62657592  0.62151687  1
  V  V19  1  -0.00009189  0.25587445  0.25395693  1
  V  V20  1  0.11878439  0.36900327  0.74296099  1
  V  V21  1  0.25073528  0.25071039  0.00259470  1
  V  V22  1  0.50308425  0.37098548  0.85987870  1
  V  V23  1  0.37265252  0.88215896  0.00013836  1
  V  V24  1  0.37288238  0.75396920  0.12420919  1
  V  V25  1  0.62025748  0.76357628  0.37268899  1
  V  V26  1  0.87889299  -0.00229164  0.88032442  1
  V  V27  1  0.38069174  0.37519552  0.00166875  1
  V  V28  1  0.12055521  0.61844828  0.50038981  1
  V  V29  1  0.12483071  0.12497349  0.00239606  1
  V  V30  1  -0.00238818  0.75041994  0.25188978  1
  V  V31  1  0.62239879  0.49504288  0.12476271  1
  V  V32  1  0.77563623  0.90175640  0.60227259  1
  V  V33  1  0.75389820  0.26605777  0.00792300  1
  V  V34  1  0.62264487  0.48945828  0.62947288  1
  V  V35  1  -0.00202326  0.12722186  0.12455634  1
  V  V36  1  0.49917179  -0.01150717  0.49707476  1
  V  V37  1  0.87666961  0.61929448  0.75155295  1
  V  V38  1  0.61934321  0.12559633  0.49998180  1
  V  V39  1  0.62943951  0.87540192  0.74887926  1
  V  V40  1  0.87243014  0.74507890  0.12689344  1
  V  V41  1  -0.00651128  0.49006070  0.00270142  1
  V  V42  1  0.24851968  0.62881247  0.37476623  1
  V  V43  1  0.37459624  0.36481272  0.51296686  1
  V  V44  1  0.50545871  0.24595036  0.24236264  1
  V  V45  1  0.37686175  0.62720177  0.25210288  1
  V  V46  1  0.75229549  0.12764473  0.37329075  1
  V  V47  1  0.37486123  0.75362209  0.61854648  1
  V  V48  1  0.75426782  0.49669322  0.24747891  1
  V  V49  1  0.24756351  0.62488511  0.87252257  1
  V  V50  1  -0.00346070  0.62310963  0.12623514  1
  V  V51  1  0.00099306  -0.00579604  0.00160187  1
  V  V52  1  0.37287764  0.62635095  0.74685817  1
  V  V53  1  0.25031627  0.75455406  0.00032459  1
  V  V54  1  0.88897848  0.09753110  0.26262761  1
  V  V55  1  0.87355781  0.27119597  0.12984764  1
  V  V56  1  0.38321863  0.12318059  0.24628004  1
  V  V57  1  0.87150831  0.48709280  0.87909489  1
  V  V58  1  0.87567902  0.38863383  0.49604193  1
  V  V59  1  0.37654782  -0.01071943  0.37979456  1
  V  V60  1  0.87357762  0.74683663  0.62549812  1
  V  V61  1  0.49544104  0.88134337  0.87230088  1
  V  V62  1  0.74758964  0.62217352  0.87383028  1
  V  V63  1  0.11728272  0.25101036  0.87482325  1
  V  V64  1  0.49819979  0.00988387  0.00052226  1
  V  V65  1  0.25160471  -0.00321573  0.24314796  1
  V  V66  1  0.13313386  0.86478209  0.24436431  1
  V  V67  1  0.75518361  0.61781879  0.36891285  1
  V  V68  1  0.75337735  -0.00061625  0.75758353  1
  V  V69  1  0.62072445  0.37761508  0.25596924  1
  V  V70  1  0.11516359  0.12570662  0.49813480  1
  V  V71  1  0.25194412  0.87670219  0.62126541  1
  V  V72  1  0.88699263  0.13086955  0.75456286  1
  V  V73  1  0.11483209  0.75121781  0.87672392  1
  V  V74  1  0.11999277  0.87458007  0.75580754  1
  V  V75  1  0.61788146  0.25469387  0.37804814  1
  V  V76  1  0.24682739  0.49239931  0.74001636  1
  V  V77  1  0.37261624  0.23571945  0.64605164  1
  V  V78  1  0.13043893  0.37437988  0.25316938  1
  V  V79  1  0.12856517  0.49989757  0.12113284  1
  V  V80  1  0.75936139  -0.02521158  0.27130447  1
  V  V81  1  0.50011507  0.75258865  0.74738851  1
  V  V82  1  0.62121909  0.62223632  0.49638378  1
  V  V83  1  0.37469016  0.49899854  0.87246541  1
  V  V84  1  0.62811526  0.12920673  0.01302866  1
  Zn  Zn85  1  0.74367777  0.36626593  0.63164564  1
  Zn  Zn86  1  0.38192803  0.24683076  0.12440443  1
  Zn  Zn87  1  0.74413081  0.49104484  0.75212826  1
  Zn  Zn88  1  -0.00244948  0.61810424  0.62052958  1
  Zn  Zn89  1  0.74976472  0.25244294  0.50247735  1
  Zn  Zn90  1  -0.00415898  0.75086814  0.75433555  1
  Zn  Zn91  1  0.11993871  0.48843359  0.61481033  1
  Zn  Zn92  1  0.50024434  0.50161114  -0.00281575  1
  Zn  Zn93  1  0.00548034  0.39365352  0.38918215  1
  Zn  Zn94  1  0.12908713  -0.00512828  0.12432345  1
  Zn  Zn95  1  0.12563248  0.25205461  0.37759927  1
  Zn  Zn96  1  0.49975857  0.12853616  0.64443361  1
  Zn  Zn97  1  0.24699054  0.25268547  0.50654087  1
  Zn  Zn98  1  0.62276975  0.74955421  0.87307793  1
  Zn  Zn99  1  0.12371309  0.62299967  -0.00363372  1
  Zn  Zn100  1  0.07387032  0.79159624  0.40957387  1
  Zn  Zn101  1  -0.00384658  0.36935802  0.87648126  1
  Zn  Zn102  1  0.41873506  0.06643416  0.81068326  1
  Zn  Zn103  1  0.25536827  0.37461974  0.12418309  1
  Zn  Zn104  1  0.00013685  0.12449286  0.62454045  1
  Zn  Zn105  1  0.50156921  0.49280349  0.49442296  1
  Zn  Zn106  1  0.62127808  0.62395900  -0.00195102  1
  Zn  Zn107  1  0.18920720  0.18533582  0.18870016  1
  Zn  Zn108  1  0.19106360  0.18840638  0.68709472  1
  Zn  Zn109  1  0.18723865  0.68561608  0.18322834  1
  Zn  Zn110  1  0.18557683  0.68819907  0.68562905  1
  Zn  Zn111  1  0.69803167  0.18531215  0.19336757  1
  Zn  Zn112  1  0.69557959  0.18303387  0.68898738  1
  Zn  Zn113  1  0.68277838  0.68616558  0.18898535  1
  Zn  Zn114  1  0.68904353  0.68453595  0.68620923  1
  Zn  Zn115  1  0.31371571  0.30732341  0.31222424  1
  Zn  Zn116  1  0.30737662  0.31317034  0.81607279  1
  Zn  Zn117  1  0.30940460  0.81468301  0.31083888  1
  Zn  Zn118  1  0.31115747  0.81449101  0.81229286  1
  Zn  Zn119  1  0.81040851  0.31406667  0.31364175  1
  Zn  Zn120  1  0.80579105  0.31252011  0.80825880  1
  Zn  Zn121  1  0.80326194  0.80220408  0.30405968  1
  Zn  Zn122  1  0.81381028  0.81143100  0.81314684  1
  Zn  Zn123  1  0.19624717  0.43789873  0.43504263  1
  Zn  Zn124  1  0.18783845  0.43560919  0.93447179  1
  Zn  Zn125  1  0.14841529  0.92374775  0.45242502  1
  Zn  Zn126  1  0.18654301  0.93719586  0.93761692  1
  Zn  Zn127  1  0.69196492  0.43541801  0.44166128  1
  Zn  Zn128  1  0.68300064  0.43774348  0.93810012  1
  Zn  Zn129  1  0.79751253  0.94000586  0.43641295  1
  Zn  Zn130  1  0.68353837  0.93760179  0.94148042  1
  Zn  Zn131  1  0.31503933  0.06571889  0.06341440  1
  Zn  Zn132  1  0.30868394  0.06468559  0.56079541  1
  Zn  Zn133  1  0.31455812  0.56474697  0.05876238  1
  Zn  Zn134  1  0.31166366  0.56135443  0.55864099  1
  Zn  Zn135  1  0.81439374  0.06251343  0.07429325  1
  Zn  Zn136  1  0.80893692  0.07653438  0.56687169  1
  Zn  Zn137  1  0.81062027  0.55833322  0.06521995  1
  Zn  Zn138  1  0.80641942  0.56228759  0.56429290  1
  Zn  Zn139  1  0.44171412  0.43437075  0.18920295  1
  Zn  Zn140  1  0.43666099  0.43849743  0.68303088  1
  Zn  Zn141  1  0.43638221  0.94077787  0.18213264  1
  Zn  Zn142  1  0.43716036  0.93644405  0.68049493  1
  Zn  Zn143  1  0.95526134  0.45847348  0.22364007  1
  Zn  Zn144  1  0.94038226  0.43847683  0.68699210  1
  Zn  Zn145  1  0.94292251  0.93957346  0.20157299  1
  Zn  Zn146  1  0.94057938  0.93882611  0.69229850  1
  Zn  Zn147  1  0.06496197  0.06018014  0.30857932  1
  Zn  Zn148  1  0.06675861  0.05975773  0.81843098  1
  Zn  Zn149  1  0.06530818  0.56627622  0.31311907  1
  Zn  Zn150  1  0.05925633  0.55641475  0.80973355  1
  Zn  Zn151  1  0.56556505  0.05877279  0.31449878  1
  Zn  Zn152  1  0.57894812  0.06562199  0.82007715  1
  Zn  Zn153  1  0.56186733  0.56756390  0.31104687  1
  Zn  Zn154  1  0.55913933  0.56267872  0.81108945  1
  Zn  Zn155  1  0.43975616  0.18475144  0.43461222  1
  Zn  Zn156  1  0.44191118  0.19296342  0.93934256  1
  Zn  Zn157  1  0.43586108  0.68993994  0.43568954  1
  Zn  Zn158  1  0.43670838  0.69057480  0.93472449  1
  Zn  Zn159  1  0.93804526  0.19521538  0.43737275  1
  Zn  Zn160  1  0.93443549  0.19055902  0.94604224  1
  Zn  Zn161  1  0.93172555  0.67907171  0.43911166  1
  Zn  Zn162  1  0.93506812  0.67829246  0.94099806  1
  Zn  Zn163  1  0.06385021  0.31441839  0.06653910  1
  Zn  Zn164  1  0.05720249  0.30989962  0.56203421  1
  Zn  Zn165  1  0.06407560  0.81243376  0.06635022  1
  Zn  Zn166  1  0.05825262  0.81269260  0.57365628  1
  Zn  Zn167  1  0.56507839  0.31517253  0.06241613  1
  Zn  Zn168  1  0.54956601  0.30911672  0.56146180  1
  Zn  Zn169  1  0.55793428  0.81297490  0.05876924  1
  Zn  Zn170  1  0.57225016  0.81539979  0.56199906  1
  O  O171  1  0.11382638  0.12485694  0.12047773  1
  O  O172  1  0.12292195  0.11983186  0.62014000  1
  O  O173  1  0.12072252  0.61315001  0.11942957  1
  O  O174  1  0.12665766  0.62571800  0.60861338  1
  O  O175  1  0.63429479  0.11819813  0.11864418  1
  O  O176  1  0.62443393  0.11729725  0.62072657  1
  O  O177  1  0.61150471  0.61914858  0.12519084  1
  O  O178  1  0.61974597  0.62178960  0.61296304  1
  O  O179  1  0.37372517  0.38746069  0.37187866  1
  O  O180  1  0.38558846  0.37623825  0.88067891  1
  O  O181  1  0.37106457  0.89090002  0.37311760  1
  O  O182  1  0.38721342  0.87098884  0.88258431  1
  O  O183  1  0.87136082  0.36998329  0.39401779  1
  O  O184  1  0.87553835  0.38408770  0.87301337  1
  O  O185  1  0.82776847  0.90829700  0.33498381  1
  O  O186  1  0.87065652  0.87912627  0.88940460  1
  O  O187  1  0.26423640  0.00978077  0.36443023  1
  O  O188  1  0.24439372  0.00973458  0.86782572  1
  O  O189  1  0.26269766  0.50801022  0.36621262  1
  O  O190  1  0.25546554  0.50830782  0.86867896  1
  O  O191  1  0.73459629  0.01746894  0.37181154  1
  O  O192  1  0.75648421  0.00533546  0.87570558  1
  O  O193  1  0.74155710  0.50985302  0.36342058  1
  O  O194  1  0.75399314  0.50591615  0.87661702  1
  O  O195  1  0.24556863  0.50139087  0.12826769  1
  O  O196  1  0.24554014  0.50515707  0.63758144  1
  O  O197  1  0.25069153  1.00694456  0.13884720  1
  O  O198  1  0.24319731  0.99433669  0.63309906  1
  O  O199  1  0.73449454  0.51125132  0.13849190  1
  O  O200  1  0.73046143  0.50123889  0.62571778  1
  O  O201  1  0.73305903  0.98608965  0.10581512  1
  O  O202  1  0.74115758  1.00569056  0.64096139  1
  O  O203  1  0.01860924  0.36266369  0.23527333  1
  O  O204  1  0.01563743  0.37593099  0.75742464  1
  O  O205  1  0.01280339  0.86025693  0.24433974  1
  O  O206  1  0.01465171  0.87134209  0.74952898  1
  O  O207  1  0.51314900  0.36595554  0.25116408  1
  O  O208  1  0.49575458  0.37639958  0.76160894  1
  O  O209  1  0.49633274  0.86387741  0.24400803  1
  O  O210  1  0.50540852  0.87354292  0.75402524  1
  O  O211  1  0.49491899  0.13123250  0.25481487  1
  O  O212  1  0.50209705  0.11566683  0.75749918  1
  O  O213  1  0.49348827  0.63405370  0.24184706  1
  O  O214  1  0.49336121  0.63281317  0.74268018  1
  O  O215  1  1.00397576  0.14416942  0.24149136  1
  O  O216  1  0.98905186  0.11813095  0.75443703  1
  O  O217  1  1.00983583  0.63513258  0.23229861  1
  O  O218  1  0.98488101  0.62793636  0.75590758  1
  O  O219  1  0.36918476  0.25691439  0.00315906  1
  O  O220  1  0.37431148  0.25900773  0.49700649  1
  O  O221  1  0.36858079  0.75869721  0.00202326  1
  O  O222  1  0.36288342  0.74569225  0.50735954  1
  O  O223  1  0.86831796  0.25010801  0.01904450  1
  O  O224  1  0.87243798  0.25164007  0.51507401  1
  O  O225  1  0.86626088  0.75327161  0.00237693  1
  O  O226  1  0.86615930  0.74418751  0.50910656  1
  O  O227  1  0.12769911  0.24212454  0.49869400  1
  O  O228  1  0.13236478  0.24718860  0.99607388  1
  O  O229  1  0.13687546  0.73474433  0.49627176  1
  O  O230  1  0.13303932  0.74926009  0.99386907  1
  O  O231  1  0.62278787  0.24497456  0.49455846  1
  O  O232  1  0.63384741  0.24446704  1.00065309  1
  O  O233  1  0.62945971  0.74184817  0.49114070  1
  O  O234  1  0.63405466  0.74701749  0.99676671  1
  O  O235  1  0.50435175  0.25076494  0.13788632  1
  O  O236  1  0.47907758  0.24490181  0.62421846  1
  O  O237  1  0.49513328  0.74423379  0.13026256  1
  O  O238  1  0.49596780  0.74873339  0.62753165  1
  O  O239  1  0.99050400  0.24548037  0.12695424  1
  O  O240  1  0.98587935  0.24430065  0.62723537  1
  O  O241  1  0.99050490  0.74240496  0.12650381  1
  O  O242  1  0.98725337  0.74217379  0.62898055  1
  O  O243  1  0.00362994  0.25901791  0.36477494  1
  O  O244  1  0.01327104  0.24819416  0.88452726  1
  O  O245  1  -0.00857051  0.73548136  0.35755568  1
  O  O246  1  0.01197173  0.74301512  0.87953178  1
  O  O247  1  0.51318409  0.24540365  0.36452392  1
  O  O248  1  0.51013374  0.26288507  0.87875755  1
  O  O249  1  0.51064518  0.74807219  0.36860780  1
  O  O250  1  0.50184181  0.75861513  0.86522187  1
  O  O251  1  0.24329971  0.12879328  0.48977573  1
  O  O252  1  0.24351358  0.13094264  0.99698758  1
  O  O253  1  0.24589810  0.63123492  0.49182908  1
  O  O254  1  0.25094025  0.63178088  0.98555295  1
  O  O255  1  0.73722646  0.12890368  0.49312133  1
  O  O256  1  0.74726698  0.13245377  1.00236891  1
  O  O257  1  0.74138192  0.63086989  0.49172192  1
  O  O258  1  0.74838307  0.63199469  0.99284930  1
  O  O259  1  0.26250714  0.36750853  -0.00296757  1
  O  O260  1  0.26921821  0.37075150  0.49169635  1
  O  O261  1  0.26073365  0.86742567  -0.00757326  1
  O  O262  1  0.23876417  0.86553788  0.50885910  1
  O  O263  1  0.74499397  0.36513320  0.00270260  1
  O  O264  1  0.76058594  0.37183698  0.51001855  1
  O  O265  1  0.75363469  0.86268307  0.00201272  1
  O  O266  1  0.74341687  0.85641441  0.50376243  1
  O  O267  1  0.13629553  0.49414680  0.24016281  1
  O  O268  1  0.13257364  0.48578067  0.75414769  1
  O  O269  1  0.13536503  0.98956372  0.24765607  1
  O  O270  1  0.13315564  0.99293262  0.74732891  1
  O  O271  1  0.62559646  0.49383738  0.24597477  1
  O  O272  1  0.62104005  0.50675460  0.73207395  1
  O  O273  1  0.63875296  1.00262308  0.23910783  1
  O  O274  1  0.63561678  0.99433056  0.74772901  1
  O  O275  1  0.37315253  0.00485738  0.25640929  1
  O  O276  1  0.35964662  -0.01053136  0.75016156  1
  O  O277  1  0.37324551  0.50421077  0.25724298  1
  O  O278  1  0.36651337  0.50443406  0.75278349  1
  O  O279  1  0.84258525  0.00088034  0.20825149  1
  O  O280  1  0.87126941  0.00476716  0.76032038  1
  O  O281  1  0.85143667  0.50264440  0.23631812  1
  O  O282  1  0.87147144  0.50481674  0.76054575  1
  O  O283  1  0.12536448  0.37605907  0.36603606  1
  O  O284  1  0.12313747  0.36499395  0.86961544  1
  O  O285  1  0.13740459  0.87088951  0.35060256  1
  O  O286  1  0.13085856  0.86348530  0.86807644  1
  O  O287  1  0.62935593  0.36688169  0.36996781  1
  O  O288  1  0.61081163  0.36886231  0.87893631  1
  O  O289  1  0.63032720  0.85812176  0.37718036  1
  O  O290  1  0.61321793  0.87551847  0.86898219  1
  O  O291  1  0.37377729  0.12751654  0.14115308  1
  O  O292  1  0.37578792  0.13171013  0.62848701  1
  O  O293  1  0.38319878  0.63125842  0.12925734  1
  O  O294  1  0.37945258  0.63058023  0.62840545  1
  O  O295  1  0.88885507  0.12825141  0.13888780  1
  O  O296  1  0.87879469  0.13291521  0.63690234  1
  O  O297  1  0.88168952  0.63565627  0.11822768  1
  O  O298  1  0.87240583  0.62919386  0.63411320  1
  O  O299  1  0.25118755  0.25022756  0.11207854  1
  O  O300  1  0.26725042  0.24552166  0.62279741  1
  O  O301  1  0.25641309  0.74151217  0.10766753  1
  O  O302  1  0.25368406  0.75767389  0.61821845  1
  O  O303  1  0.76572144  0.25059352  0.12503969  1
  O  O304  1  0.76356445  0.24609045  0.62348888  1
  O  O305  1  0.75221884  0.74989675  0.11700944  1
  O  O306  1  0.75914754  0.75007508  0.61643003  1
  O  O307  1  0.24734935  0.23478815  0.37217085  1
  O  O308  1  0.24127888  0.24366258  0.88668025  1
  O  O309  1  0.25776396  0.74123732  0.38253620  1
  O  O310  1  0.24433905  0.74306789  0.88173037  1
  O  O311  1  0.73866091  0.24116664  0.37456806  1
  O  O312  1  0.74731622  0.24686136  0.88913823  1
  O  O313  1  0.73919202  0.73742133  0.37761855  1
  O  O314  1  0.74760096  0.74131256  0.88140551  1
  O  O315  1  0.00379015  0.11894062  0.00886208  1
  O  O316  1  0.01116204  0.12544364  0.49771712  1
  O  O317  1  0.00299278  0.61453898  0.01073847  1
  O  O318  1  0.01725474  0.62598959  0.49468646  1
  O  O319  1  0.50982811  0.11819911  -0.00264380  1
  O  O320  1  0.51138210  0.11845436  0.49947726  1
  O  O321  1  0.49873452  0.62549030  0.00846522  1
  O  O322  1  0.50564373  0.62435863  0.50498772  1
  O  O323  1  0.48003363  0.37697592  0.49672794  1
  O  O324  1  0.48984326  0.37570420  0.99439248  1
  O  O325  1  0.50470772  0.88913464  0.50658869  1
  O  O326  1  0.49389076  0.88462633  0.98987106  1
  O  O327  1  0.98381208  0.37402154  0.50145711  1
  O  O328  1  1.00313653  0.38689591  1.00004548  1
  O  O329  1  1.04529089  0.87383433  0.48288243  1
  O  O330  1  0.99106216  0.88168454  1.00748616  1
  O  O331  1  0.48379873  0.50888755  0.37490405  1
  O  O332  1  0.49436125  0.48943107  0.87491273  1
  O  O333  1  0.48718987  1.00318239  0.38118657  1
  O  O334  1  0.49829068  0.99602500  0.88279973  1
  O  O335  1  0.99010501  0.48817560  0.33088960  1
  O  O336  1  0.98918602  0.49946326  0.88627153  1
  O  O337  1  0.95680049  1.02066796  0.29665022  1
  O  O338  1  0.99540628  1.00404974  0.89305261  1
  O  O339  1  0.00092295  0.00840116  0.11724991  1
  O  O340  1  0.01437738  0.00106595  0.62972255  1
  O  O341  1  0.00704650  0.50570596  0.12335560  1
  O  O342  1  0.00980815  0.50745392  0.63508534  1
  O  O343  1  0.51150585  -0.00189546  0.11497426  1
  O  O344  1  0.50664401  0.00375136  0.61888278  1
  O  O345  1  0.50426590  0.50953200  0.12452651  1
  O  O346  1  0.50689727  0.50764733  0.62024355  1
  O  O347  1  0.24403398  0.37784339  0.24714204  1
  O  O348  1  0.23817028  0.38412020  0.75788189  1
  O  O349  1  0.24459962  0.88064523  0.24289254  1
  O  O350  1  0.24060761  0.87991422  0.74518279  1
  O  O351  1  0.73891452  0.38941574  0.25519695  1
  O  O352  1  0.74379273  0.37818963  0.74484189  1
  O  O353  1  0.73664178  0.87089597  0.22686786  1
  O  O354  1  0.75007984  0.88847357  0.75018189  1
  O  O355  1  0.25667550  0.11767717  0.25607975  1
  O  O356  1  0.24404853  0.11412539  0.76150691  1
  O  O357  1  0.25640950  0.62275800  0.25563800  1
  O  O358  1  0.25218690  0.62042859  0.75791664  1
  O  O359  1  0.76677766  0.11603868  0.26018188  1
  O  O360  1  0.76044458  0.11404078  0.76271582  1
  O  O361  1  0.73897537  0.61549394  0.26251939  1
  O  O362  1  0.75786126  0.62035404  0.75790944  1
  O  O363  1  0.36951288  0.11983466  0.36493950  1
  O  O364  1  0.36000431  0.12906162  0.88583268  1
  O  O365  1  0.36643932  0.61788017  0.37112185  1
  O  O366  1  0.36855367  0.62146296  0.86621089  1
  O  O367  1  0.86654314  0.13169713  0.36936747  1
  O  O368  1  0.87244341  0.12140529  0.87373268  1
  O  O369  1  0.85359057  0.62364854  0.37686865  1
  O  O370  1  0.86325565  0.61695327  0.87088241  1
  O  O371  1  0.13245052  0.38632920  0.12890560  1
  O  O372  1  0.12429292  0.36933810  0.63865008  1
  O  O373  1  0.12676239  0.87711745  0.13685829  1
  O  O374  1  0.13524240  0.88119161  0.63644760  1
  O  O375  1  0.61952627  0.38880559  0.13413652  1
  O  O376  1  0.61770295  0.38753605  0.61678332  1
  O  O377  1  0.62851418  0.88446337  0.11303080  1
  O  O378  1  0.64109174  0.88975855  0.62762835  1
  O  O379  1  0.12203396  0.25882688  0.25043435  1
  O  O380  1  0.13277864  0.26119261  0.75972201  1
  O  O381  1  0.11876034  0.75643317  0.24240666  1
  O  O382  1  0.12370807  0.75590458  0.75888986  1
  O  O383  1  0.62404662  0.25619916  0.25539593  1
  O  O384  1  0.63451352  0.23889576  0.76882091  1
  O  O385  1  0.61613525  0.74534025  0.26370791  1
  O  O386  1  0.62096847  0.75857591  0.74734394  1
  O  O387  1  0.38754389  0.24266143  0.24969912  1
  O  O388  1  0.36903379  0.24785205  0.74493463  1
  O  O389  1  0.38058297  0.74660238  0.24475580  1
  O  O390  1  0.37833656  0.74625696  0.74059955  1
  O  O391  1  0.88309913  0.25023715  0.24310322  1
  O  O392  1  0.87222678  0.24155557  0.74207749  1
  O  O393  1  0.88178973  0.75283387  0.23671236  1
  O  O394  1  0.87348719  0.73991511  0.74490379  1
  O  O395  1  0.37399830  0.49030677  0.48956965  1
  O  O396  1  0.37590668  0.49206810  0.99083948  1
  O  O397  1  0.38162551  1.00634704  0.48691101  1
  O  O398  1  0.38445893  0.99427687  1.00557283  1
  O  O399  1  0.87041150  0.48779868  0.50549714  1
  O  O400  1  0.88142791  0.50362597  0.99303124  1
  O  O401  1  0.83724871  0.97042679  0.53520054  1
  O  O402  1  0.88136523  0.99104739  1.00129424  1
  O  O403  1  0.11827983  0.00423535  0.00365724  1
  O  O404  1  0.13791550  0.01577276  0.51530492  1
  O  O405  1  0.11987867  0.49973517  0.00640888  1
  O  O406  1  0.13672821  0.51303507  0.49930449  1
  O  O407  1  0.61577352  0.01058751  0.00435016  1
  O  O408  1  0.61689188  0.00916786  0.51197867  1
  O  O409  1  0.62074793  0.50345030  0.01030117  1
  O  O410  1  0.62151776  0.50661037  0.50607369  1
  O  O411  1  0.37519991  0.37242384  0.11639426  1
  O  O412  1  0.37432239  0.36589529  0.61699703  1
  O  O413  1  0.38055940  0.86831534  0.10886887  1
  O  O414  1  0.35987577  0.86990812  0.62620824  1
  O  O415  1  0.88172202  0.36707905  0.13568741  1
  O  O416  1  0.87492131  0.36509349  0.62218844  1
  O  O417  1  0.86401521  0.86163931  0.11195965  1
  O  O418  1  0.86807703  0.86319851  0.63992629  1
  O  O419  1  0.13158654  0.12048968  0.38114916  1
  O  O420  1  0.13337127  0.13212271  0.88287260  1
  O  O421  1  0.13979846  0.62036279  0.38187488  1
  O  O422  1  0.13254066  0.63042909  0.87410857  1
  O  O423  1  0.62973889  0.13291778  0.38184895  1
  O  O424  1  0.63655608  0.13349549  0.89334845  1
  O  O425  1  0.62887132  0.62717913  0.38624882  1
  O  O426  1  0.63527537  0.62467686  0.87432092  1
