# generated using pymatgen
data_V85Zn86O256
_symmetry_space_group_name_H-M   'P 1'
_cell_length_a   16.93537599
_cell_length_b   16.92331922
_cell_length_c   16.92633455
_cell_angle_alpha   89.96525490
_cell_angle_beta   90.03340090
_cell_angle_gamma   90.06159403
_symmetry_Int_Tables_number   1
_chemical_formula_structural   V85Zn86O256
_chemical_formula_sum   'V85 Zn86 O256'
_cell_volume   4851.12991750
_cell_formula_units_Z   1
loop_
 _symmetry_equiv_pos_site_id
 _symmetry_equiv_pos_as_xyz
  1  'x, y, z'
loop_
 _atom_site_type_symbol
 _atom_site_label
 _atom_site_symmetry_multiplicity
 _atom_site_fract_x
 _atom_site_fract_y
 _atom_site_fract_z
 _atom_site_occupancy
  V  V0  1  0.01347298  0.86745217  0.37101362  1
  V  V1  1  0.13247006  0.74908125  0.88046845  1
  V  V2  1  0.74875965  0.63274415  0.38207324  1
  V  V3  1  0.24867239  0.87293268  0.62105666  1
  V  V4  1  0.25229468  0.62933303  0.37108706  1
  V  V5  1  0.12250936  0.24206535  0.38337037  1
  V  V6  1  0.36753891  0.61871743  0.74157842  1
  V  V7  1  0.87466608  0.49982373  0.87692904  1
  V  V8  1  0.50158455  0.37596469  0.87423366  1
  V  V9  1  0.49602759  0.49940662  0.00075248  1
  V  V10  1  0.62773754  0.25045320  0.87372802  1
  V  V11  1  0.24856119  0.36694400  0.12128272  1
  V  V12  1  0.12439712  0.00805287  0.61961769  1
  V  V13  1  0.50385178  0.24966450  0.74380363  1
  V  V14  1  0.25521222  0.38267108  0.62815070  1
  V  V15  1  0.75139108  0.12580079  0.87328553  1
  V  V16  1  0.87799301  0.25815089  0.61804176  1
  V  V17  1  -0.00495939  0.24299494  0.25330567  1
  V  V18  1  0.00421332  0.25441594  0.75275720  1
  V  V19  1  0.25463314  0.49374522  0.25066997  1
  V  V20  1  0.50493631  0.37804041  0.37107685  1
  V  V21  1  0.63088023  0.25751098  0.37342673  1
  V  V22  1  0.74566391  0.37401776  0.13084983  1
  V  V23  1  0.73886958  0.87492264  0.62296269  1
  V  V24  1  0.37879239  0.74725177  0.61634874  1
  V  V25  1  0.62777036  0.11602000  0.50637304  1
  V  V26  1  0.50015137  0.24671787  0.25163811  1
  V  V27  1  0.62091729  0.12378701  -0.00108413  1
  V  V28  1  0.88277986  0.62692594  0.75034097  1
  V  V29  1  0.12792284  0.50376091  0.63133976  1
  V  V30  1  0.63481391  0.38108594  0.74957927  1
  V  V31  1  0.87869179  0.12638824  0.74484207  1
  V  V32  1  0.74785236  0.74972792  -0.00202660  1
  V  V33  1  0.87363464  0.87533401  -0.00183308  1
  V  V34  1  0.24618344  0.24969076  0.50320536  1
  V  V35  1  0.12574921  0.63255029  0.49457537  1
  V  V36  1  0.24755687  -0.00063459  0.75060591  1
  V  V37  1  0.62677452  0.50750846  0.62875498  1
  V  V38  1  0.49647684  0.49855266  0.50384983  1
  V  V39  1  0.75481297  0.12294471  0.36363683  1
  V  V40  1  0.75156014  0.25247766  -0.00016664  1
  V  V41  1  0.87495495  0.62451140  0.25377563  1
  V  V42  1  0.12722949  0.12889305  0.00233684  1
  V  V43  1  0.38202740  0.89785437  0.49587191  1
  V  V44  1  0.00346946  0.38054419  0.88362423  1
  V  V45  1  0.75502251  0.38214621  0.61753325  1
  V  V46  1  -0.00425758  0.50135681  0.50612527  1
  V  V47  1  0.26087240  0.00185249  0.25554488  1
  V  V48  1  0.75110501  0.88277657  0.12852049  1
  V  V49  1  0.37964418  0.25661502  0.61894832  1
  V  V50  1  0.74663573  0.61883406  0.86401117  1
  V  V51  1  -0.00742719  0.60987194  0.11476094  1
  V  V52  1  0.49141907  0.74832088  0.24422398  1
  V  V53  1  -0.00110380  0.86627278  0.86917605  1
  V  V54  1  0.00216656  0.00032395  0.00060007  1
  V  V55  1  0.62184508  0.49770880  0.13075642  1
  V  V56  1  0.37407287  0.24150540  0.12727511  1
  V  V57  1  0.12067496  0.86749134  0.74612967  1
  V  V58  1  0.37336611  -0.00357365  0.87859113  1
  V  V59  1  0.87283969  0.49874906  0.38234847  1
  V  V60  1  0.00060540  0.00498273  0.49688161  1
  V  V61  1  0.49954136  0.87225430  0.87462846  1
  V  V62  1  0.87867975  0.00033927  0.87242751  1
  V  V63  1  0.87517442  0.74949151  0.12711622  1
  V  V64  1  0.12390436  0.37329055  0.25374488  1
  V  V65  1  0.37676866  0.12581136  0.74826262  1
  V  V66  1  0.37002048  0.36773334  -0.00232973  1
  V  V67  1  0.49908186  0.74503811  0.74617524  1
  V  V68  1  0.74589474  -0.00228699  0.74470664  1
  V  V69  1  0.36031638  0.86349874  0.00634117  1
  V  V70  1  -0.00545403  0.37593250  0.38271493  1
  V  V71  1  0.74514733  0.49933531  0.25261090  1
  V  V72  1  0.37416985  0.49383318  0.37497219  1
  V  V73  1  0.87975196  0.75496219  0.62951410  1
  V  V74  1  0.62344582  0.62410471  0.00040795  1
  V  V75  1  0.87259464  0.00001767  0.36117589  1
  V  V76  1  0.87287922  0.24329493  0.12943747  1
  V  V77  1  0.25016589  0.13236476  0.87957561  1
  V  V78  1  0.62184082  0.75369884  0.37638925  1
  V  V79  1  0.62400304  0.75354385  0.86947066  1
  V  V80  1  0.87078653  0.87227733  0.49821311  1
  V  V81  1  0.12877526  -0.00721180  0.13337797  1
  V  V82  1  0.62039467  0.63003706  0.50388842  1
  V  V83  1  0.25173378  0.61825810  0.88141739  1
  V  V84  1  0.62806774  0.88118770  0.24998924  1
  Zn  Zn85  1  0.62626959  0.00204271  0.12450212  1
  Zn  Zn86  1  0.48933807  0.62303148  0.13124395  1
  Zn  Zn87  1  0.49741753  0.11801508  0.13317182  1
  Zn  Zn88  1  0.87848027  0.38147293  0.00503874  1
  Zn  Zn89  1  0.37009113  0.49478531  0.86770426  1
  Zn  Zn90  1  -0.00423064  0.12083985  0.13185395  1
  Zn  Zn91  1  0.12903183  0.25483733  0.87998877  1
  Zn  Zn92  1  0.24958831  0.75408369  0.49044896  1
  Zn  Zn93  1  0.41598179  0.06499449  0.32545811  1
  Zn  Zn94  1  0.12541549  0.62127725  0.00200101  1
  Zn  Zn95  1  0.00530686  0.63346868  0.62899327  1
  Zn  Zn96  1  0.75457800  0.25172223  0.49869908  1
  Zn  Zn97  1  0.00511428  0.13162988  0.61810110  1
  Zn  Zn98  1  0.00771558  0.74790956  0.25399506  1
  Zn  Zn99  1  0.49427053  0.09690417  0.60390325  1
  Zn  Zn100  1  0.25369125  0.12559128  0.37825092  1
  Zn  Zn101  1  0.34330336  0.73813149  0.12543692  1
  Zn  Zn102  1  0.12991413  0.38347936  0.75518658  1
  Zn  Zn103  1  0.50141358  -0.00300101  0.00182406  1
  Zn  Zn104  1  0.49759449  0.88918568  0.37439131  1
  Zn  Zn105  1  0.11624351  0.48988801  0.11723646  1
  Zn  Zn106  1  0.17641991  0.82642221  0.19954462  1
  Zn  Zn107  1  0.18525013  0.18437560  0.18920824  1
  Zn  Zn108  1  0.19014122  0.19099437  0.68999093  1
  Zn  Zn109  1  0.17933175  0.67085469  0.19091583  1
  Zn  Zn110  1  0.18955839  0.68897606  0.68734958  1
  Zn  Zn111  1  0.68264906  0.18866312  0.18865139  1
  Zn  Zn112  1  0.69160390  0.18969838  0.68418683  1
  Zn  Zn113  1  0.68443976  0.68898134  0.18888678  1
  Zn  Zn114  1  0.69028807  0.69413002  0.68521463  1
  Zn  Zn115  1  0.31766454  0.30562497  0.31793450  1
  Zn  Zn116  1  0.31325501  0.31319846  0.80726071  1
  Zn  Zn117  1  0.31462928  0.81882894  0.31312625  1
  Zn  Zn118  1  0.31214678  0.80861816  0.81101860  1
  Zn  Zn119  1  0.81273523  0.31384502  0.31210731  1
  Zn  Zn120  1  0.81649162  0.31546653  0.80905762  1
  Zn  Zn121  1  0.81332683  0.81222900  0.31276458  1
  Zn  Zn122  1  0.80998444  0.81187460  0.80730509  1
  Zn  Zn123  1  0.18492250  0.43611718  0.44433828  1
  Zn  Zn124  1  0.18624530  0.44287232  0.94089326  1
  Zn  Zn125  1  0.19115714  0.94087950  0.43581978  1
  Zn  Zn126  1  0.18522389  0.94039649  0.93700837  1
  Zn  Zn127  1  0.68495205  0.44084842  0.44089791  1
  Zn  Zn128  1  0.68925185  0.43908103  0.94099001  1
  Zn  Zn129  1  0.68899073  0.94000583  0.43718622  1
  Zn  Zn130  1  0.68745726  0.93862306  0.93235537  1
  Zn  Zn131  1  0.30955252  0.05683357  0.06278897  1
  Zn  Zn132  1  0.30800733  0.06983561  0.56495793  1
  Zn  Zn133  1  0.31218000  0.55698413  0.06541504  1
  Zn  Zn134  1  0.31232911  0.56225667  0.55747841  1
  Zn  Zn135  1  0.81238405  0.06459748  0.06035499  1
  Zn  Zn136  1  0.81190738  0.06182334  0.55845575  1
  Zn  Zn137  1  0.80868620  0.56202241  0.05914128  1
  Zn  Zn138  1  0.80934934  0.56805186  0.56547023  1
  Zn  Zn139  1  0.43664556  0.43065923  0.18914673  1
  Zn  Zn140  1  0.44318605  0.43746610  0.68511710  1
  Zn  Zn141  1  0.44144068  0.93169342  0.18236299  1
  Zn  Zn142  1  0.43315115  0.92871197  0.68846220  1
  Zn  Zn143  1  0.93023288  0.43065956  0.19517059  1
  Zn  Zn144  1  0.93782501  0.44246472  0.69528589  1
  Zn  Zn145  1  0.94208670  0.93481901  0.18826633  1
  Zn  Zn146  1  0.93748835  0.93892745  0.68445146  1
  Zn  Zn147  1  0.06290585  0.06093857  0.31537883  1
  Zn  Zn148  1  0.06402843  0.06149538  0.81117656  1
  Zn  Zn149  1  0.06349992  0.56182002  0.31145555  1
  Zn  Zn150  1  0.06124533  0.56340798  0.81535926  1
  Zn  Zn151  1  0.57981114  0.06336359  0.31474341  1
  Zn  Zn152  1  0.54156980  0.03701998  0.77259330  1
  Zn  Zn153  1  0.56030768  0.56676861  0.31335736  1
  Zn  Zn154  1  0.55724654  0.56453972  0.81115164  1
  Zn  Zn155  1  0.44129950  0.19407569  0.44218066  1
  Zn  Zn156  1  0.43918420  0.18843000  0.93483378  1
  Zn  Zn157  1  0.43823897  0.68415164  0.43051032  1
  Zn  Zn158  1  0.43325575  0.68457912  0.93921998  1
  Zn  Zn159  1  0.93503558  0.18550897  0.43750324  1
  Zn  Zn160  1  0.93812356  0.19010904  0.93840692  1
  Zn  Zn161  1  0.93555127  0.68985449  0.44413141  1
  Zn  Zn162  1  0.93534886  0.68939211  0.93491053  1
  Zn  Zn163  1  0.06007211  0.30955028  0.06431892  1
  Zn  Zn164  1  0.06498751  0.31907887  0.56530929  1
  Zn  Zn165  1  0.05964411  0.80665107  0.05979105  1
  Zn  Zn166  1  0.05998957  0.81481512  0.55635889  1
  Zn  Zn167  1  0.56180784  0.31158365  0.06460193  1
  Zn  Zn168  1  0.56807224  0.31456889  0.55765714  1
  Zn  Zn169  1  0.56025649  0.81470690  0.06056523  1
  Zn  Zn170  1  0.55876865  0.81443496  0.56029812  1
  O  O171  1  0.11978144  0.11441397  0.11798140  1
  O  O172  1  0.12509007  0.11133184  0.63309364  1
  O  O173  1  0.10043803  0.61493056  0.12585654  1
  O  O174  1  0.12643828  0.62115166  0.61760037  1
  O  O175  1  0.62518099  0.12436578  0.11355581  1
  O  O176  1  0.62692196  0.13272475  0.60959603  1
  O  O177  1  0.62299010  0.61670260  0.11663898  1
  O  O178  1  0.63092467  0.62142358  0.61695816  1
  O  O179  1  0.38615603  0.38445513  0.37666533  1
  O  O180  1  0.38020520  0.37432509  0.87989315  1
  O  O181  1  0.37508991  0.87587253  0.39387460  1
  O  O182  1  0.37791023  0.87924693  0.88052824  1
  O  O183  1  0.88638006  0.38130062  0.37343670  1
  O  O184  1  0.88144559  0.38450487  0.87479297  1
  O  O185  1  0.87260027  0.88299029  0.38238766  1
  O  O186  1  0.88199084  0.87834291  0.87666920  1
  O  O187  1  0.24851464  0.00711748  0.36280018  1
  O  O188  1  0.25506536  0.00799383  0.87006922  1
  O  O189  1  0.25751482  0.49590944  0.37203292  1
  O  O190  1  0.25143480  0.51331573  0.86954096  1
  O  O191  1  0.75780765  0.01341949  0.37631192  1
  O  O192  1  0.76322853  0.00472621  0.87040510  1
  O  O193  1  0.75259380  0.50997783  0.37297994  1
  O  O194  1  0.75355832  0.51062282  0.87638914  1
  O  O195  1  0.24993769  0.48296032  0.13445507  1
  O  O196  1  0.24349827  0.49227809  0.61868058  1
  O  O197  1  0.23537148  1.00039686  0.13404208  1
  O  O198  1  0.24367129  0.99106959  0.62786968  1
  O  O199  1  0.74237781  0.49381336  0.12910872  1
  O  O200  1  0.73794215  0.49621592  0.62325294  1
  O  O201  1  0.75218342  0.98574521  0.11865986  1
  O  O202  1  0.75679944  0.98904793  0.63265788  1
  O  O203  1  0.00556273  0.36626756  0.25921603  1
  O  O204  1  0.00310546  0.36886419  0.76111424  1
  O  O205  1  -0.00363072  0.87152071  0.26685001  1
  O  O206  1  0.00874653  0.88227327  0.75779669  1
  O  O207  1  0.50110398  0.36620365  0.26228599  1
  O  O208  1  0.51049833  0.36727474  0.75444787  1
  O  O209  1  0.51122429  0.86510828  0.25022008  1
  O  O210  1  0.48886878  0.85694292  0.76490268  1
  O  O211  1  0.50378410  0.13799830  0.25249550  1
  O  O212  1  0.49403869  0.14390113  0.76000555  1
  O  O213  1  0.50280139  0.64318372  0.25073464  1
  O  O214  1  0.48398984  0.63751572  0.75704167  1
  O  O215  1  1.00326980  0.13901232  0.25283639  1
  O  O216  1  0.99126571  0.13142495  0.74926046  1
  O  O217  1  0.98514902  0.62160950  0.24516476  1
  O  O218  1  0.98717663  0.62643645  0.74968516  1
  O  O219  1  0.38422721  0.26215325  0.00644692  1
  O  O220  1  0.36962745  0.25379414  0.51471565  1
  O  O221  1  0.37296678  0.76085366  -0.00162547  1
  O  O222  1  0.37528835  0.74472733  0.51023042  1
  O  O223  1  0.86695185  0.25238045  0.00802906  1
  O  O224  1  0.87809351  0.25091170  0.51439121  1
  O  O225  1  0.86897139  0.75636768  0.00573951  1
  O  O226  1  0.87335672  0.76486983  0.50703848  1
  O  O227  1  0.13024680  0.25538832  0.49448662  1
  O  O228  1  0.11821039  0.23324249  0.99941868  1
  O  O229  1  0.12833190  0.73729120  0.50325525  1
  O  O230  1  0.11685005  0.74081723  0.98462521  1
  O  O231  1  0.63161920  0.24758137  0.48681820  1
  O  O232  1  0.63195946  0.24592833  0.99494620  1
  O  O233  1  0.61636483  0.74509363  0.48619800  1
  O  O234  1  0.62692632  0.74360850  0.99023843  1
  O  O235  1  0.49426908  0.24887512  0.13496913  1
  O  O236  1  0.49524515  0.25832410  0.63111970  1
  O  O237  1  0.50883232  0.74805922  0.13938282  1
  O  O238  1  0.49122332  0.75488680  0.63374280  1
  O  O239  1  0.99045052  0.24856889  0.13541583  1
  O  O240  1  0.99609514  0.25237859  0.63273564  1
  O  O241  1  0.98575296  0.73946506  0.12492026  1
  O  O242  1  0.98602829  0.75188577  0.61980030  1
  O  O243  1  0.00284536  0.25686461  0.37367911  1
  O  O244  1  0.00043049  0.25853064  0.86796014  1
  O  O245  1  -0.00736884  0.76511368  0.37822726  1
  O  O246  1  0.00496086  0.76172251  0.87516192  1
  O  O247  1  0.50988169  0.26041204  0.37114955  1
  O  O248  1  0.50796008  0.25912969  0.86820424  1
  O  O249  1  0.50567069  0.75522563  0.36401796  1
  O  O250  1  0.50580308  0.75223748  0.87137097  1
  O  O251  1  0.24871355  0.14361119  0.50220832  1
  O  O252  1  0.24013150  0.11740452  0.99117391  1
  O  O253  1  0.24256012  0.62527277  0.48929529  1
  O  O254  1  0.25141375  0.62136383  0.98411510  1
  O  O255  1  0.74356311  0.13012442  0.49346689  1
  O  O256  1  0.74349816  0.13281434  0.99410267  1
  O  O257  1  0.73699356  0.62301988  0.49139408  1
  O  O258  1  0.74363188  0.63205756  0.98949463  1
  O  O259  1  0.25785737  0.37468442  0.00813115  1
  O  O260  1  0.24480910  0.36541476  0.51668353  1
  O  O261  1  0.26225583  0.87779195  -0.00680534  1
  O  O262  1  0.26045184  0.87465495  0.50504481  1
  O  O263  1  0.75086070  0.36894139  0.01175643  1
  O  O264  1  0.74934298  0.37570668  0.51346614  1
  O  O265  1  0.75542079  0.86854706  0.00412343  1
  O  O266  1  0.75747654  0.88335276  0.51280050  1
  O  O267  1  0.12717203  0.48396689  0.24688005  1
  O  O268  1  0.12053597  0.50482078  0.73521429  1
  O  O269  1  0.12088742  1.00029382  0.23561910  1
  O  O270  1  0.12925083  0.98876118  0.74317939  1
  O  O271  1  0.62835515  0.50794078  0.23823653  1
  O  O272  1  0.61746982  0.49360975  0.74177945  1
  O  O273  1  0.63108141  0.98497575  0.24579450  1
  O  O274  1  0.64945188  1.00678930  0.76559848  1
  O  O275  1  0.36412717  0.00128633  0.24007439  1
  O  O276  1  0.36526163  0.00163685  0.76195399  1
  O  O277  1  0.36529809  0.48972228  0.25928855  1
  O  O278  1  0.38450021  0.51577704  0.74823414  1
  O  O279  1  0.87943929  -0.00210053  0.26161979  1
  O  O280  1  0.87254622  0.00984634  0.75301795  1
  O  O281  1  0.86624091  0.50636730  0.26084857  1
  O  O282  1  0.87264468  0.51271579  0.76215111  1
  O  O283  1  0.11286506  0.37094819  0.37105287  1
  O  O284  1  0.11933295  0.37408611  0.87340850  1
  O  O285  1  0.11170783  0.87494365  0.38230959  1
  O  O286  1  0.12019624  0.86822068  0.86813984  1
  O  O287  1  0.62194420  0.36956909  0.37553299  1
  O  O288  1  0.62342423  0.37220800  0.86785353  1
  O  O289  1  0.62714517  0.86894734  0.36897331  1
  O  O290  1  0.61566582  0.86390406  0.87832259  1
  O  O291  1  0.37581925  0.13818810  0.11350213  1
  O  O292  1  0.38081676  0.13437946  0.63141791  1
  O  O293  1  0.37791804  0.63000625  0.11672172  1
  O  O294  1  0.36906531  0.63112532  0.63381838  1
  O  O295  1  0.87538839  0.13813552  0.12201413  1
  O  O296  1  0.87798184  0.13470590  0.63111229  1
  O  O297  1  0.87659990  0.62819914  0.13233549  1
  O  O298  1  0.87291574  0.63595189  0.63375841  1
  O  O299  1  0.25691257  0.25890978  0.13337569  1
  O  O300  1  0.25779395  0.25735640  0.62239302  1
  O  O301  1  0.23259307  0.75146908  0.13191102  1
  O  O302  1  0.25670559  0.76187989  0.62210056  1
  O  O303  1  0.75342542  0.25681521  0.12314510  1
  O  O304  1  0.76134087  0.26219562  0.62499195  1
  O  O305  1  0.75991585  0.75237668  0.11881149  1
  O  O306  1  0.76099485  0.76724750  0.62933878  1
  O  O307  1  0.23747253  0.25873570  0.38633441  1
  O  O308  1  0.25000353  0.23634302  0.86911810  1
  O  O309  1  0.26110153  0.73287387  0.37148478  1
  O  O310  1  0.24166031  0.73771930  0.86864763  1
  O  O311  1  0.74864396  0.24383697  0.37639917  1
  O  O312  1  0.74872618  0.24784545  0.87899914  1
  O  O313  1  0.74186881  0.73880540  0.37061623  1
  O  O314  1  0.74056309  0.74628992  0.87752970  1
  O  O315  1  0.00494478  0.11167333  -0.00247820  1
  O  O316  1  -0.00299057  0.11057485  0.49988628  1
  O  O317  1  -0.01017132  0.62436140  0.01359695  1
  O  O318  1  0.00830971  0.61953081  0.50154256  1
  O  O319  1  0.51362178  0.12458148  -0.00446387  1
  O  O320  1  0.51962922  0.13216749  0.49879997  1
  O  O321  1  0.50362568  0.61057906  -0.00312118  1
  O  O322  1  0.51303668  0.61593989  0.49223660  1
  O  O323  1  0.51011652  0.38757380  0.48643014  1
  O  O324  1  0.49624236  0.38314945  0.99502670  1
  O  O325  1  0.48488440  0.87935248  0.50101158  1
  O  O326  1  0.49116326  0.87487403  0.98727954  1
  O  O327  1  1.00344686  0.38731443  0.49353322  1
  O  O328  1  0.99719803  0.36866963  0.98785159  1
  O  O329  1  0.99146339  0.88354355  0.48965019  1
  O  O330  1  0.99440246  0.88314379  0.99189967  1
  O  O331  1  0.49531183  0.49562528  0.37768922  1
  O  O332  1  0.49720371  0.49287520  0.88292837  1
  O  O333  1  0.49958038  1.00196030  0.36234484  1
  O  O334  1  0.48990058  0.98917030  0.86970593  1
  O  O335  1  0.99415970  0.49408368  0.38281550  1
  O  O336  1  0.99032212  0.49179875  0.87111216  1
  O  O337  1  0.99409077  0.99168579  0.37957409  1
  O  O338  1  0.99830113  0.99069636  0.88110058  1
  O  O339  1  0.00538992  0.00166371  0.11713710  1
  O  O340  1  0.00828666  0.00094102  0.61565960  1
  O  O341  1  -0.01244591  0.50738618  0.12865395  1
  O  O342  1  0.00559392  0.50430296  0.61983657  1
  O  O343  1  0.50591527  0.00250176  0.11987871  1
  O  O344  1  0.50675433  0.00730162  0.66666144  1
  O  O345  1  0.50550381  0.49768368  0.11965427  1
  O  O346  1  0.51418012  0.49549233  0.61538397  1
  O  O347  1  0.24160341  0.37675673  0.24816573  1
  O  O348  1  0.24605932  0.37143080  0.73548170  1
  O  O349  1  0.24681862  0.89390692  0.25845841  1
  O  O350  1  0.24408962  0.87931548  0.74116046  1
  O  O351  1  0.75267749  0.38303615  0.23899457  1
  O  O352  1  0.73867149  0.37314444  0.74300219  1
  O  O353  1  0.74254485  0.86449651  0.23806175  1
  O  O354  1  0.75650193  0.88515274  0.73605315  1
  O  O355  1  0.24126966  0.10707375  0.25188720  1
  O  O356  1  0.25759687  0.11941166  0.75553291  1
  O  O357  1  0.24178018  0.60084739  0.25877819  1
  O  O358  1  0.26362695  0.62819496  0.75509548  1
  O  O359  1  0.74682851  0.12837214  0.26448952  1
  O  O360  1  0.76349553  0.12329035  0.75190276  1
  O  O361  1  0.75849363  0.62064530  0.25607800  1
  O  O362  1  0.75744038  0.63310762  0.76086750  1
  O  O363  1  0.36570769  0.15083929  0.37212536  1
  O  O364  1  0.36927823  0.11729101  0.87187343  1
  O  O365  1  0.36566479  0.60718827  0.37850939  1
  O  O366  1  0.36363996  0.62406251  0.86527210  1
  O  O367  1  0.86310935  0.11778738  0.37875379  1
  O  O368  1  0.87177626  0.12178709  0.86675162  1
  O  O369  1  0.86753160  0.62319260  0.37158941  1
  O  O370  1  0.86727255  0.62225344  0.86885236  1
  O  O371  1  0.13089564  0.36969799  0.13372619  1
  O  O372  1  0.13319280  0.38657067  0.63015479  1
  O  O373  1  0.11543812  0.88925533  0.11961899  1
  O  O374  1  0.13069752  0.87869939  0.62905657  1
  O  O375  1  0.63301028  0.38490990  0.12177242  1
  O  O376  1  0.63426000  0.38330476  0.63116792  1
  O  O377  1  0.63560395  0.87281291  0.13025483  1
  O  O378  1  0.63992620  0.86917698  0.62090969  1
  O  O379  1  0.11822218  0.25840714  0.25880216  1
  O  O380  1  0.11224284  0.24875906  0.75306877  1
  O  O381  1  0.11915725  0.74446747  0.25452055  1
  O  O382  1  0.12708732  0.76207833  0.75612780  1
  O  O383  1  0.61838050  0.24888589  0.26378510  1
  O  O384  1  0.62116408  0.25780572  0.75238464  1
  O  O385  1  0.62012625  0.75666803  0.26021930  1
  O  O386  1  0.61509277  0.74243779  0.76064244  1
  O  O387  1  0.38620495  0.25789257  0.23835798  1
  O  O388  1  0.38438424  0.24778145  0.74004139  1
  O  O389  1  0.38889679  0.76102403  0.24487785  1
  O  O390  1  0.37821354  0.74178056  0.73777620  1
  O  O391  1  0.88343542  0.25511948  0.24265925  1
  O  O392  1  0.88596547  0.24524449  0.74241280  1
  O  O393  1  0.87705310  0.74092764  0.24304840  1
  O  O394  1  0.87368138  0.74277911  0.74201167  1
  O  O395  1  0.39034631  0.50239456  0.49590562  1
  O  O396  1  0.38201834  0.48620890  0.99748172  1
  O  O397  1  0.37505034  0.99694894  0.50604722  1
  O  O398  1  0.37623721  0.99282918  0.98902967  1
  O  O399  1  0.88680030  0.51059186  0.49761513  1
  O  O400  1  0.86791048  0.49936433  0.98407771  1
  O  O401  1  0.88260354  0.99101631  0.49350367  1
  O  O402  1  0.88304205  0.99523016  0.99426362  1
  O  O403  1  0.11849294  0.00566609  0.00800853  1
  O  O404  1  0.11680612  -0.00622898  0.50941259  1
  O  O405  1  0.12401819  0.50731791  0.00595848  1
  O  O406  1  0.11531306  0.50841826  0.51046612  1
  O  O407  1  0.62533297  0.01061082  -0.00253740  1
  O  O408  1  0.62924094  0.01654641  0.49881481  1
  O  O409  1  0.61693023  0.50343897  0.00909867  1
  O  O410  1  0.61798026  0.51029388  0.50731572  1
  O  O411  1  0.36794284  0.36536446  0.11686154  1
  O  O412  1  0.36669875  0.37084618  0.63079665  1
  O  O413  1  0.37569980  0.87049663  0.10823407  1
  O  O414  1  0.36742844  0.86889054  0.61403712  1
  O  O415  1  0.86567601  0.36518473  0.12376248  1
  O  O416  1  0.86646554  0.37108246  0.63623544  1
  O  O417  1  0.87112891  0.86663555  0.12121798  1
  O  O418  1  0.87136274  0.87167827  0.61742256  1
  O  O419  1  0.12537312  0.13952058  0.37484601  1
  O  O420  1  0.13371444  0.12305874  0.88210995  1
  O  O421  1  0.13641267  0.61247495  0.38514545  1
  O  O422  1  0.13667236  0.63182881  0.86954914  1
  O  O423  1  0.64049276  0.13385747  0.38307401  1
  O  O424  1  0.63636921  0.13634862  0.88198578  1
  O  O425  1  0.63124265  0.63283314  0.38086638  1
  O  O426  1  0.63057732  0.62928565  0.87902907  1
