# generated using pymatgen
data_V85Zn86O256
_symmetry_space_group_name_H-M   'P 1'
_cell_length_a   16.95754597
_cell_length_b   16.94539042
_cell_length_c   16.96616656
_cell_angle_alpha   90.04913637
_cell_angle_beta   90.01601554
_cell_angle_gamma   90.01964080
_symmetry_Int_Tables_number   1
_chemical_formula_structural   V85Zn86O256
_chemical_formula_sum   'V85 Zn86 O256'
_cell_volume   4875.26364749
_cell_formula_units_Z   1
loop_
 _symmetry_equiv_pos_site_id
 _symmetry_equiv_pos_as_xyz
  1  'x, y, z'
loop_
 _atom_site_type_symbol
 _atom_site_label
 _atom_site_symmetry_multiplicity
 _atom_site_fract_x
 _atom_site_fract_y
 _atom_site_fract_z
 _atom_site_occupancy
  V  V0  1  0.50108857  0.12156550  0.60894546  1
  V  V1  1  0.37683183  0.23798560  0.12854686  1
  V  V2  1  0.49963126  0.37436054  0.37518665  1
  V  V3  1  0.88136836  0.87578969  0.00172306  1
  V  V4  1  0.87459017  0.49499879  0.37462379  1
  V  V5  1  0.62240710  0.00221440  0.60665696  1
  V  V6  1  0.50654186  0.62490289  0.61701431  1
  V  V7  1  -0.00366771  0.63993543  0.62709800  1
  V  V8  1  0.00014208  0.37336980  0.37713608  1
  V  V9  1  0.62374002  0.87787822  0.74726900  1
  V  V10  1  0.74817376  0.75498392  0.00376898  1
  V  V11  1  0.74872262  0.49613907  0.25211945  1
  V  V12  1  0.11220547  0.50449376  0.12038756  1
  V  V13  1  0.50638139  0.24859145  0.75046005  1
  V  V14  1  0.50679565  0.87952575  0.35455954  1
  V  V15  1  0.25277097  0.37958946  0.12332045  1
  V  V16  1  0.50895987  0.37032366  0.87501485  1
  V  V17  1  0.87457289  0.24883906  0.62631041  1
  V  V18  1  0.50380839  0.00108276  0.00616209  1
  V  V19  1  0.37512712  0.49972713  0.87483241  1
  V  V20  1  0.12541650  0.63470774  0.49617312  1
  V  V21  1  0.00209666  0.49818302  0.50269950  1
  V  V22  1  0.87920438  0.74252526  0.12826600  1
  V  V23  1  0.37488338  -0.00398394  0.87366380  1
  V  V24  1  0.49372509  0.23248746  0.25027932  1
  V  V25  1  0.87344690  0.24768526  0.12377372  1
  V  V26  1  0.37539202  0.62590112  0.74831499  1
  V  V27  1  0.13607482  0.25209550  0.37944406  1
  V  V28  1  0.12617206  -0.00001203  0.13153795  1
  V  V29  1  0.87865656  0.38078259  0.00085613  1
  V  V30  1  -0.00160448  0.12216501  0.12190913  1
  V  V31  1  0.25043503  0.11383725  0.36411657  1
  V  V32  1  0.74452128  -0.00748568  0.74645512  1
  V  V33  1  0.12467319  0.24967319  0.87936389  1
  V  V34  1  0.61132523  0.74162271  0.36709088  1
  V  V35  1  0.62257781  0.75078441  0.87839169  1
  V  V36  1  0.75023666  0.63067094  0.37697698  1
  V  V37  1  0.37400348  0.37221657  0.50015934  1
  V  V38  1  0.87346428  0.12499171  0.74670634  1
  V  V39  1  0.74339994  0.12747812  0.87152672  1
  V  V40  1  0.87357431  0.37302568  0.50982653  1
  V  V41  1  0.88575475  -0.01303379  0.86373460  1
  V  V42  1  0.11301094  0.62405397  -0.00006215  1
  V  V43  1  0.62278669  0.62501374  0.00234475  1
  V  V44  1  0.74915594  0.49234002  0.75078441  1
  V  V45  1  0.37654978  0.37402450  0.00035534  1
  V  V46  1  0.38914496  0.88701063  0.49801695  1
  V  V47  1  0.62277158  0.36606202  0.25016766  1
  V  V48  1  0.62281234  0.24374105  0.38331583  1
  V  V49  1  0.12248657  0.87574134  0.26115351  1
  V  V50  1  0.74765823  0.36475794  0.12497654  1
  V  V51  1  0.74668517  0.88224141  0.14057516  1
  V  V52  1  0.37540895  0.12052135  0.74892649  1
  V  V53  1  0.49941375  0.50023886  0.00218178  1
  V  V54  1  0.00698100  0.74066910  0.25432966  1
  V  V55  1  0.62266238  0.49776066  0.12676358  1
  V  V56  1  0.87140435  0.11647016  0.25228406  1
  V  V57  1  0.24914075  0.37281819  0.62067865  1
  V  V58  1  0.62133871  0.13018721  0.00229314  1
  V  V59  1  0.74788227  0.11673366  0.37968918  1
  V  V60  1  0.24512505  0.74965145  -0.00082969  1
  V  V61  1  0.63024225  0.49177752  0.61966424  1
  V  V62  1  0.12663181  0.12449808  0.50606312  1
  V  V63  1  0.25052188  0.12148386  0.87627714  1
  V  V64  1  0.24338200  0.62922098  0.87457545  1
  V  V65  1  0.37902193  0.75066214  0.13059845  1
  V  V66  1  0.37290504  0.75055056  0.62054103  1
  V  V67  1  0.49990302  0.87680179  0.87517976  1
  V  V68  1  0.36822053  0.24789470  0.62444228  1
  V  V69  1  0.74646311  0.24899922  0.50516283  1
  V  V70  1  0.24912726  0.63872589  0.37330574  1
  V  V71  1  0.87146573  0.85367859  0.50426017  1
  V  V72  1  0.24794314  0.87844136  0.12728633  1
  V  V73  1  0.25037714  0.88777791  0.62875228  1
  V  V74  1  0.00015603  0.24692085  0.75034440  1
  V  V75  1  0.12278869  0.50030804  0.62873196  1
  V  V76  1  0.12553790  0.37788456  0.24843800  1
  V  V77  1  0.49750109  0.74913824  0.74998052  1
  V  V78  1  0.87527920  0.63005273  0.74538382  1
  V  V79  1  0.75159391  0.62396955  0.87858827  1
  V  V80  1  0.25117882  0.50043130  0.74768720  1
  V  V81  1  0.87824645  -0.00324261  0.38162257  1
  V  V82  1  -0.00027995  0.24933808  0.25105983  1
  V  V83  1  0.37265775  0.50170213  0.37374773  1
  V  V84  1  0.00201090  0.38420354  0.87829019  1
  Zn  Zn85  1  0.00269731  0.87152498  0.38000830  1
  Zn  Zn86  1  -0.00117504  0.00412238  0.50684599  1
  Zn  Zn87  1  0.38480916  0.01368642  0.36396228  1
  Zn  Zn88  1  0.68310946  0.67921838  0.53712546  1
  Zn  Zn89  1  0.62136413  -0.00398581  0.14048986  1
  Zn  Zn90  1  0.04987438  0.84277827  0.82032950  1
  Zn  Zn91  1  0.25173676  0.25113900  0.00015410  1
  Zn  Zn92  1  0.12676529  0.37080439  0.74947663  1
  Zn  Zn93  1  0.24784015  0.75828596  0.49553224  1
  Zn  Zn94  1  0.37336818  0.87456324  -0.00120130  1
  Zn  Zn95  1  0.24957172  0.50552474  0.24977936  1
  Zn  Zn96  1  0.11378706  -0.00991366  0.64198298  1
  Zn  Zn97  1  0.88000064  0.61898307  0.24577604  1
  Zn  Zn98  1  0.12638732  0.12538114  0.00332490  1
  Zn  Zn99  1  0.38105685  0.63466279  0.25607305  1
  Zn  Zn100  1  0.74816573  0.85417031  0.61726300  1
  Zn  Zn101  1  0.74516563  0.25244202  -0.00832888  1
  Zn  Zn102  1  0.88034752  0.50284513  0.87803051  1
  Zn  Zn103  1  0.00116059  -0.00483206  -0.00084736  1
  Zn  Zn104  1  0.63090955  0.36816598  0.75024889  1
  Zn  Zn105  1  0.50333347  0.63302626  0.13191502  1
  Zn  Zn106  1  0.50561778  0.50253846  0.49696692  1
  Zn  Zn107  1  0.18807592  0.19084118  0.18703096  1
  Zn  Zn108  1  0.17088878  0.15407387  0.70643849  1
  Zn  Zn109  1  0.19068177  0.68835987  0.18782922  1
  Zn  Zn110  1  0.18688361  0.69233346  0.68188133  1
  Zn  Zn111  1  0.66797811  0.15309276  0.20897755  1
  Zn  Zn112  1  0.68597749  0.18325260  0.68193839  1
  Zn  Zn113  1  0.68916074  0.68693314  0.19014047  1
  Zn  Zn114  1  0.68825249  0.68483860  0.70227397  1
  Zn  Zn115  1  0.31250415  0.31510737  0.30844067  1
  Zn  Zn116  1  0.31428613  0.31037071  0.80973181  1
  Zn  Zn117  1  0.32887522  0.85168243  0.29673049  1
  Zn  Zn118  1  0.21314727  0.81649018  0.80805990  1
  Zn  Zn119  1  0.81135253  0.30656726  0.31561797  1
  Zn  Zn120  1  0.81457500  0.31192947  0.81584857  1
  Zn  Zn121  1  0.81787631  0.81001109  0.31408076  1
  Zn  Zn122  1  0.89068938  0.80702657  0.81093819  1
  Zn  Zn123  1  0.18937247  0.44193074  0.43947376  1
  Zn  Zn124  1  0.18622198  0.44016832  0.93747781  1
  Zn  Zn125  1  0.19177034  0.94101686  0.44590673  1
  Zn  Zn126  1  0.18568112  0.94339466  0.94490216  1
  Zn  Zn127  1  0.68912695  0.43186992  0.43866136  1
  Zn  Zn128  1  0.68827079  0.43756082  0.93919767  1
  Zn  Zn129  1  0.68950438  0.92708173  0.43214880  1
  Zn  Zn130  1  0.69114616  0.93951682  0.93694961  1
  Zn  Zn131  1  0.31052385  0.06033528  0.05946162  1
  Zn  Zn132  1  0.30798619  0.06667410  0.55138048  1
  Zn  Zn133  1  0.31070434  0.56524414  0.06297198  1
  Zn  Zn134  1  0.31277455  0.56318508  0.55790685  1
  Zn  Zn135  1  0.81081910  0.05995998  0.05727128  1
  Zn  Zn136  1  0.81025812  0.06218667  0.56343992  1
  Zn  Zn137  1  0.81008787  0.55958435  0.06506792  1
  Zn  Zn138  1  0.81488478  0.55664794  0.56434749  1
  Zn  Zn139  1  0.43815565  0.43625595  0.19060630  1
  Zn  Zn140  1  0.44162613  0.43770878  0.68728352  1
  Zn  Zn141  1  0.43303634  0.94348318  0.18566442  1
  Zn  Zn142  1  0.43755258  0.93900227  0.68530194  1
  Zn  Zn143  1  0.93649908  0.43498727  0.18700301  1
  Zn  Zn144  1  0.93866314  0.43883388  0.69310122  1
  Zn  Zn145  1  0.93680277  0.93363326  0.19048611  1
  Zn  Zn146  1  0.93381230  0.93756204  0.67574949  1
  Zn  Zn147  1  0.06125588  0.06220016  0.31561113  1
  Zn  Zn148  1  0.06200808  0.05844451  0.81123623  1
  Zn  Zn149  1  0.06559515  0.56227160  0.31296325  1
  Zn  Zn150  1  0.06132173  0.67455997  0.81223895  1
  Zn  Zn151  1  0.56513668  0.05917916  0.31899443  1
  Zn  Zn152  1  0.56008740  0.06346765  0.81091296  1
  Zn  Zn153  1  0.56055567  0.56372909  0.31054528  1
  Zn  Zn154  1  0.56348250  0.56015559  0.81067435  1
  Zn  Zn155  1  0.42926451  0.19068466  0.43538318  1
  Zn  Zn156  1  0.43840047  0.18836258  0.93760061  1
  Zn  Zn157  1  0.43816620  0.69067083  0.43722193  1
  Zn  Zn158  1  0.43254010  0.68812629  0.94096416  1
  Zn  Zn159  1  0.94017740  0.18583237  0.43863545  1
  Zn  Zn160  1  0.93234626  0.18774371  0.93510265  1
  Zn  Zn161  1  0.93915354  0.68186147  0.43168430  1
  Zn  Zn162  1  0.93395819  0.68860109  0.94014029  1
  Zn  Zn163  1  0.06219250  0.31396128  0.06200810  1
  Zn  Zn164  1  0.06190839  0.30625596  0.56555177  1
  Zn  Zn165  1  0.06241129  0.80877198  0.06660837  1
  Zn  Zn166  1  0.06197687  0.81937860  0.56281575  1
  Zn  Zn167  1  0.55988486  0.30468828  0.06379222  1
  Zn  Zn168  1  0.55864688  0.31244961  0.56467850  1
  Zn  Zn169  1  0.56356984  0.81951759  0.06663276  1
  Zn  Zn170  1  0.56836979  0.81196330  0.56011180  1
  O  O171  1  0.11592700  0.11992849  0.12754174  1
  O  O172  1  0.12903948  0.15635067  0.60046371  1
  O  O173  1  0.13183357  0.61037579  0.11822604  1
  O  O174  1  0.11402924  0.61835787  0.61964831  1
  O  O175  1  0.63335470  0.12365087  0.10233157  1
  O  O176  1  0.61355026  0.11490674  0.62453338  1
  O  O177  1  0.62608635  0.61793808  0.11964408  1
  O  O178  1  0.61948382  0.61327018  0.62430824  1
  O  O179  1  0.37690758  0.37914632  0.38326420  1
  O  O180  1  0.38192438  0.38077918  0.88080031  1
  O  O181  1  0.39778313  0.85914133  0.38963489  1
  O  O182  1  0.38070454  0.89021021  0.87751391  1
  O  O183  1  0.88110135  0.37600787  0.38318655  1
  O  O184  1  0.88290622  0.37463266  0.88491463  1
  O  O185  1  0.87561391  0.88151020  0.38416134  1
  O  O186  1  0.85523381  0.88320519  0.89110704  1
  O  O187  1  0.24549914  0.01269988  0.37281242  1
  O  O188  1  0.26140677  0.01341578  0.88364996  1
  O  O189  1  0.25815712  0.50762304  0.37438564  1
  O  O190  1  0.25536625  0.50734683  0.86891473  1
  O  O191  1  0.75451505  0.01250268  0.38025824  1
  O  O192  1  0.75693064  0.00775016  0.86471094  1
  O  O193  1  0.75227130  0.49805336  0.36423075  1
  O  O194  1  0.74998382  0.51011350  0.87250219  1
  O  O195  1  0.24627997  0.48995891  0.12617165  1
  O  O196  1  0.24505959  0.49435178  0.62701821  1
  O  O197  1  0.24028345  0.99041836  0.12020642  1
  O  O198  1  0.25639853  0.98948128  0.62034161  1
  O  O199  1  0.74530388  0.48798253  0.13592317  1
  O  O200  1  0.73813670  0.50260188  0.63425264  1
  O  O201  1  0.75424364  0.98341377  0.12136979  1
  O  O202  1  0.73681705  1.00666446  0.63316810  1
  O  O203  1  0.00499511  0.36769438  0.25512187  1
  O  O204  1  0.00020137  0.36269792  0.75917925  1
  O  O205  1  0.00709315  0.86416397  0.25350640  1
  O  O206  1  -0.04110686  0.89206690  0.77509427  1
  O  O207  1  0.50761110  0.36839031  0.25809743  1
  O  O208  1  0.50003187  0.36696586  0.75870336  1
  O  O209  1  0.50488815  0.87469003  0.25651506  1
  O  O210  1  0.50322176  0.86879189  0.75571570  1
  O  O211  1  0.49038993  0.13418004  0.26343429  1
  O  O212  1  0.49104668  0.13247669  0.74520240  1
  O  O213  1  0.49262407  0.61872718  0.24315538  1
  O  O214  1  0.49614842  0.62899176  0.74125179  1
  O  O215  1  0.99184827  0.13164427  0.24315925  1
  O  O216  1  0.98561669  0.13945507  0.76004517  1
  O  O217  1  1.00038662  0.63567859  0.25174141  1
  O  O218  1  0.99090045  0.62165219  0.73479365  1
  O  O219  1  0.37777077  0.25881707  0.00899765  1
  O  O220  1  0.37596274  0.26400533  0.50848855  1
  O  O221  1  0.36092993  0.75173231  0.00642333  1
  O  O222  1  0.37879323  0.75618672  0.51191981  1
  O  O223  1  0.86870773  0.25741332  0.00772719  1
  O  O224  1  0.87301110  0.25378120  0.50836987  1
  O  O225  1  0.86558808  0.75527616  0.00843640  1
  O  O226  1  0.87677830  0.75505250  0.49468606  1
  O  O227  1  0.11907333  0.25103278  0.48114939  1
  O  O228  1  0.12569032  0.24881915  0.98966348  1
  O  O229  1  0.12437945  0.73784332  0.50357377  1
  O  O230  1  0.13622789  0.73950746  1.00895351  1
  O  O231  1  0.63410430  0.25787504  0.49564627  1
  O  O232  1  0.62532190  0.23602409  0.99622010  1
  O  O233  1  0.62164971  0.75238630  0.47754608  1
  O  O234  1  0.63082642  0.74650173  0.99887258  1
  O  O235  1  0.48998571  0.25048623  0.13733288  1
  O  O236  1  0.48990340  0.24370495  0.63100416  1
  O  O237  1  0.48267109  0.75276434  0.11384651  1
  O  O238  1  0.49926191  0.74227427  0.63003345  1
  O  O239  1  0.99649959  0.24433050  0.13399368  1
  O  O240  1  0.98570096  0.25411344  0.63552670  1
  O  O241  1  0.98886452  0.75345972  0.13749732  1
  O  O242  1  1.00207271  0.73816623  0.62401360  1
  O  O243  1  0.00633798  0.25455741  0.36571572  1
  O  O244  1  0.00666166  0.25480797  0.87083775  1
  O  O245  1  -0.00275697  0.75083643  0.35851974  1
  O  O246  1  -0.01453092  0.74988826  0.86016127  1
  O  O247  1  0.50518054  0.25470296  0.37231135  1
  O  O248  1  0.49420979  0.25929549  0.86445220  1
  O  O249  1  0.50737171  0.75158975  0.36748963  1
  O  O250  1  0.50129543  0.75614328  0.87175151  1
  O  O251  1  0.23654895  0.12889437  0.48396278  1
  O  O252  1  0.24966454  0.13166718  0.98992455  1
  O  O253  1  0.24105157  0.62793935  0.49378355  1
  O  O254  1  0.24364014  0.63003014  0.99166387  1
  O  O255  1  0.75723172  0.13998166  0.49210884  1
  O  O256  1  0.74256661  0.12421214  0.98618204  1
  O  O257  1  0.75255805  0.60768403  0.48167695  1
  O  O258  1  0.74389290  0.63011008  0.99724994  1
  O  O259  1  0.25797852  0.37462761  0.00580667  1
  O  O260  1  0.25685509  0.37957156  0.51290474  1
  O  O261  1  0.24727160  0.86596604  0.01043748  1
  O  O262  1  0.26534590  0.87390107  0.50538378  1
  O  O263  1  0.75405862  0.37163263  0.00835922  1
  O  O264  1  0.76263668  0.36148541  0.49502444  1
  O  O265  1  0.75354487  0.86424266  0.00683243  1
  O  O266  1  0.76663988  0.87437987  0.49730844  1
  O  O267  1  0.12640695  0.49550530  0.23794756  1
  O  O268  1  0.13354394  0.49513282  0.73370766  1
  O  O269  1  0.11625279  0.99140487  0.23947666  1
  O  O270  1  0.13920971  1.04694932  0.73508004  1
  O  O271  1  0.63207516  0.48867037  0.24614725  1
  O  O272  1  0.63251921  0.49723412  0.74127669  1
  O  O273  1  0.63922571  1.04466195  0.23975849  1
  O  O274  1  0.62878538  0.99522936  0.74692308  1
  O  O275  1  0.36205728  -0.03919853  0.26697428  1
  O  O276  1  0.38322359  0.01067865  0.75888691  1
  O  O277  1  0.37206808  0.49502439  0.26567409  1
  O  O278  1  0.37149118  0.50603397  0.75364055  1
  O  O279  1  0.88002699  0.00871653  0.26209602  1
  O  O280  1  0.86239085  0.01015813  0.75141588  1
  O  O281  1  0.86653132  0.49642742  0.25483171  1
  O  O282  1  0.86522428  0.50706191  0.75199929  1
  O  O283  1  0.12187782  0.36906266  0.37074268  1
  O  O284  1  0.12024748  0.36765212  0.87312767  1
  O  O285  1  0.12738190  0.88201259  0.36418045  1
  O  O286  1  0.14054315  0.88444988  0.86365932  1
  O  O287  1  0.62150138  0.36227264  0.37045963  1
  O  O288  1  0.61233619  0.37874315  0.87376965  1
  O  O289  1  0.61124971  0.86415892  0.37447716  1
  O  O290  1  0.62121810  0.87020108  0.86898535  1
  O  O291  1  0.36536754  0.13918699  0.12260648  1
  O  O292  1  0.37712308  0.13036078  0.62922777  1
  O  O293  1  0.37282233  0.64096273  0.12480738  1
  O  O294  1  0.38140462  0.63083862  0.62779478  1
  O  O295  1  0.87757530  0.12714665  0.13276802  1
  O  O296  1  0.86881036  0.13259997  0.63910393  1
  O  O297  1  0.86658657  0.63750668  0.12711063  1
  O  O298  1  0.88997032  0.61572705  0.62848136  1
  O  O299  1  0.25470204  0.26339460  0.12373459  1
  O  O300  1  0.26532526  0.25933919  0.63322199  1
  O  O301  1  0.25714083  0.75481731  0.11674485  1
  O  O302  1  0.26089128  0.75530939  0.61788821  1
  O  O303  1  0.75254195  0.25992048  0.12676104  1
  O  O304  1  0.76130336  0.24778907  0.61921816  1
  O  O305  1  0.75471303  0.75736136  0.11985464  1
  O  O306  1  0.72787719  0.74282377  0.61820675  1
  O  O307  1  0.23762170  0.25176836  0.37026939  1
  O  O308  1  0.24186308  0.24608885  0.87590363  1
  O  O309  1  0.25754508  0.73911744  0.37714589  1
  O  O310  1  0.25564145  0.73678673  0.88350440  1
  O  O311  1  0.74167409  0.24336163  0.38431054  1
  O  O312  1  0.75362766  0.23233970  0.87293557  1
  O  O313  1  0.75266833  0.73258688  0.37244690  1
  O  O314  1  0.74279287  0.73559159  0.88906744  1
  O  O315  1  -0.00385368  0.12900460  0.01542040  1
  O  O316  1  0.02057310  0.12484253  0.48846482  1
  O  O317  1  0.01333072  0.62943807  -0.00346960  1
  O  O318  1  0.00512213  0.61874737  0.50781168  1
  O  O319  1  0.51454646  0.11779707  -0.01023717  1
  O  O320  1  0.49243885  0.13062307  0.51032889  1
  O  O321  1  0.50562836  0.61767354  0.00337618  1
  O  O322  1  0.49575923  0.62204496  0.51318736  1
  O  O323  1  0.49105707  0.37695087  0.49356114  1
  O  O324  1  0.49619394  0.37834362  0.99332256  1
  O  O325  1  0.48994280  0.87649184  0.50390007  1
  O  O326  1  0.50078945  0.88332992  0.99047895  1
  O  O327  1  0.99409503  0.37736599  0.49583113  1
  O  O328  1  0.99007355  0.36890565  0.99218851  1
  O  O329  1  0.98619658  0.87570763  0.49771249  1
  O  O330  1  0.98550325  0.87167485  1.00428028  1
  O  O331  1  0.49393539  0.49211951  0.37826826  1
  O  O332  1  0.49478818  0.49373584  0.88187778  1
  O  O333  1  0.50103991  0.98384505  0.37329799  1
  O  O334  1  0.49503446  0.99559622  0.88176799  1
  O  O335  1  0.99607954  0.49338490  0.38150346  1
  O  O336  1  0.99937766  0.48301475  0.87023730  1
  O  O337  1  0.99148331  0.99581448  0.38008145  1
  O  O338  1  0.98662631  1.01295751  0.88187253  1
  O  O339  1  0.00263738  0.00785078  0.12515771  1
  O  O340  1  0.00320867  0.00100057  0.62050999  1
  O  O341  1  0.01339668  0.49545423  0.12613593  1
  O  O342  1  0.00865335  0.49935136  0.61983382  1
  O  O343  1  0.50238818  -0.00628692  0.11107007  1
  O  O344  1  0.50987012  0.00994473  0.62735367  1
  O  O345  1  0.50654392  0.49505289  0.11620021  1
  O  O346  1  0.51233050  0.50692466  0.62504361  1
  O  O347  1  0.24152263  0.37846391  0.24061512  1
  O  O348  1  0.25189248  0.38162120  0.73810907  1
  O  O349  1  0.23288246  0.86065448  0.23359640  1
  O  O350  1  0.26891271  0.87376853  0.72613902  1
  O  O351  1  0.74443251  0.37576889  0.24502449  1
  O  O352  1  0.74895294  0.38739827  0.76071332  1
  O  O353  1  0.75758292  0.87356497  0.23871097  1
  O  O354  1  0.74448147  0.88824390  0.74340357  1
  O  O355  1  0.24305410  0.13044478  0.26530413  1
  O  O356  1  0.27013457  0.13768090  0.76330557  1
  O  O357  1  0.25591603  0.62440898  0.25889602  1
  O  O358  1  0.25502871  0.62006248  0.75554051  1
  O  O359  1  0.76885966  0.14262733  0.26623739  1
  O  O360  1  0.75138396  0.11950730  0.75765263  1
  O  O361  1  0.75153724  0.61124955  0.25914628  1
  O  O362  1  0.75163461  0.61077850  0.76238908  1
  O  O363  1  0.35632783  0.12646392  0.37781803  1
  O  O364  1  0.37247588  0.11846790  0.86918970  1
  O  O365  1  0.36785196  0.61760965  0.37790867  1
  O  O366  1  0.36821620  0.61818824  0.86920462  1
  O  O367  1  0.87100267  0.11865371  0.37047813  1
  O  O368  1  0.86356517  0.11691116  0.86566273  1
  O  O369  1  0.86656741  0.61250953  0.37039485  1
  O  O370  1  0.86620203  0.62135868  0.86957785  1
  O  O371  1  0.13180827  0.38450368  0.12590704  1
  O  O372  1  0.13357308  0.37854383  0.62443903  1
  O  O373  1  0.12794598  0.88321766  0.13060316  1
  O  O374  1  0.14366693  0.87691887  0.62007889  1
  O  O375  1  0.63132979  0.37522092  0.12904760  1
  O  O376  1  0.61909540  0.38824523  0.63113194  1
  O  O377  1  0.64066028  0.87804767  0.12689862  1
  O  O378  1  0.62543762  0.88493011  0.63143049  1
  O  O379  1  0.11549766  0.25669889  0.25658084  1
  O  O380  1  0.11594379  0.24727178  0.76077298  1
  O  O381  1  0.11142415  0.75618687  0.24125673  1
  O  O382  1  0.12867915  0.75090999  0.75850020  1
  O  O383  1  0.61466811  0.24763711  0.25913047  1
  O  O384  1  0.61148442  0.24997957  0.74195246  1
  O  O385  1  0.63606740  0.74910874  0.26926238  1
  O  O386  1  0.61606146  0.75551259  0.76140144  1
  O  O387  1  0.38369326  0.25817005  0.24040400  1
  O  O388  1  0.38625708  0.24504966  0.74204049  1
  O  O389  1  0.37001173  0.75638919  0.23263922  1
  O  O390  1  0.38494225  0.74215577  0.73465726  1
  O  O391  1  0.88610074  0.24603065  0.24533982  1
  O  O392  1  0.87787368  0.24590204  0.74440227  1
  O  O393  1  0.88560767  0.74602933  0.24357306  1
  O  O394  1  0.85234847  0.72779066  0.74188627  1
  O  O395  1  0.37689843  0.49004935  0.49070624  1
  O  O396  1  0.38086558  0.49457943  0.99626098  1
  O  O397  1  0.37380452  0.98863162  0.48875557  1
  O  O398  1  0.38612976  1.00169078  0.99216464  1
  O  O399  1  0.88084829  0.48871984  0.49536027  1
  O  O400  1  0.86945992  0.48544464  1.00073450  1
  O  O401  1  0.87551044  1.00351059  0.48904482  1
  O  O402  1  0.87740112  0.99087565  0.99085455  1
  O  O403  1  0.11794897  0.00543112  0.01530667  1
  O  O404  1  0.12695560  0.01548069  0.50927217  1
  O  O405  1  0.12832630  0.50690787  0.01252022  1
  O  O406  1  0.12147535  0.50738217  0.51052441  1
  O  O407  1  0.61847699  0.00884699  -0.00182880  1
  O  O408  1  0.63110772  -0.00596673  0.50845260  1
  O  O409  1  0.61987224  0.50420053  0.00730142  1
  O  O410  1  0.62594995  0.49166066  0.51458174  1
  O  O411  1  0.36790522  0.37251455  0.11897341  1
  O  O412  1  0.37147186  0.37129339  0.61844775  1
  O  O413  1  0.36500666  0.86699843  0.11869463  1
  O  O414  1  0.37422481  0.87070282  0.61293903  1
  O  O415  1  0.86795590  0.36825208  0.12017790  1
  O  O416  1  0.87814069  0.37016207  0.61546544  1
  O  O417  1  0.86579241  0.86643886  0.11969360  1
  O  O418  1  0.86680208  0.87177994  0.60830527  1
  O  O419  1  0.13172708  0.13634043  0.37710821  1
  O  O420  1  0.13457467  0.13235366  0.88014650  1
  O  O421  1  0.13542848  0.61837242  0.38524301  1
  O  O422  1  0.13478439  0.61979393  0.88459531  1
  O  O423  1  0.63292328  0.13685451  0.38061328  1
  O  O424  1  0.63824662  0.11857343  0.87979162  1
  O  O425  1  0.63326907  0.63196682  0.37396915  1
  O  O426  1  0.62958623  0.62925545  0.88199630  1
