# generated using pymatgen
data_V85Zn86O256
_symmetry_space_group_name_H-M   'P 1'
_cell_length_a   16.92135718
_cell_length_b   16.92037985
_cell_length_c   16.92523944
_cell_angle_alpha   89.93001930
_cell_angle_beta   90.07056555
_cell_angle_gamma   90.00479888
_symmetry_Int_Tables_number   1
_chemical_formula_structural   V85Zn86O256
_chemical_formula_sum   'V85 Zn86 O256'
_cell_volume   4845.95601245
_cell_formula_units_Z   1
loop_
 _symmetry_equiv_pos_site_id
 _symmetry_equiv_pos_as_xyz
  1  'x, y, z'
loop_
 _atom_site_type_symbol
 _atom_site_label
 _atom_site_symmetry_multiplicity
 _atom_site_fract_x
 _atom_site_fract_y
 _atom_site_fract_z
 _atom_site_occupancy
  V  V0  1  0.24700832  0.76128082  0.50301735  1
  V  V1  1  -0.00015017  0.25534876  0.25518787  1
  V  V2  1  0.25548604  0.12539045  0.88723233  1
  V  V3  1  0.00195876  0.37530457  0.87641342  1
  V  V4  1  0.73783071  0.62896118  0.37288314  1
  V  V5  1  0.62479336  0.24939895  0.36901895  1
  V  V6  1  -0.00262441  0.88472223  0.37235837  1
  V  V7  1  0.37628029  0.50596658  0.37061527  1
  V  V8  1  0.62292972  0.49915863  0.12496977  1
  V  V9  1  0.62204831  0.62741307  0.51365214  1
  V  V10  1  0.00059350  0.12597914  0.12561345  1
  V  V11  1  0.25335259  0.12436713  0.38254357  1
  V  V12  1  0.87921238  0.37506306  0.49481244  1
  V  V13  1  0.38124445  -0.01438774  0.87437506  1
  V  V14  1  0.62654226  0.00329241  0.12894063  1
  V  V15  1  0.87416483  0.24949664  0.62552719  1
  V  V16  1  0.37484073  0.12865311  0.75176281  1
  V  V17  1  0.87561204  0.24982375  0.12645876  1
  V  V18  1  0.74850827  -0.00280467  0.75130398  1
  V  V19  1  0.74617073  0.38213944  0.62221242  1
  V  V20  1  0.50510139  0.50163628  0.51080218  1
  V  V21  1  0.61623113  0.11916669  0.50096515  1
  V  V22  1  0.37460874  0.74234447  0.62499305  1
  V  V23  1  0.01344790  0.62303614  0.12348044  1
  V  V24  1  0.62492083  0.24818145  0.87294740  1
  V  V25  1  0.62048852  0.75337696  0.87468927  1
  V  V26  1  0.24295174  0.63085139  0.37486634  1
  V  V27  1  0.49348647  0.73019120  0.74847295  1
  V  V28  1  0.88010182  0.75292803  0.12239181  1
  V  V29  1  0.62330638  0.37965672  0.74414363  1
  V  V30  1  0.49267883  0.49851049  0.00411493  1
  V  V31  1  0.75603717  0.75114828  -0.00279768  1
  V  V32  1  0.87426667  -0.00562299  0.88241927  1
  V  V33  1  0.49598265  0.37275205  0.87490790  1
  V  V34  1  0.37650520  0.64408876  0.24591980  1
  V  V35  1  0.87346338  0.50054168  0.87528637  1
  V  V36  1  0.26767157  0.75435678  0.00343231  1
  V  V37  1  0.13356724  0.25186136  0.87782318  1
  V  V38  1  0.12784035  0.62446069  0.50749096  1
  V  V39  1  0.61212567  0.87478766  0.75196064  1
  V  V40  1  0.87700958  0.11540402  0.25481111  1
  V  V41  1  0.49986013  0.86888910  0.38928149  1
  V  V42  1  0.87623128  0.62510183  0.25075414  1
  V  V43  1  0.62456072  0.62412677  -0.00013504  1
  V  V44  1  0.00271625  0.75311217  0.74790594  1
  V  V45  1  0.12419442  0.74370630  0.88730279  1
  V  V46  1  0.24380622  0.38559356  0.62269888  1
  V  V47  1  0.01222093  0.12252415  0.62204029  1
  V  V48  1  0.87672192  0.37549350  0.00002693  1
  V  V49  1  0.37363159  0.25273399  0.62325075  1
  V  V50  1  0.25703922  0.62445993  0.87397791  1
  V  V51  1  0.74870929  0.87488013  0.62555716  1
  V  V52  1  0.74886605  0.49827116  0.24990022  1
  V  V53  1  0.87422913  0.12272578  0.75060066  1
  V  V54  1  0.75400627  0.11543494  0.37686827  1
  V  V55  1  0.24651079  -0.00431307  0.74726114  1
  V  V56  1  0.87609298  0.75014227  0.61945068  1
  V  V57  1  0.12266041  0.24830248  0.37986010  1
  V  V58  1  0.48314866  0.24638405  0.24712823  1
  V  V59  1  0.25000414  0.35737522  0.12257820  1
  V  V60  1  0.87345730  0.62501341  0.74772080  1
  V  V61  1  0.88009511  0.49859479  0.37377581  1
  V  V62  1  0.75260082  0.87492993  0.12340040  1
  V  V63  1  0.37220914  0.37723992  0.49661798  1
  V  V64  1  -0.00123076  0.87300196  0.88541059  1
  V  V65  1  0.12390215  0.38041228  0.25020099  1
  V  V66  1  0.13095411  0.87220328  0.25605033  1
  V  V67  1  0.12533786  0.38817327  0.74761113  1
  V  V68  1  0.74865755  0.37526148  0.12542450  1
  V  V69  1  0.00584731  0.74811665  0.25853490  1
  V  V70  1  0.24958427  0.50476633  0.23544125  1
  V  V71  1  0.50114441  -0.01109788  -0.00395151  1
  V  V72  1  0.74957415  0.24889842  -0.00070728  1
  V  V73  1  0.87484410  0.88431361  0.49363607  1
  V  V74  1  0.01033539  0.50393943  0.00454644  1
  V  V75  1  0.00235781  0.25091681  0.75189083  1
  V  V76  1  0.26217465  0.00599888  0.25486382  1
  V  V77  1  0.00507734  0.49967429  0.50308286  1
  V  V78  1  0.12853182  -0.00253500  0.12708028  1
  V  V79  1  0.37132418  0.35911281  0.00485212  1
  V  V80  1  0.12796693  0.12880741  0.00258500  1
  V  V81  1  0.61793632  0.85717312  0.25415163  1
  V  V82  1  0.49479754  0.63857371  0.12730430  1
  V  V83  1  0.48611524  0.12419837  0.12649503  1
  V  V84  1  0.74849957  0.24996826  0.49829489  1
  Zn  Zn85  1  0.00453998  0.62127798  0.62618126  1
  Zn  Zn86  1  0.13211035  -0.01240724  0.61173692  1
  Zn  Zn87  1  0.37629707  0.88816415  0.51329934  1
  Zn  Zn88  1  0.37478108  0.50157158  0.86978964  1
  Zn  Zn89  1  0.62099648  0.37356898  0.24885795  1
  Zn  Zn90  1  0.25467435  0.51470238  0.73964555  1
  Zn  Zn91  1  0.48229983  0.11126940  0.61060430  1
  Zn  Zn92  1  0.24090811  0.24990255  0.50302211  1
  Zn  Zn93  1  0.39271247  0.00908410  0.38630258  1
  Zn  Zn94  1  0.62390234  0.12459792  0.00042395  1
  Zn  Zn95  1  0.50062451  0.25008054  0.74352212  1
  Zn  Zn96  1  -0.00069668  -0.00236250  0.00197048  1
  Zn  Zn97  1  0.61615901  -0.00658861  0.61929577  1
  Zn  Zn98  1  0.74919766  0.62447427  0.87407483  1
  Zn  Zn99  1  0.50057155  0.37684128  0.37096830  1
  Zn  Zn100  1  0.74329817  0.75442615  0.49193274  1
  Zn  Zn101  1  0.13049824  0.87089591  0.74899557  1
  Zn  Zn102  1  0.26721756  0.86037092  0.13330433  1
  Zn  Zn103  1  0.74629486  0.50296163  0.74521566  1
  Zn  Zn104  1  0.00195057  0.00920708  0.49139945  1
  Zn  Zn105  1  0.75349912  -0.00684877  0.25429261  1
  Zn  Zn106  1  0.74780902  0.12296485  0.87403550  1
  Zn  Zn107  1  0.18796817  0.18403757  0.19418515  1
  Zn  Zn108  1  0.19275110  0.19216347  0.69307496  1
  Zn  Zn109  1  0.19012861  0.68879924  0.18581448  1
  Zn  Zn110  1  0.18800072  0.69145944  0.68636323  1
  Zn  Zn111  1  0.68802792  0.18428552  0.18897290  1
  Zn  Zn112  1  0.68729061  0.18943303  0.68539347  1
  Zn  Zn113  1  0.68956145  0.68400018  0.18303652  1
  Zn  Zn114  1  0.68802967  0.68978524  0.68681763  1
  Zn  Zn115  1  0.30675823  0.31428979  0.31328532  1
  Zn  Zn116  1  0.31133479  0.31844638  0.81020969  1
  Zn  Zn117  1  0.31687259  0.81725755  0.32296738  1
  Zn  Zn118  1  0.31381056  0.80897269  0.81119622  1
  Zn  Zn119  1  0.81146515  0.31029427  0.31295900  1
  Zn  Zn120  1  0.81090701  0.31354879  0.81077974  1
  Zn  Zn121  1  0.81331627  0.81088110  0.31025110  1
  Zn  Zn122  1  0.81306139  0.81332624  0.81211374  1
  Zn  Zn123  1  0.18791160  0.44008869  0.43082918  1
  Zn  Zn124  1  0.19037798  0.43838083  0.94151243  1
  Zn  Zn125  1  0.18109104  0.94086031  0.43634894  1
  Zn  Zn126  1  0.18884124  0.93545054  0.93624311  1
  Zn  Zn127  1  0.68663974  0.43867972  0.43453391  1
  Zn  Zn128  1  0.68531571  0.43602347  0.93610946  1
  Zn  Zn129  1  0.68307335  0.93578570  0.43498996  1
  Zn  Zn130  1  0.68637593  0.93537164  0.93924032  1
  Zn  Zn131  1  0.33096015  0.01964108  0.07780002  1
  Zn  Zn132  1  0.30666436  0.06276216  0.55935977  1
  Zn  Zn133  1  0.31179120  0.56995655  0.05711238  1
  Zn  Zn134  1  0.31627319  0.56543833  0.56081139  1
  Zn  Zn135  1  0.81169480  0.06395395  0.06289624  1
  Zn  Zn136  1  0.81148225  0.06112537  0.56424341  1
  Zn  Zn137  1  0.81654323  0.56536946  0.06267905  1
  Zn  Zn138  1  0.81105417  0.56394105  0.55886491  1
  Zn  Zn139  1  0.43346291  0.43694117  0.18728042  1
  Zn  Zn140  1  0.43364736  0.44101641  0.68909115  1
  Zn  Zn141  1  0.44054069  0.93357508  0.19248821  1
  Zn  Zn142  1  0.43402262  0.93361640  0.68343692  1
  Zn  Zn143  1  0.93919181  0.43779272  0.18681043  1
  Zn  Zn144  1  0.93650962  0.43793385  0.68488907  1
  Zn  Zn145  1  0.94077656  0.93521748  0.18576061  1
  Zn  Zn146  1  0.94114911  0.93601391  0.68852960  1
  Zn  Zn147  1  0.06788157  0.06384795  0.31304873  1
  Zn  Zn148  1  0.06207535  0.06332632  0.81479808  1
  Zn  Zn149  1  0.06449392  0.56142822  0.31542866  1
  Zn  Zn150  1  0.06186012  0.56737966  0.81699623  1
  Zn  Zn151  1  0.56341143  0.05912040  0.31017574  1
  Zn  Zn152  1  0.55832254  0.06209430  0.80504623  1
  Zn  Zn153  1  0.55840183  0.56533682  0.31016758  1
  Zn  Zn154  1  0.56404886  0.55890162  0.81686185  1
  Zn  Zn155  1  0.43393702  0.19198830  0.43417089  1
  Zn  Zn156  1  0.44035099  0.18285838  0.94110270  1
  Zn  Zn157  1  0.43810882  0.69265131  0.43649215  1
  Zn  Zn158  1  0.43971034  0.68948533  0.93587368  1
  Zn  Zn159  1  0.93828239  0.18939846  0.43688734  1
  Zn  Zn160  1  0.94009145  0.18554613  0.93690815  1
  Zn  Zn161  1  0.93676186  0.68708265  0.43694623  1
  Zn  Zn162  1  0.93836762  0.68505115  0.93836089  1
  Zn  Zn163  1  0.06643729  0.31383729  0.06538476  1
  Zn  Zn164  1  0.05927486  0.31459139  0.56449508  1
  Zn  Zn165  1  0.06779714  0.81403070  0.06711445  1
  Zn  Zn166  1  0.06598353  0.81523486  0.55972962  1
  Zn  Zn167  1  0.55997461  0.30926850  0.06411672  1
  Zn  Zn168  1  0.55913388  0.31125037  0.55853322  1
  Zn  Zn169  1  0.56753444  0.81443681  0.06317868  1
  Zn  Zn170  1  0.56065146  0.80509468  0.56847419  1
  O  O171  1  0.11937241  0.12280377  0.11947187  1
  O  O172  1  0.11270767  0.13011090  0.63273731  1
  O  O173  1  0.11256839  0.62512777  0.12953922  1
  O  O174  1  0.12516082  0.62506351  0.61235760  1
  O  O175  1  0.62328592  0.11566725  0.12326424  1
  O  O176  1  0.62612404  0.12993652  0.60674487  1
  O  O177  1  0.61783017  0.61731859  0.11909767  1
  O  O178  1  0.63229662  0.61904886  0.61227522  1
  O  O179  1  0.37159910  0.38374299  0.38356454  1
  O  O180  1  0.38125402  0.37357829  0.88506647  1
  O  O181  1  0.39028453  0.87902673  0.38483015  1
  O  O182  1  0.37602153  0.88752081  0.87186982  1
  O  O183  1  0.86780704  0.38353846  0.38411030  1
  O  O184  1  0.88190798  0.38090106  0.87805757  1
  O  O185  1  0.88097140  0.87106863  0.38254577  1
  O  O186  1  0.88247659  0.88308755  0.87315497  1
  O  O187  1  0.24531935  0.01336283  0.37038130  1
  O  O188  1  0.26199146  0.00682790  0.87174797  1
  O  O189  1  0.26107280  0.51017275  0.36777655  1
  O  O190  1  0.24718484  0.51740730  0.88102229  1
  O  O191  1  0.74871012  0.01141258  0.37374801  1
  O  O192  1  0.75698212  0.00027227  0.87134900  1
  O  O193  1  0.75895493  0.50664819  0.36927474  1
  O  O194  1  0.76256264  0.49881713  0.87402914  1
  O  O195  1  0.25233033  0.50258646  0.13382190  1
  O  O196  1  0.25122869  0.48982402  0.62187780  1
  O  O197  1  0.23446477  1.01433797  0.13921205  1
  O  O198  1  0.24557264  1.01055731  0.64392075  1
  O  O199  1  0.74550046  0.49604649  0.12875088  1
  O  O200  1  0.75573109  0.48575658  0.62445757  1
  O  O201  1  0.74587067  0.99111087  0.12434853  1
  O  O202  1  0.74709219  0.98803586  0.63060553  1
  O  O203  1  0.00992273  0.36770795  0.24364985  1
  O  O204  1  0.00565561  0.37162762  0.75520892  1
  O  O205  1  0.00585741  0.86717700  0.25453458  1
  O  O206  1  -0.00618955  0.86111279  0.76191697  1
  O  O207  1  0.50001400  0.35991820  0.24729676  1
  O  O208  1  0.50552400  0.37174824  0.75751905  1
  O  O209  1  0.51554408  0.86951893  0.24758733  1
  O  O210  1  0.51124079  0.86529039  0.74984302  1
  O  O211  1  0.50298635  0.13394575  0.23892696  1
  O  O212  1  0.48338050  0.13213630  0.75138381  1
  O  O213  1  0.48900100  0.62404060  0.23979971  1
  O  O214  1  0.50327246  0.63159081  0.75267695  1
  O  O215  1  0.99439083  0.13236617  0.24564517  1
  O  O216  1  0.99369573  0.13095048  0.74477990  1
  O  O217  1  0.99674244  0.63054537  0.24619029  1
  O  O218  1  0.99011073  0.63427603  0.74976452  1
  O  O219  1  0.37975115  0.26004034  0.00136641  1
  O  O220  1  0.37111722  0.26160365  0.50398730  1
  O  O221  1  0.36672723  0.75499958  -0.00461034  1
  O  O222  1  0.36454179  0.75093961  0.50733636  1
  O  O223  1  0.86938583  0.25450251  0.00371597  1
  O  O224  1  0.87013456  0.25890228  0.50278708  1
  O  O225  1  0.86475200  0.74479459  0.00653425  1
  O  O226  1  0.87311083  0.75513955  0.51013205  1
  O  O227  1  0.12063237  0.26142062  0.48372037  1
  O  O228  1  0.12108912  0.23845499  0.99352203  1
  O  O229  1  0.13835499  0.74208095  0.50131820  1
  O  O230  1  0.12342499  0.74987911  0.98853223  1
  O  O231  1  0.62750927  0.24300351  0.48741528  1
  O  O232  1  0.63309826  0.25060361  0.99222241  1
  O  O233  1  0.62538729  0.73234985  0.50367462  1
  O  O234  1  0.63314007  0.74608227  0.99248635  1
  O  O235  1  0.50332114  0.23628468  0.13551777  1
  O  O236  1  0.48395236  0.24821886  0.62247441  1
  O  O237  1  0.50352892  0.73724126  0.11635106  1
  O  O238  1  0.49479788  0.74503091  0.64072317  1
  O  O239  1  0.99566088  0.24633013  0.13435082  1
  O  O240  1  0.99349609  0.24202095  0.63177688  1
  O  O241  1  0.99510340  0.74505928  0.13077926  1
  O  O242  1  0.99194094  0.74671035  0.63247988  1
  O  O243  1  0.00519602  0.24774795  0.36276467  1
  O  O244  1  0.01004123  0.25568883  0.87180541  1
  O  O245  1  -0.00501231  0.75549577  0.36170408  1
  O  O246  1  0.00673136  0.75262269  0.87155866  1
  O  O247  1  0.50528707  0.24977966  0.36135746  1
  O  O248  1  0.50727906  0.25960707  0.87659201  1
  O  O249  1  0.49922722  0.76749539  0.37368688  1
  O  O250  1  0.50906852  0.74583213  0.86328559  1
  O  O251  1  0.24378568  0.13119721  0.48728030  1
  O  O252  1  0.24376518  0.12115321  0.98961271  1
  O  O253  1  0.24406524  0.62851127  0.49234245  1
  O  O254  1  0.25086731  0.64085065  0.98819557  1
  O  O255  1  0.74619470  0.13080586  0.49393995  1
  O  O256  1  0.74902893  0.13787349  0.99664024  1
  O  O257  1  0.73623202  0.62193886  0.49149402  1
  O  O258  1  0.74308992  0.63325235  1.00067367  1
  O  O259  1  0.25468557  0.37620423  0.01431703  1
  O  O260  1  0.25513404  0.37587413  0.50429830  1
  O  O261  1  0.24270154  0.85666863  -0.00017312  1
  O  O262  1  0.24898843  0.86281968  0.49227537  1
  O  O263  1  0.75526432  0.36561126  0.00316301  1
  O  O264  1  0.75602288  0.37083928  0.50401001  1
  O  O265  1  0.74474860  0.86535350  0.01426867  1
  O  O266  1  0.75531735  0.87397261  0.50503963  1
  O  O267  1  0.13591464  0.49262417  0.25655262  1
  O  O268  1  0.12537802  0.49087733  0.75594124  1
  O  O269  1  0.13003702  0.99150907  0.24485762  1
  O  O270  1  0.14188013  1.00191276  0.75969636  1
  O  O271  1  0.62960964  0.49781290  0.24274664  1
  O  O272  1  0.62846975  0.48423601  0.75684812  1
  O  O273  1  0.63101048  0.99379065  0.23786438  1
  O  O274  1  0.63314042  0.98999407  0.75463639  1
  O  O275  1  0.36368606  -0.00180970  0.26157642  1
  O  O276  1  0.36676284  0.00768515  0.75965185  1
  O  O277  1  0.36708439  0.50562268  0.25609228  1
  O  O278  1  0.36478185  0.49073142  0.75775758  1
  O  O279  1  0.87468855  0.01220314  0.24316460  1
  O  O280  1  0.86958600  0.00564058  0.75776674  1
  O  O281  1  0.87096351  0.50367138  0.25632296  1
  O  O282  1  0.87531834  0.50782383  0.75653775  1
  O  O283  1  0.13503549  0.36585733  0.35768817  1
  O  O284  1  0.12285657  0.36895934  0.87097475  1
  O  O285  1  0.11515983  0.87493347  0.36243403  1
  O  O286  1  0.11715359  0.86388184  0.87054197  1
  O  O287  1  0.62278251  0.36461393  0.37181685  1
  O  O288  1  0.61834443  0.36524154  0.86944836  1
  O  O289  1  0.62175399  0.87354366  0.36085099  1
  O  O290  1  0.63236320  0.86108657  0.86673973  1
  O  O291  1  0.38811845  0.11604163  0.12267905  1
  O  O292  1  0.36784327  0.13604946  0.63241874  1
  O  O293  1  0.38348990  0.62072436  0.13361403  1
  O  O294  1  0.37091966  0.63975701  0.62531198  1
  O  O295  1  0.87997113  0.13141796  0.13215457  1
  O  O296  1  0.87794293  0.12919817  0.63662515  1
  O  O297  1  0.87987488  0.63615374  0.13276937  1
  O  O298  1  0.87521668  0.63271858  0.62975466  1
  O  O299  1  0.24967813  0.25907462  0.13022585  1
  O  O300  1  0.25752167  0.26105624  0.62284120  1
  O  O301  1  0.25091665  0.74728365  0.10890569  1
  O  O302  1  0.25514039  0.74843129  0.61139721  1
  O  O303  1  0.75437077  0.25383755  0.11802753  1
  O  O304  1  0.75617571  0.25795082  0.61755275  1
  O  O305  1  0.75873888  0.75427200  0.11823889  1
  O  O306  1  0.75767966  0.76055200  0.62258506  1
  O  O307  1  0.24153348  0.24111977  0.37458785  1
  O  O308  1  0.23943021  0.24411657  0.87130725  1
  O  O309  1  0.25705392  0.74069286  0.38941469  1
  O  O310  1  0.24210829  0.74517928  0.88108993  1
  O  O311  1  0.74241827  0.24085696  0.37923824  1
  O  O312  1  0.74296829  0.25039806  0.88205500  1
  O  O313  1  0.75786521  0.73394170  0.37608129  1
  O  O314  1  0.74630299  0.74838432  0.88320415  1
  O  O315  1  0.00863113  0.12243752  0.00708510  1
  O  O316  1  -0.00855232  0.12757525  0.51858471  1
  O  O317  1  -0.00574395  0.61623483  0.01080007  1
  O  O318  1  0.00957263  0.61927414  0.49831625  1
  O  O319  1  0.50444959  0.11965146  0.01362893  1
  O  O320  1  0.51243227  0.13077216  0.49610612  1
  O  O321  1  0.50356748  0.61595694  0.00439877  1
  O  O322  1  0.51190376  0.61422539  0.49400888  1
  O  O323  1  0.49233552  0.38565800  0.49479366  1
  O  O324  1  0.49243359  0.37919469  0.99700967  1
  O  O325  1  0.50895028  0.87359008  0.49205811  1
  O  O326  1  0.50687772  0.88956771  1.00294220  1
  O  O327  1  0.98712184  0.38217169  0.50273199  1
  O  O328  1  0.99471445  0.37973218  0.99659482  1
  O  O329  1  0.99122649  0.87017475  0.48608484  1
  O  O330  1  1.00351566  0.87587444  0.99000347  1
  O  O331  1  0.48738554  0.49833488  0.37652470  1
  O  O332  1  0.50152618  0.48650607  0.88480884  1
  O  O333  1  0.50452570  0.97960834  0.36402460  1
  O  O334  1  0.49017713  1.00381336  0.87945525  1
  O  O335  1  0.98665128  0.50384383  0.38249726  1
  O  O336  1  0.99004244  0.49691333  0.88161676  1
  O  O337  1  0.99774391  0.98897696  0.36941408  1
  O  O338  1  0.99344620  0.99006526  0.87459991  1
  O  O339  1  0.01197356  0.00481659  0.12462292  1
  O  O340  1  0.00057895  0.01712008  0.63187586  1
  O  O341  1  -0.00816275  0.51099990  0.11639787  1
  O  O342  1  -0.00699705  0.50328162  0.60845681  1
  O  O343  1  0.50901799  0.00983612  0.12153150  1
  O  O344  1  0.50691203  0.00674555  0.64277417  1
  O  O345  1  0.50420617  0.50259541  0.11808836  1
  O  O346  1  0.49703239  0.49637807  0.60916661  1
  O  O347  1  0.24718487  0.38326022  0.23829883  1
  O  O348  1  0.23904592  0.37663210  0.74064637  1
  O  O349  1  0.24510403  0.88173198  0.25321927  1
  O  O350  1  0.25124322  0.89180076  0.75737741  1
  O  O351  1  0.74863541  0.38033582  0.24285564  1
  O  O352  1  0.74300040  0.37503649  0.73955839  1
  O  O353  1  0.74376281  0.87365687  0.24012933  1
  O  O354  1  0.74369070  0.87697856  0.74201363  1
  O  O355  1  0.24593040  0.11676871  0.26452408  1
  O  O356  1  0.25801878  0.11953155  0.76231855  1
  O  O357  1  0.25507094  0.62154564  0.25608928  1
  O  O358  1  0.24180082  0.62876143  0.76799945  1
  O  O359  1  0.76019869  0.12421600  0.25882720  1
  O  O360  1  0.75695726  0.11906597  0.75051558  1
  O  O361  1  0.75469044  0.61798476  0.25524710  1
  O  O362  1  0.76074130  0.62333957  0.75059871  1
  O  O363  1  0.35879660  0.12687983  0.37726510  1
  O  O364  1  0.36881961  0.12623475  0.86897235  1
  O  O365  1  0.37010832  0.62178878  0.36652122  1
  O  O366  1  0.36113132  0.62496274  0.87754124  1
  O  O367  1  0.86730276  0.13071537  0.36646357  1
  O  O368  1  0.87583250  0.11937764  0.86333172  1
  O  O369  1  0.86812427  0.61656657  0.36964424  1
  O  O370  1  0.87348191  0.61756000  0.86681288  1
  O  O371  1  0.13931501  0.37232402  0.13430372  1
  O  O372  1  0.13140227  0.37067245  0.63500718  1
  O  O373  1  0.13103919  0.88340129  0.13562359  1
  O  O374  1  0.10978074  0.87908478  0.63865792  1
  O  O375  1  0.63124095  0.38071674  0.12445522  1
  O  O376  1  0.63235274  0.36615746  0.63173057  1
  O  O377  1  0.63336660  0.88017125  0.13455783  1
  O  O378  1  0.63304927  0.87245588  0.63301311  1
  O  O379  1  0.11669504  0.25694900  0.25575906  1
  O  O380  1  0.11992575  0.25801780  0.75997527  1
  O  O381  1  0.11767055  0.75886052  0.24391517  1
  O  O382  1  0.11567759  0.74854319  0.75989445  1
  O  O383  1  0.62237844  0.24824318  0.26040337  1
  O  O384  1  0.62384922  0.25842555  0.75663572  1
  O  O385  1  0.62977587  0.75918756  0.24527119  1
  O  O386  1  0.61753864  0.75229570  0.75590372  1
  O  O387  1  0.38485751  0.25071121  0.25342760  1
  O  O388  1  0.37275074  0.24620323  0.74142543  1
  O  O389  1  0.36568408  0.74322570  0.24827236  1
  O  O390  1  0.38780140  0.74876967  0.74795379  1
  O  O391  1  0.88209983  0.24476000  0.24567460  1
  O  O392  1  0.88058899  0.24271527  0.74753908  1
  O  O393  1  0.88428177  0.74441440  0.24156584  1
  O  O394  1  0.87923898  0.74341299  0.74095159  1
  O  O395  1  0.38430550  0.49756541  0.49203005  1
  O  O396  1  0.38463498  0.49445082  0.99698341  1
  O  O397  1  0.37570507  1.00136573  0.49987731  1
  O  O398  1  0.38651748  1.00927371  0.97933003  1
  O  O399  1  0.87904827  0.49457371  0.49170362  1
  O  O400  1  0.87933601  0.49392332  0.99248276  1
  O  O401  1  0.88117690  0.98756002  0.50623481  1
  O  O402  1  0.87775371  1.00795503  0.98625990  1
  O  O403  1  0.12596078  0.00965335  0.00729044  1
  O  O404  1  0.11396029  -0.00006724  0.50109067  1
  O  O405  1  0.10914391  0.49568062  -0.00272224  1
  O  O406  1  0.11503902  0.50736559  0.49039833  1
  O  O407  1  0.62094265  0.00213844  0.00869476  1
  O  O408  1  0.62988860  0.01556068  0.50084819  1
  O  O409  1  0.61494320  0.50226579  0.00401526  1
  O  O410  1  0.61116158  0.50465546  0.49455642  1
  O  O411  1  0.35944640  0.37815180  0.11912813  1
  O  O412  1  0.36765950  0.37180311  0.61343051  1
  O  O413  1  0.36326326  0.91471542  0.11616386  1
  O  O414  1  0.37771114  0.85609721  0.62517960  1
  O  O415  1  0.86893861  0.36896110  0.11970869  1
  O  O416  1  0.86793575  0.36830050  0.61753196  1
  O  O417  1  0.86978057  0.86213489  0.12913982  1
  O  O418  1  0.87028314  0.86835789  0.61953724  1
  O  O419  1  0.13255018  0.13846310  0.37066280  1
  O  O420  1  0.13053568  0.13221677  0.88277700  1
  O  O421  1  0.13793861  0.62327401  0.38172535  1
  O  O422  1  0.13072395  0.63824099  0.87693482  1
  O  O423  1  0.63184258  0.12906786  0.38267155  1
  O  O424  1  0.62391114  0.13778585  0.87349015  1
  O  O425  1  0.63451408  0.61778175  0.37945356  1
  O  O426  1  0.62870707  0.63300016  0.88156310  1
