# generated using pymatgen
data_V85Zn86O256
_symmetry_space_group_name_H-M   'P 1'
_cell_length_a   16.93929900
_cell_length_b   16.95738379
_cell_length_c   16.96118173
_cell_angle_alpha   89.90006830
_cell_angle_beta   89.93719242
_cell_angle_gamma   90.01102189
_symmetry_Int_Tables_number   1
_chemical_formula_structural   V85Zn86O256
_chemical_formula_sum   'V85 Zn86 O256'
_cell_volume   4872.02447362
_cell_formula_units_Z   1
loop_
 _symmetry_equiv_pos_site_id
 _symmetry_equiv_pos_as_xyz
  1  'x, y, z'
loop_
 _atom_site_type_symbol
 _atom_site_label
 _atom_site_symmetry_multiplicity
 _atom_site_fract_x
 _atom_site_fract_y
 _atom_site_fract_z
 _atom_site_occupancy
  V  V0  1  0.50484901  0.12256506  0.63011371  1
  V  V1  1  0.49799653  0.12466198  0.12433477  1
  V  V2  1  0.87783982  0.13075502  0.24425334  1
  V  V3  1  0.13353740  0.24852541  0.36687507  1
  V  V4  1  0.50237637  0.00093767  0.49755766  1
  V  V5  1  0.62132133  0.37275543  0.74556485  1
  V  V6  1  0.24135468  0.12404247  0.87914667  1
  V  V7  1  0.62396617  0.62709799  0.00326695  1
  V  V8  1  0.87868405  0.88165826  -0.00255652  1
  V  V9  1  0.87753418  0.62927506  0.74952242  1
  V  V10  1  0.49929914  0.36975681  0.87114454  1
  V  V11  1  0.37118564  0.86642165  0.00833326  1
  V  V12  1  0.37276932  0.38358183  0.49559606  1
  V  V13  1  0.37099930  0.12279364  0.25834793  1
  V  V14  1  0.24880341  0.61748989  0.38145947  1
  V  V15  1  0.00816354  0.37890819  0.87001607  1
  V  V16  1  0.87865757  0.62661478  0.25049194  1
  V  V17  1  0.87722524  0.37760560  -0.00135518  1
  V  V18  1  0.50104392  0.37163659  0.37653101  1
  V  V19  1  0.87715401  0.24546128  0.12211236  1
  V  V20  1  0.74893384  0.00464966  0.24438624  1
  V  V21  1  0.00558058  0.12657101  0.62284421  1
  V  V22  1  0.62461692  0.74889469  0.86695901  1
  V  V23  1  0.37530749  0.24980925  0.12646985  1
  V  V24  1  0.23955488  -0.00704071  0.24729239  1
  V  V25  1  0.12736519  0.25115258  0.87164233  1
  V  V26  1  0.00398548  0.87393484  0.37695174  1
  V  V27  1  0.24410039  -0.00449433  0.74924191  1
  V  V28  1  0.24839269  0.62585494  0.87076319  1
  V  V29  1  0.00678266  0.62033098  0.12079539  1
  V  V30  1  0.49740195  0.75617430  0.24355978  1
  V  V31  1  0.11905059  0.74510661  0.38320554  1
  V  V32  1  0.48789907  0.62353629  0.12534459  1
  V  V33  1  0.00863935  0.25705701  0.74603951  1
  V  V34  1  0.24434231  0.49483401  0.74999510  1
  V  V35  1  0.74671936  0.38172911  0.62031615  1
  V  V36  1  0.05927310  0.80636064  0.20205021  1
  V  V37  1  0.86652671  0.75644809  0.61918952  1
  V  V38  1  0.24646923  0.73891144  0.01201369  1
  V  V39  1  0.12719896  0.75068799  0.86627028  1
  V  V40  1  0.00482767  0.62874309  0.62080543  1
  V  V41  1  0.23851411  0.38169224  0.12882704  1
  V  V42  1  0.37569875  0.50344031  0.86538821  1
  V  V43  1  0.12156112  -0.00944713  0.62723268  1
  V  V44  1  0.74884386  0.25204246  -0.00720294  1
  V  V45  1  0.49839995  0.49840682  -0.00152965  1
  V  V46  1  0.25192457  0.24159868  0.49938674  1
  V  V47  1  0.00186434  0.00158397  0.49815036  1
  V  V48  1  0.00390600  0.87980618  0.86700790  1
  V  V49  1  0.87565902  0.25459313  0.62384685  1
  V  V50  1  0.87641785  0.00086401  0.37194430  1
  V  V51  1  0.74848313  0.87584039  0.12711614  1
  V  V52  1  0.00930894  0.37511392  0.36466966  1
  V  V53  1  0.87706342  0.50112740  0.87527168  1
  V  V54  1  0.75149688  0.74784788  0.00257351  1
  V  V55  1  0.37526064  0.37305898  0.00006072  1
  V  V56  1  0.01479852  0.50435607  0.00060347  1
  V  V57  1  0.37412114  0.61807332  0.26083939  1
  V  V58  1  0.37320931  -0.00169635  0.87814655  1
  V  V59  1  0.74937497  0.13336948  0.36980451  1
  V  V60  1  0.88031810  0.50062985  0.37294241  1
  V  V61  1  0.62266169  0.24566130  0.86898830  1
  V  V62  1  0.00674389  0.50351663  0.49810856  1
  V  V63  1  0.51347665  0.50709725  0.50235586  1
  V  V64  1  0.87325146  0.75303215  0.13361401  1
  V  V65  1  0.38078874  0.25070028  0.62523503  1
  V  V66  1  0.01903640  0.00395771  0.00040288  1
  V  V67  1  0.62315145  0.36480113  0.25178396  1
  V  V68  1  0.50514998  0.62128421  0.64136894  1
  V  V69  1  0.36819253  -0.00463619  0.37730751  1
  V  V70  1  0.37490140  0.12886928  0.75095954  1
  V  V71  1  0.12269958  0.49290219  0.62820163  1
  V  V72  1  0.55306064  0.81882097  0.42901245  1
  V  V73  1  0.36966460  0.87167688  0.50367476  1
  V  V74  1  0.73231446  0.50988154  0.26524042  1
  V  V75  1  0.63080592  0.11638168  -0.00779334  1
  V  V76  1  0.74554264  0.25730874  0.49255466  1
  V  V77  1  0.62462081  0.12901605  0.49335365  1
  V  V78  1  0.75036316  0.37950735  0.12714059  1
  V  V79  1  0.24468010  0.24512479  0.00288855  1
  V  V80  1  0.24341858  0.74536257  0.50423380  1
  V  V81  1  0.74860591  0.49918966  0.74688122  1
  V  V82  1  0.87409409  0.12250781  0.76249903  1
  V  V83  1  0.01883544  0.12542602  0.11970288  1
  V  V84  1  0.61984054  -0.00379486  0.12858824  1
  Zn  Zn85  1  0.24655626  0.37062320  0.63011163  1
  Zn  Zn86  1  0.72835661  0.63896692  0.38555632  1
  Zn  Zn87  1  0.82960227  0.91522916  0.54306596  1
  Zn  Zn88  1  0.73202528  0.02800736  0.81134314  1
  Zn  Zn89  1  0.13153733  0.12309056  0.49462005  1
  Zn  Zn90  1  0.36896337  0.73743355  0.63280304  1
  Zn  Zn91  1  0.24373759  0.86794197  0.13348934  1
  Zn  Zn92  1  0.00860056  0.25786820  0.24146041  1
  Zn  Zn93  1  0.87664143  0.37685852  0.49527620  1
  Zn  Zn94  1  0.49754580  0.87235122  0.87470819  1
  Zn  Zn95  1  0.75150882  0.62319937  0.87676544  1
  Zn  Zn96  1  0.74206505  0.75528995  0.48948385  1
  Zn  Zn97  1  0.65421712  -0.00237872  0.62907699  1
  Zn  Zn98  1  0.48409277  0.75346852  0.75557989  1
  Zn  Zn99  1  0.62750412  0.86366078  0.25690050  1
  Zn  Zn100  1  0.24226367  0.48934487  0.25987793  1
  Zn  Zn101  1  0.50154807  0.24652421  0.25674856  1
  Zn  Zn102  1  0.00122976  0.75995315  0.74626404  1
  Zn  Zn103  1  0.24676555  0.86768788  0.63299094  1
  Zn  Zn104  1  0.49151162  -0.00397161  0.00429133  1
  Zn  Zn105  1  0.62250712  0.49479424  0.11748154  1
  Zn  Zn106  1  0.63356823  0.88929708  0.75483086  1
  Zn  Zn107  1  0.19536700  0.18610157  0.19221219  1
  Zn  Zn108  1  0.18961248  0.18542937  0.68655437  1
  Zn  Zn109  1  0.17543417  0.64552073  0.19881614  1
  Zn  Zn110  1  0.18796303  0.68042061  0.69036308  1
  Zn  Zn111  1  0.68794636  0.18851587  0.17903560  1
  Zn  Zn112  1  0.69062463  0.18654179  0.68610095  1
  Zn  Zn113  1  0.68161477  0.68710956  0.19014157  1
  Zn  Zn114  1  0.68836914  0.68062882  0.68030610  1
  Zn  Zn115  1  0.31409509  0.31266556  0.31229093  1
  Zn  Zn116  1  0.31312479  0.31245037  0.81087203  1
  Zn  Zn117  1  0.31388251  0.80811497  0.31686599  1
  Zn  Zn118  1  0.31244899  0.81339759  0.81395387  1
  Zn  Zn119  1  0.81709324  0.31900853  0.31005240  1
  Zn  Zn120  1  0.81535905  0.31187138  0.81062099  1
  Zn  Zn121  1  0.80960354  0.81734054  0.32124612  1
  Zn  Zn122  1  0.81166269  0.81304491  0.81840793  1
  Zn  Zn123  1  0.18599533  0.43357043  0.44392927  1
  Zn  Zn124  1  0.19021739  0.43526905  0.93860211  1
  Zn  Zn125  1  0.18689341  0.93361331  0.43563478  1
  Zn  Zn126  1  0.19047249  0.93064145  0.93789153  1
  Zn  Zn127  1  0.68046915  0.45284677  0.42746804  1
  Zn  Zn128  1  0.68742088  0.43698829  0.93378134  1
  Zn  Zn129  1  0.68895292  0.94536514  0.43662955  1
  Zn  Zn130  1  0.68189203  0.92984009  0.94348107  1
  Zn  Zn131  1  0.30630570  0.05914450  0.06751665  1
  Zn  Zn132  1  0.31348604  0.05989037  0.56551150  1
  Zn  Zn133  1  0.31442433  0.56077676  0.05970031  1
  Zn  Zn134  1  0.31363864  0.56378540  0.56720125  1
  Zn  Zn135  1  0.79670911  0.04977261  0.02353447  1
  Zn  Zn136  1  0.81943114  0.08154181  0.55891354  1
  Zn  Zn137  1  0.81641655  0.56249088  0.06516153  1
  Zn  Zn138  1  0.81169532  0.56988400  0.55610905  1
  Zn  Zn139  1  0.43195373  0.43853020  0.18947047  1
  Zn  Zn140  1  0.43846019  0.43918503  0.68317311  1
  Zn  Zn141  1  0.43081817  0.93612556  0.18884365  1
  Zn  Zn142  1  0.44039449  0.93469938  0.68862339  1
  Zn  Zn143  1  0.93773971  0.44091980  0.18652518  1
  Zn  Zn144  1  0.93607076  0.43912791  0.68618359  1
  Zn  Zn145  1  0.93654521  0.94747739  0.18001516  1
  Zn  Zn146  1  0.82905549  0.94087338  0.70118273  1
  Zn  Zn147  1  0.06271787  0.07011563  0.30998607  1
  Zn  Zn148  1  0.05700478  0.06157100  0.81041237  1
  Zn  Zn149  1  0.06552313  0.56530702  0.30997496  1
  Zn  Zn150  1  0.06581877  0.56638733  0.81077116  1
  Zn  Zn151  1  0.55861785  0.06126349  0.31430108  1
  Zn  Zn152  1  0.55518230  0.06026414  0.81152354  1
  Zn  Zn153  1  0.55412575  0.55064749  0.31004509  1
  Zn  Zn154  1  0.56804226  0.55908812  0.81501359  1
  Zn  Zn155  1  0.43701638  0.18856130  0.43761174  1
  Zn  Zn156  1  0.43767377  0.18635460  0.93822222  1
  Zn  Zn157  1  0.42940684  0.68081797  0.44598877  1
  Zn  Zn158  1  0.43422111  0.68651037  0.93445535  1
  Zn  Zn159  1  0.93981353  0.19130902  0.43443138  1
  Zn  Zn160  1  0.94388202  0.18912406  0.93923178  1
  Zn  Zn161  1  0.93292861  0.68639421  0.43905739  1
  Zn  Zn162  1  0.93816021  0.69093636  0.93818951  1
  Zn  Zn163  1  0.06426518  0.31395270  0.05693333  1
  Zn  Zn164  1  0.06441569  0.31613412  0.55405617  1
  Zn  Zn165  1  0.06487599  0.80729082  0.04046488  1
  Zn  Zn166  1  0.05557124  0.81489783  0.56116549  1
  Zn  Zn167  1  0.56254845  0.30873741  0.06064550  1
  Zn  Zn168  1  0.56183788  0.31262430  0.56164887  1
  Zn  Zn169  1  0.55826675  0.81055196  0.06290971  1
  Zn  Zn170  1  0.57171774  0.80844903  0.59968045  1
  O  O171  1  0.11761743  0.13569957  0.12478093  1
  O  O172  1  0.11481915  0.12378294  0.62095033  1
  O  O173  1  0.10314071  0.64580976  0.11234834  1
  O  O174  1  0.10966476  0.61436548  0.63174330  1
  O  O175  1  0.61627876  0.11740098  0.11907834  1
  O  O176  1  0.62013594  0.12333783  0.61522274  1
  O  O177  1  0.61448426  0.62255669  0.11439187  1
  O  O178  1  0.60626994  0.62517667  0.62540551  1
  O  O179  1  0.37908275  0.37167616  0.38947699  1
  O  O180  1  0.38144265  0.37820247  0.87991987  1
  O  O181  1  0.37294698  0.88217511  0.39033338  1
  O  O182  1  0.36948756  0.88418491  0.88807758  1
  O  O183  1  0.89266451  0.37989872  0.37422810  1
  O  O184  1  0.88684203  0.37935621  0.87831116  1
  O  O185  1  0.88869415  0.89387901  0.36124953  1
  O  O186  1  0.88969125  0.86238883  0.89188077  1
  O  O187  1  0.26121093  -0.00287232  0.36962225  1
  O  O188  1  0.25491904  0.00659268  0.87181020  1
  O  O189  1  0.23957561  0.51357081  0.37983320  1
  O  O190  1  0.25553189  0.50389703  0.87035452  1
  O  O191  1  0.75909716  0.01261157  0.36526417  1
  O  O192  1  0.73366944  0.02854340  0.92457689  1
  O  O193  1  0.77630151  0.47456673  0.36657218  1
  O  O194  1  0.75888889  0.49990222  0.86597445  1
  O  O195  1  0.25421881  0.48210867  0.11713068  1
  O  O196  1  0.24051830  0.50038180  0.63220332  1
  O  O197  1  0.24926387  0.99224659  0.14173187  1
  O  O198  1  0.23912188  1.00194750  0.63334909  1
  O  O199  1  0.75205512  0.48832144  0.13154688  1
  O  O200  1  0.76154156  0.48793197  0.63015656  1
  O  O201  1  0.73930519  0.99597334  0.12378535  1
  O  O202  1  0.77256570  0.99536028  0.61409266  1
  O  O203  1  0.00231157  0.37825065  0.25943226  1
  O  O204  1  -0.00496590  0.36803283  0.75724166  1
  O  O205  1  0.00247033  0.87628708  0.25219468  1
  O  O206  1  -0.00522205  0.87807203  0.76858175  1
  O  O207  1  0.50402134  0.37484676  0.25814331  1
  O  O208  1  0.51448786  0.38124493  0.75201615  1
  O  O209  1  0.49804576  0.85908111  0.24434816  1
  O  O210  1  0.50502470  0.87311752  0.75692395  1
  O  O211  1  0.49274202  0.12557176  0.24053815  1
  O  O212  1  0.49017519  0.12187101  0.73758784  1
  O  O213  1  0.49383719  0.62532732  0.24492148  1
  O  O214  1  0.50076286  0.61758720  0.74382257  1
  O  O215  1  0.99513169  0.12926237  0.23585106  1
  O  O216  1  0.99591124  0.13835250  0.74159477  1
  O  O217  1  0.98472689  0.62033619  0.23909764  1
  O  O218  1  0.98838400  0.62494683  0.74366398  1
  O  O219  1  0.36610671  0.25397299  0.00440369  1
  O  O220  1  0.36972800  0.25639698  0.50675405  1
  O  O221  1  0.36126493  0.75889572  -0.00582023  1
  O  O222  1  0.36448427  0.75741582  0.50484025  1
  O  O223  1  0.86943952  0.25742326  0.00267518  1
  O  O224  1  0.86659273  0.25194659  0.50634918  1
  O  O225  1  0.87362411  0.75702663  0.01528791  1
  O  O226  1  0.87841624  0.75097388  0.51742037  1
  O  O227  1  0.13635926  0.24934047  0.49239760  1
  O  O228  1  0.13842111  0.25321135  0.99033985  1
  O  O229  1  0.13074837  0.75575508  0.49468086  1
  O  O230  1  0.14171880  0.74793088  0.98539421  1
  O  O231  1  0.63762638  0.24484601  0.50335758  1
  O  O232  1  0.63166591  0.24623636  0.98904767  1
  O  O233  1  0.61038994  0.76660120  0.49382529  1
  O  O234  1  0.62877432  0.74232613  0.99626288  1
  O  O235  1  0.49279297  0.24145460  0.12673841  1
  O  O236  1  0.48851920  0.23869557  0.61800811  1
  O  O237  1  0.49918655  0.73971392  0.13618889  1
  O  O238  1  0.49589883  0.73487421  0.63481055  1
  O  O239  1  0.99455590  0.24576416  0.11981350  1
  O  O240  1  0.99730536  0.25029068  0.62801443  1
  O  O241  1  0.99498735  0.75502067  0.13204543  1
  O  O242  1  0.99430377  0.74336124  0.62828593  1
  O  O243  1  0.01165597  0.25995313  0.37186801  1
  O  O244  1  0.00749431  0.25851597  0.86740383  1
  O  O245  1  0.00359952  0.76113574  0.38327776  1
  O  O246  1  0.01083622  0.75784099  0.87745223  1
  O  O247  1  0.49698571  0.26426093  0.37532702  1
  O  O248  1  0.50799183  0.25910248  0.87828227  1
  O  O249  1  0.49932760  0.75138095  0.37386415  1
  O  O250  1  0.50975447  0.74663189  0.87349291  1
  O  O251  1  0.25337130  0.13753404  0.50308266  1
  O  O252  1  0.25641120  0.13275599  0.99160992  1
  O  O253  1  0.25394463  0.63593269  0.49557737  1
  O  O254  1  0.25576898  0.63467160  0.99324887  1
  O  O255  1  0.74368525  0.13700907  0.49118517  1
  O  O256  1  0.74115032  0.14884884  1.01915796  1
  O  O257  1  0.74880566  0.63839803  0.49759781  1
  O  O258  1  0.74118625  0.62920756  1.00410472  1
  O  O259  1  0.25677674  0.36577259  0.00642442  1
  O  O260  1  0.26124252  0.36626682  0.50425475  1
  O  O261  1  0.25512930  0.86233490  0.00719531  1
  O  O262  1  0.25424767  0.86493551  0.50412541  1
  O  O263  1  0.75433911  0.36986653  0.00647078  1
  O  O264  1  0.75074942  0.37223458  0.50447098  1
  O  O265  1  0.76040476  0.86711535  0.00794716  1
  O  O266  1  0.75777642  0.86831707  0.47568700  1
  O  O267  1  0.14316778  0.53820871  0.23578272  1
  O  O268  1  0.13103713  0.49952076  0.74183333  1
  O  O269  1  0.14166442  1.00315802  0.26039135  1
  O  O270  1  0.13130059  1.01012135  0.73875523  1
  O  O271  1  0.62611787  0.48308072  0.23325715  1
  O  O272  1  0.64162778  0.49028626  0.75552683  1
  O  O273  1  0.62765026  1.00147744  0.24006446  1
  O  O274  1  0.63473144  1.01131676  0.75013940  1
  O  O275  1  0.37136690  0.00417527  0.26029505  1
  O  O276  1  0.36719882  0.00981685  0.75740045  1
  O  O277  1  0.36540260  0.51331144  0.24846148  1
  O  O278  1  0.37001149  0.49293222  0.76148679  1
  O  O279  1  0.86953548  0.01170398  0.25064047  1
  O  O280  1  0.89098413  0.02399333  0.75285684  1
  O  O281  1  0.86752897  0.50814884  0.25475754  1
  O  O282  1  0.86795413  0.50579262  0.75515814  1
  O  O283  1  0.12061969  0.36326188  0.37905825  1
  O  O284  1  0.11450377  0.37050854  0.87672914  1
  O  O285  1  0.11220988  0.86628875  0.37436081  1
  O  O286  1  0.11658931  0.86516971  0.88006523  1
  O  O287  1  0.61620633  0.37787091  0.36276370  1
  O  O288  1  0.61943171  0.36751381  0.86688518  1
  O  O289  1  0.61008797  0.88343620  0.37286153  1
  O  O290  1  0.62033412  0.86298141  0.87656368  1
  O  O291  1  0.38096648  0.12858591  0.13151384  1
  O  O292  1  0.38155461  0.12985351  0.63224859  1
  O  O293  1  0.38377374  0.62210523  0.13176205  1
  O  O294  1  0.39695502  0.62424899  0.61299029  1
  O  O295  1  0.87951260  0.14009525  0.12286641  1
  O  O296  1  0.88883219  0.14113074  0.62999966  1
  O  O297  1  0.88167338  0.63589253  0.12961963  1
  O  O298  1  0.88457996  0.63356551  0.63208811  1
  O  O299  1  0.25617085  0.25550893  0.11826312  1
  O  O300  1  0.26087883  0.25024441  0.61896237  1
  O  O301  1  0.24331575  0.74290753  0.11175205  1
  O  O302  1  0.24589676  0.74899465  0.61866129  1
  O  O303  1  0.75866471  0.26364146  0.11994268  1
  O  O304  1  0.75906352  0.25843193  0.61713083  1
  O  O305  1  0.75498382  0.75494461  0.12344451  1
  O  O306  1  0.76422282  0.74876779  0.62504460  1
  O  O307  1  0.24049148  0.25509009  0.38181737  1
  O  O308  1  0.24755224  0.24332713  0.88084336  1
  O  O309  1  0.23939660  0.74605351  0.38622483  1
  O  O310  1  0.24492402  0.74131602  0.87872991  1
  O  O311  1  0.75877449  0.24760533  0.38238881  1
  O  O312  1  0.74131514  0.25820268  0.88397765  1
  O  O313  1  0.73978733  0.74776359  0.36913831  1
  O  O314  1  0.74393980  0.74479749  0.88657946  1
  O  O315  1  0.00036719  0.11230320  0.00387418  1
  O  O316  1  0.00117924  0.11922497  0.50548406  1
  O  O317  1  -0.01137927  0.61377870  0.00726936  1
  O  O318  1  -0.00482291  0.61613861  0.50918144  1
  O  O319  1  0.50448115  0.12294662  0.01220568  1
  O  O320  1  0.50765241  0.12101820  0.50532104  1
  O  O321  1  0.50314215  0.62101294  0.00727555  1
  O  O322  1  0.50538394  0.60842350  0.49243523  1
  O  O323  1  0.48977234  0.37802821  0.49733829  1
  O  O324  1  0.49522607  0.37891896  0.99334823  1
  O  O325  1  0.49510163  0.87906351  0.49722420  1
  O  O326  1  0.48359422  0.87184855  0.99792983  1
  O  O327  1  0.99866071  0.38495287  0.48726402  1
  O  O328  1  0.99563396  0.38305403  0.99129148  1
  O  O329  1  0.99945834  0.89177877  0.49124969  1
  O  O330  1  0.99708908  0.88715319  0.99743595  1
  O  O331  1  0.49934598  0.48517126  0.39052175  1
  O  O332  1  0.49336686  0.49265776  0.87875283  1
  O  O333  1  0.48833274  1.00631491  0.39006090  1
  O  O334  1  0.48229114  1.00137503  0.88066406  1
  O  O335  1  0.99892311  0.49686703  0.37794208  1
  O  O336  1  0.99701005  0.49536457  0.87816222  1
  O  O337  1  0.99679906  0.99942089  0.37861946  1
  O  O338  1  1.00670907  0.99417366  0.88929418  1
  O  O339  1  0.00344375  0.01170518  0.11251465  1
  O  O340  1  0.00710896  0.01280217  0.61370535  1
  O  O341  1  -0.00493235  0.50860627  0.11311856  1
  O  O342  1  0.00336152  0.50447068  0.61731475  1
  O  O343  1  0.50229827  0.00685253  0.12847388  1
  O  O344  1  0.49311875  0.01100043  0.61111316  1
  O  O345  1  0.49764096  0.50575587  0.11607946  1
  O  O346  1  0.49641703  0.50881338  0.61296907  1
  O  O347  1  0.25632389  0.37563369  0.23437258  1
  O  O348  1  0.25348485  0.38779697  0.74855777  1
  O  O349  1  0.25658784  0.88616537  0.25113707  1
  O  O350  1  0.25043198  0.89208887  0.75138631  1
  O  O351  1  0.74183207  0.38191874  0.24414861  1
  O  O352  1  0.74570095  0.38008554  0.74132724  1
  O  O353  1  0.74611486  0.88664626  0.24391844  1
  O  O354  1  0.75693893  0.90591946  0.78189434  1
  O  O355  1  0.26226082  0.11014258  0.24622157  1
  O  O356  1  0.25667558  0.11757890  0.75763886  1
  O  O357  1  0.26399638  0.64095483  0.26816752  1
  O  O358  1  0.24973792  0.60863326  0.75866259  1
  O  O359  1  0.75542695  0.12474410  0.25040166  1
  O  O360  1  0.76827792  0.12584775  0.74788424  1
  O  O361  1  0.75840820  0.61327439  0.24043677  1
  O  O362  1  0.76051046  0.61514563  0.74786423  1
  O  O363  1  0.37983442  0.11808357  0.36462580  1
  O  O364  1  0.36694796  0.12046548  0.86882053  1
  O  O365  1  0.36364077  0.62289369  0.37282759  1
  O  O366  1  0.36346335  0.61292305  0.88025841  1
  O  O367  1  0.87395250  0.11951007  0.36556407  1
  O  O368  1  0.87938009  0.13732507  0.86134661  1
  O  O369  1  0.87578143  0.61610939  0.36483119  1
  O  O370  1  0.87424003  0.62128965  0.86665966  1
  O  O371  1  0.13993958  0.36992722  0.12234707  1
  O  O372  1  0.12582311  0.38798128  0.62070282  1
  O  O373  1  0.11852411  0.85664935  0.13632978  1
  O  O374  1  0.12287700  0.88799485  0.62367237  1
  O  O375  1  0.63559893  0.37193863  0.12606023  1
  O  O376  1  0.63535173  0.36613961  0.63389385  1
  O  O377  1  0.62815908  0.88037128  0.12848503  1
  O  O378  1  0.63460392  0.88544131  0.64002556  1
  O  O379  1  0.12842677  0.24952140  0.26279927  1
  O  O380  1  0.11617590  0.24850593  0.75256290  1
  O  O381  1  0.11808583  0.74477674  0.25802740  1
  O  O382  1  0.12250303  0.74636758  0.76129256  1
  O  O383  1  0.62262069  0.26058778  0.24227963  1
  O  O384  1  0.63304724  0.25779779  0.75927140  1
  O  O385  1  0.60491253  0.74530965  0.25292759  1
  O  O386  1  0.63323826  0.74381265  0.76445396  1
  O  O387  1  0.37510953  0.23937390  0.24519844  1
  O  O388  1  0.36949000  0.23719420  0.74220600  1
  O  O389  1  0.39147916  0.73817966  0.25973616  1
  O  O390  1  0.37023788  0.75076200  0.74577509  1
  O  O391  1  0.88056906  0.24896568  0.23876319  1
  O  O392  1  0.88502823  0.24757404  0.74070880  1
  O  O393  1  0.86975845  0.74404944  0.24034680  1
  O  O394  1  0.87547943  0.74254852  0.74469726  1
  O  O395  1  0.37852015  0.48438667  0.50604471  1
  O  O396  1  0.37949367  0.49155264  0.98850676  1
  O  O397  1  0.37877955  0.99466658  0.49460812  1
  O  O398  1  0.36897304  0.98908229  0.99517320  1
  O  O399  1  0.88679826  0.49998980  0.48993297  1
  O  O400  1  0.87755177  0.49354020  0.99168897  1
  O  O401  1  0.88470937  1.00743863  0.48695783  1
  O  O402  1  0.88750159  0.98535462  1.00807414  1
  O  O403  1  0.11783084  -0.00394879  0.00224435  1
  O  O404  1  0.12019585  0.00412692  0.50447779  1
  O  O405  1  0.11402579  0.49921110  -0.00461770  1
  O  O406  1  0.11339655  0.49919113  0.50782720  1
  O  O407  1  0.61105267  -0.00153813  0.01653546  1
  O  O408  1  0.61787301  0.01027085  0.50303122  1
  O  O409  1  0.61845488  0.50728121  -0.00164606  1
  O  O410  1  0.61077727  0.48866054  0.50943174  1
  O  O411  1  0.37260683  0.36621420  0.11764804  1
  O  O412  1  0.37572389  0.36529461  0.61666796  1
  O  O413  1  0.37006272  0.87525853  0.11118476  1
  O  O414  1  0.37046057  0.87907786  0.61240925  1
  O  O415  1  0.87071619  0.36740449  0.11973637  1
  O  O416  1  0.87001792  0.36638485  0.62151713  1
  O  O417  1  0.87006528  0.86929419  0.12241354  1
  O  O418  1  0.88127018  0.86054332  0.63218548  1
  O  O419  1  0.12000663  0.14434524  0.37827193  1
  O  O420  1  0.13661111  0.13050586  0.86914047  1
  O  O421  1  0.12870701  0.63946718  0.37767018  1
  O  O422  1  0.13864132  0.63094568  0.87336317  1
  O  O423  1  0.62990226  0.12250841  0.38586265  1
  O  O424  1  0.61246047  0.13769938  0.87980033  1
  O  O425  1  0.66115721  0.55720077  0.35015425  1
  O  O426  1  0.62746824  0.62908925  0.88843028  1
