# generated using pymatgen
data_V85Zn86O256
_symmetry_space_group_name_H-M   'P 1'
_cell_length_a   16.91831118
_cell_length_b   16.91608658
_cell_length_c   16.92139794
_cell_angle_alpha   90.12618011
_cell_angle_beta   89.94538660
_cell_angle_gamma   90.00430731
_symmetry_Int_Tables_number   1
_chemical_formula_structural   V85Zn86O256
_chemical_formula_sum   'V85 Zn86 O256'
_cell_volume   4842.74827636
_cell_formula_units_Z   1
loop_
 _symmetry_equiv_pos_site_id
 _symmetry_equiv_pos_as_xyz
  1  'x, y, z'
loop_
 _atom_site_type_symbol
 _atom_site_label
 _atom_site_symmetry_multiplicity
 _atom_site_fract_x
 _atom_site_fract_y
 _atom_site_fract_z
 _atom_site_occupancy
  V  V0  1  0.37105624  0.11979952  0.74895126  1
  V  V1  1  0.12264515  0.12431750  0.50382721  1
  V  V2  1  0.37763000  0.37450609  0.00096013  1
  V  V3  1  0.62723091  0.50473803  0.62937382  1
  V  V4  1  -0.00533777  0.37329237  0.38006632  1
  V  V5  1  0.12629427  0.25284487  0.86934898  1
  V  V6  1  0.12233250  0.50125645  0.12633729  1
  V  V7  1  0.25479226  0.12274249  0.36549289  1
  V  V8  1  0.63202932  0.75118993  0.88283027  1
  V  V9  1  0.25071977  0.37462089  0.12783634  1
  V  V10  1  0.25177090  0.87724149  0.63048992  1
  V  V11  1  0.24752720  0.62224520  0.37711895  1
  V  V12  1  0.24881182  0.11966558  0.87278963  1
  V  V13  1  0.12474850  0.87382758  0.75474793  1
  V  V14  1  0.38008650  0.49605219  0.37497071  1
  V  V15  1  0.88147961  0.01585350  0.87225820  1
  V  V16  1  0.36495205  0.87910718  0.00828310  1
  V  V17  1  0.12491783  0.49206106  0.62737448  1
  V  V18  1  0.87011769  0.62351882  0.73561168  1
  V  V19  1  -0.00223234  0.50018742  -0.00204528  1
  V  V20  1  0.87869232  0.23430205  0.62638545  1
  V  V21  1  0.00092103  0.00012009  0.50589149  1
  V  V22  1  0.00027433  0.24757495  0.24432942  1
  V  V23  1  0.86527111  0.50226522  0.87047310  1
  V  V24  1  0.85365648  0.75289905  0.11554735  1
  V  V25  1  0.50420878  0.50346818  0.00154287  1
  V  V26  1  0.50103949  0.25659651  0.25434044  1
  V  V27  1  0.49755221  0.62907375  0.12640675  1
  V  V28  1  0.87990672  0.12108368  0.24657767  1
  V  V29  1  0.61864466  0.62838762  0.50476019  1
  V  V30  1  0.11900651  0.12583933  0.01106234  1
  V  V31  1  0.62327135  0.25756652  0.37628514  1
  V  V32  1  0.25158122  0.24767440  0.00126745  1
  V  V33  1  0.61936545  0.12022369  -0.00172687  1
  V  V34  1  0.11800305  0.62464977  0.50708520  1
  V  V35  1  0.00034187  0.37474603  0.86297053  1
  V  V36  1  0.12039511  -0.01447246  0.13098676  1
  V  V37  1  0.75734768  0.01512386  0.75393583  1
  V  V38  1  -0.00105651  0.74742185  0.24158146  1
  V  V39  1  0.49978450  0.12227872  0.62538472  1
  V  V40  1  0.75736980  0.25429116  0.50056703  1
  V  V41  1  0.37690847  0.74435604  0.62436588  1
  V  V42  1  0.25197074  -0.01595961  0.24470838  1
  V  V43  1  0.37631613  0.24516271  0.13240650  1
  V  V44  1  0.50210845  0.37668655  0.87599665  1
  V  V45  1  -0.00728435  0.74690938  0.73747170  1
  V  V46  1  0.87712322  0.86984137  0.49987399  1
  V  V47  1  0.12367745  0.24950134  0.37558382  1
  V  V48  1  0.50108092  0.50095207  0.50200462  1
  V  V49  1  0.62011152  0.75597495  0.37830175  1
  V  V50  1  0.62170350  -0.00629839  0.12012650  1
  V  V51  1  0.63182522  0.24613517  0.87512652  1
  V  V52  1  0.62633867  0.00047569  0.62545044  1
  V  V53  1  0.86733692  0.49705635  0.36495832  1
  V  V54  1  0.76074257  0.37791811  0.62746594  1
  V  V55  1  0.38012950  0.87847205  0.49526134  1
  V  V56  1  0.12447871  0.75036196  0.36922234  1
  V  V57  1  0.62536350  0.12637808  0.49836041  1
  V  V58  1  0.75022642  0.24047882  0.00038930  1
  V  V59  1  0.24523411  0.73998023  -0.00092245  1
  V  V60  1  0.50080931  0.24992826  0.75203339  1
  V  V61  1  0.24970965  0.49950470  0.25181042  1
  V  V62  1  0.38080948  0.37377962  0.50037788  1
  V  V63  1  0.00511804  0.87437493  0.36800006  1
  V  V64  1  0.75458396  0.74860757  0.50149618  1
  V  V65  1  0.87427475  0.37090362  -0.00092718  1
  V  V66  1  -0.00077312  0.23532165  0.74448649  1
  V  V67  1  0.63338898  0.50019456  0.13469738  1
  V  V68  1  0.37537321  0.25086744  0.62686557  1
  V  V69  1  0.87657906  0.23805286  0.12234364  1
  V  V70  1  0.62653655  0.87641112  0.25264131  1
  V  V71  1  0.49625547  0.75670360  0.25479639  1
  V  V72  1  0.87680439  -0.00221875  0.37360666  1
  V  V73  1  0.63203387  0.38044399  0.75149191  1
  V  V74  1  0.50157952  0.74185523  0.74877746  1
  V  V75  1  0.12893216  0.00314260  0.63137505  1
  V  V76  1  -0.00979869  0.50035520  0.50212395  1
  V  V77  1  0.75740847  0.87336966  0.62652200  1
  V  V78  1  0.75002586  -0.00273629  0.24752116  1
  V  V79  1  0.37798710  0.00069777  0.87644156  1
  V  V80  1  0.62503534  0.87622926  0.74987002  1
  V  V81  1  0.25104186  0.24994139  0.50035931  1
  V  V82  1  0.49792041  0.87769983  0.88088195  1
  V  V83  1  0.36536655  0.62190677  0.75597301  1
  V  V84  1  0.49849167  0.12200421  0.12936395  1
  Zn  Zn85  1  0.12382744  0.37549755  0.25296571  1
  Zn  Zn86  1  0.74586094  0.62067910  0.37086367  1
  Zn  Zn87  1  0.36729897  0.75505436  0.12892068  1
  Zn  Zn88  1  0.75394999  0.37551546  0.13231170  1
  Zn  Zn89  1  0.22749515  0.49634088  0.77374404  1
  Zn  Zn90  1  -0.00198454  0.62595285  0.12255395  1
  Zn  Zn91  1  0.25048375  0.37672160  0.63424202  1
  Zn  Zn92  1  0.12616701  0.73547212  0.86876464  1
  Zn  Zn93  1  0.13264046  0.61278043  -0.01389142  1
  Zn  Zn94  1  0.24810673  0.75141719  0.50051828  1
  Zn  Zn95  1  0.50690279  -0.00579821  0.48865764  1
  Zn  Zn96  1  0.38346717  0.00019131  0.36555569  1
  Zn  Zn97  1  0.86668014  0.62275880  0.24361950  1
  Zn  Zn98  1  0.86678206  0.86852334  -0.00574183  1
  Zn  Zn99  1  0.75604199  0.63338291  0.87592689  1
  Zn  Zn100  1  0.62984456  0.38178524  0.25917491  1
  Zn  Zn101  1  0.37221348  0.50673814  0.87913836  1
  Zn  Zn102  1  -0.00242752  -0.00148617  0.00676498  1
  Zn  Zn103  1  0.37441844  0.62764265  0.25204346  1
  Zn  Zn104  1  0.75189749  0.12683540  0.37452537  1
  Zn  Zn105  1  -0.00597868  0.87206757  0.87570052  1
  Zn  Zn106  1  0.63224196  0.63322553  0.00584171  1
  Zn  Zn107  1  0.18778087  0.18672072  0.18951512  1
  Zn  Zn108  1  0.18730318  0.19017227  0.68797633  1
  Zn  Zn109  1  0.18736539  0.68882689  0.18307623  1
  Zn  Zn110  1  0.18768164  0.68793000  0.68717356  1
  Zn  Zn111  1  0.68928176  0.18553152  0.18826432  1
  Zn  Zn112  1  0.68716438  0.19206815  0.68436786  1
  Zn  Zn113  1  0.68647370  0.68471822  0.19174411  1
  Zn  Zn114  1  0.69131996  0.68886255  0.68899518  1
  Zn  Zn115  1  0.31419215  0.31329882  0.31388554  1
  Zn  Zn116  1  0.31102280  0.31813356  0.81214069  1
  Zn  Zn117  1  0.30969828  0.81124785  0.31477796  1
  Zn  Zn118  1  0.30992448  0.81007240  0.81434068  1
  Zn  Zn119  1  0.81068085  0.31484305  0.31117602  1
  Zn  Zn120  1  0.81489774  0.30801783  0.81091631  1
  Zn  Zn121  1  0.81180794  0.80771525  0.30983073  1
  Zn  Zn122  1  0.81763147  0.81885374  0.81023112  1
  Zn  Zn123  1  0.18667801  0.43578605  0.44237204  1
  Zn  Zn124  1  0.18818663  0.43446804  0.93871934  1
  Zn  Zn125  1  0.19098537  0.93619477  0.43844557  1
  Zn  Zn126  1  0.18915128  0.93981308  0.93961457  1
  Zn  Zn127  1  0.68857750  0.43476857  0.44295003  1
  Zn  Zn128  1  0.68968165  0.43682333  0.94504456  1
  Zn  Zn129  1  0.68867273  0.93702787  0.43533601  1
  Zn  Zn130  1  0.69129380  0.93568500  0.93397252  1
  Zn  Zn131  1  0.31044146  0.06083786  0.06493787  1
  Zn  Zn132  1  0.30884101  0.06126816  0.56075704  1
  Zn  Zn133  1  0.31511840  0.56208503  0.06344871  1
  Zn  Zn134  1  0.30999337  0.56483512  0.56455578  1
  Zn  Zn135  1  0.79010874  0.03017748  0.04270884  1
  Zn  Zn136  1  0.81134881  0.06063935  0.56173600  1
  Zn  Zn137  1  0.81249724  0.57101085  0.05673411  1
  Zn  Zn138  1  0.80766741  0.56038101  0.55626303  1
  Zn  Zn139  1  0.44140079  0.43681090  0.18865950  1
  Zn  Zn140  1  0.44105821  0.43935170  0.68613684  1
  Zn  Zn141  1  0.43982355  0.93935738  0.19127780  1
  Zn  Zn142  1  0.43845445  0.93578062  0.68801274  1
  Zn  Zn143  1  0.93710396  0.43010666  0.18683091  1
  Zn  Zn144  1  0.93995022  0.44059824  0.68693295  1
  Zn  Zn145  1  0.93928606  0.93088608  0.18276514  1
  Zn  Zn146  1  0.93911414  0.93783467  0.68887414  1
  Zn  Zn147  1  0.06484818  0.06134434  0.31155657  1
  Zn  Zn148  1  0.06544710  0.06321534  0.81281923  1
  Zn  Zn149  1  0.05819800  0.56399334  0.31244642  1
  Zn  Zn150  1  0.05148000  0.56815885  0.81036390  1
  Zn  Zn151  1  0.56087046  0.06844402  0.31191896  1
  Zn  Zn152  1  0.56272597  0.06155092  0.81271650  1
  Zn  Zn153  1  0.56111470  0.56926976  0.31507257  1
  Zn  Zn154  1  0.56104551  0.56553148  0.81293812  1
  Zn  Zn155  1  0.43955828  0.18343363  0.43599792  1
  Zn  Zn156  1  0.44058684  0.18819743  0.94019610  1
  Zn  Zn157  1  0.43736035  0.68675112  0.43900397  1
  Zn  Zn158  1  0.43789496  0.69326564  0.93859617  1
  Zn  Zn159  1  0.93678112  0.18533592  0.43748185  1
  Zn  Zn160  1  0.93716098  0.18107241  0.93159883  1
  Zn  Zn161  1  0.93671999  0.68396539  0.43427879  1
  Zn  Zn162  1  0.94183913  0.68864963  0.93320969  1
  Zn  Zn163  1  0.06208879  0.31527705  0.06094708  1
  Zn  Zn164  1  0.05889528  0.31389858  0.56182801  1
  Zn  Zn165  1  0.06007260  0.81529636  0.05335152  1
  Zn  Zn166  1  0.06479157  0.81386610  0.56120002  1
  Zn  Zn167  1  0.56429426  0.31385497  0.06525226  1
  Zn  Zn168  1  0.56319716  0.31508302  0.56413528  1
  Zn  Zn169  1  0.55696019  0.81685951  0.06364910  1
  Zn  Zn170  1  0.56164027  0.81345069  0.56631240  1
  O  O171  1  0.12859041  0.12426239  0.11304720  1
  O  O172  1  0.13190775  0.11662730  0.61567717  1
  O  O173  1  0.12393618  0.60951732  0.12019597  1
  O  O174  1  0.12913204  0.61882857  0.61072890  1
  O  O175  1  0.61784363  0.11808299  0.11931762  1
  O  O176  1  0.62121009  0.12127583  0.61807270  1
  O  O177  1  0.61407405  0.61721943  0.12522274  1
  O  O178  1  0.63170474  0.61641232  0.61929222  1
  O  O179  1  0.37228495  0.38808368  0.38331398  1
  O  O180  1  0.38779167  0.37027876  0.88530462  1
  O  O181  1  0.36627107  0.87670036  0.39279253  1
  O  O182  1  0.37840228  0.88355148  0.87871982  1
  O  O183  1  0.88249603  0.38428071  0.37384145  1
  O  O184  1  0.88259564  0.37730940  0.87875061  1
  O  O185  1  0.88270054  0.87929793  0.37920558  1
  O  O186  1  0.87414749  0.89300383  0.87461283  1
  O  O187  1  0.24692648  0.00790654  0.36258856  1
  O  O188  1  0.25953711  0.01252330  0.87745025  1
  O  O189  1  0.25516556  0.50464850  0.37255612  1
  O  O190  1  0.26005905  0.49520877  0.88196882  1
  O  O191  1  0.75638206  0.00144728  0.36436945  1
  O  O192  1  0.75819557  0.00350888  0.85893044  1
  O  O193  1  0.76485560  0.49633487  0.38394291  1
  O  O194  1  0.76383273  0.49187092  0.87495671  1
  O  O195  1  0.24426505  0.49517645  0.13077611  1
  O  O196  1  0.23214381  0.49908501  0.61756808  1
  O  O197  1  0.24058713  1.00478171  0.13877293  1
  O  O198  1  0.24024546  0.99182043  0.62301702  1
  O  O199  1  0.73504760  0.50188655  0.11952553  1
  O  O200  1  0.73770181  0.48964943  0.61691129  1
  O  O201  1  0.73570786  1.01109825  0.14283733  1
  O  O202  1  0.74539164  0.99400996  0.63230445  1
  O  O203  1  0.00143563  0.36436920  0.26067673  1
  O  O204  1  -0.00077766  0.36927418  0.76061565  1
  O  O205  1  -0.00152449  0.86812516  0.26263482  1
  O  O206  1  0.00667192  0.86573544  0.74945465  1
  O  O207  1  0.50734148  0.36133738  0.24680829  1
  O  O208  1  0.50992317  0.37005706  0.75542297  1
  O  O209  1  0.50933191  0.86492667  0.24793203  1
  O  O210  1  0.50396981  0.86952785  0.76095988  1
  O  O211  1  0.50427424  0.13851706  0.23611933  1
  O  O212  1  0.49411305  0.13049357  0.74495441  1
  O  O213  1  0.49835242  0.63838393  0.24457865  1
  O  O214  1  0.49402477  0.63863931  0.75019014  1
  O  O215  1  0.98840895  0.13127164  0.25648809  1
  O  O216  1  1.00490676  0.13685938  0.74615822  1
  O  O217  1  0.99298509  0.63349138  0.24716549  1
  O  O218  1  0.98637374  0.63799761  0.74471171  1
  O  O219  1  0.37173078  0.25476588  0.00986584  1
  O  O220  1  0.37406194  0.25636552  0.50400931  1
  O  O221  1  0.36578303  0.76194252  0.00030373  1
  O  O222  1  0.37477666  0.75867298  0.50781085  1
  O  O223  1  0.86995553  0.24606517  0.00367539  1
  O  O224  1  0.86790868  0.24604262  0.50862806  1
  O  O225  1  0.87666890  0.74892634  0.01115252  1
  O  O226  1  0.86608566  0.75493382  0.49393870  1
  O  O227  1  0.12814919  0.24221545  0.49649117  1
  O  O228  1  0.12969612  0.24081838  0.99527234  1
  O  O229  1  0.12278537  0.74077996  0.49004420  1
  O  O230  1  0.13615050  0.74640548  0.99863704  1
  O  O231  1  0.63068226  0.24407448  0.49724730  1
  O  O232  1  0.63183346  0.24514103  0.99479599  1
  O  O233  1  0.62675173  0.74614980  0.49627320  1
  O  O234  1  0.61827124  0.75447924  0.98597024  1
  O  O235  1  0.49412261  0.24564961  0.13084790  1
  O  O236  1  0.49536038  0.24369637  0.63133924  1
  O  O237  1  0.49764444  0.74397133  0.13293381  1
  O  O238  1  0.49011179  0.75871548  0.63773981  1
  O  O239  1  0.99558154  0.25366218  0.13692364  1
  O  O240  1  0.99424241  0.25575571  0.63666996  1
  O  O241  1  1.01137670  0.74963674  0.13699833  1
  O  O242  1  1.00164242  0.75563340  0.63804920  1
  O  O243  1  0.00206853  0.25502708  0.36815485  1
  O  O244  1  0.00545535  0.25248889  0.86383730  1
  O  O245  1  0.00457118  0.75482521  0.36565918  1
  O  O246  1  0.00536609  0.75360629  0.86111321  1
  O  O247  1  0.50837064  0.24274954  0.36620064  1
  O  O248  1  0.51175272  0.25628326  0.87273425  1
  O  O249  1  0.50669618  0.74659473  0.36788520  1
  O  O250  1  0.50708067  0.75926087  0.86732556  1
  O  O251  1  0.23979386  0.12832530  0.49131839  1
  O  O252  1  0.24288851  0.13001730  0.99313913  1
  O  O253  1  0.24221191  0.62545850  0.48903745  1
  O  O254  1  0.25319264  0.63590029  1.00082863  1
  O  O255  1  0.74040433  0.13439747  0.50203771  1
  O  O256  1  0.73636861  0.13292302  1.00357762  1
  O  O257  1  0.73874852  0.63319492  0.49590925  1
  O  O258  1  0.74181084  0.61922192  0.98640795  1
  O  O259  1  0.25667626  0.36557419  0.00920918  1
  O  O260  1  0.26314754  0.36731101  0.50121475  1
  O  O261  1  0.26132134  0.87059650  -0.00064411  1
  O  O262  1  0.25861476  0.87327640  0.51200499  1
  O  O263  1  0.75630215  0.35927563  0.00442373  1
  O  O264  1  0.74504641  0.36145485  0.51277510  1
  O  O265  1  0.76514835  0.91894817  0.01326002  1
  O  O266  1  0.75595673  0.87010569  0.50605335  1
  O  O267  1  0.12925876  0.49812388  0.24406036  1
  O  O268  1  0.11694047  0.50781548  0.73015340  1
  O  O269  1  0.13384589  1.00512344  0.23791058  1
  O  O270  1  0.11875608  0.99356844  0.73723146  1
  O  O271  1  0.61676643  0.50146147  0.23831339  1
  O  O272  1  0.61957713  0.49293132  0.74234456  1
  O  O273  1  0.63055065  0.99423099  0.24760993  1
  O  O274  1  0.63480586  0.99518601  0.74698426  1
  O  O275  1  0.35799524  -0.00426315  0.24930194  1
  O  O276  1  0.37829497  0.01298138  0.75619309  1
  O  O277  1  0.37200270  0.50067871  0.25988908  1
  O  O278  1  0.38646115  0.51890147  0.74836341  1
  O  O279  1  0.86996330  0.00280914  0.25017791  1
  O  O280  1  0.86370714  -0.00021048  0.75156238  1
  O  O281  1  0.87908274  0.49780459  0.26182440  1
  O  O282  1  0.88239487  0.51423760  0.75578825  1
  O  O283  1  0.11865622  0.36559769  0.37540220  1
  O  O284  1  0.11589812  0.35912531  0.88388062  1
  O  O285  1  0.11733840  0.86336710  0.38311097  1
  O  O286  1  0.12761353  0.88246407  0.85952388  1
  O  O287  1  0.62426395  0.36198781  0.38044837  1
  O  O288  1  0.62199869  0.37038774  0.86996180  1
  O  O289  1  0.62487347  0.86435816  0.37033261  1
  O  O290  1  0.61715827  0.87140029  0.87156007  1
  O  O291  1  0.38366487  0.13437636  0.11806728  1
  O  O292  1  0.37718838  0.12858964  0.63162295  1
  O  O293  1  0.38730583  0.62584553  0.12934731  1
  O  O294  1  0.37226531  0.63790951  0.63196071  1
  O  O295  1  0.87556926  0.13410776  0.13138738  1
  O  O296  1  0.87480875  0.13459199  0.62251565  1
  O  O297  1  0.87821912  0.63848501  0.12440028  1
  O  O298  1  0.86612579  0.61917337  0.63643571  1
  O  O299  1  0.25872190  0.25273045  0.12367714  1
  O  O300  1  0.25786343  0.25105473  0.61752133  1
  O  O301  1  0.25178622  0.74955688  0.11025770  1
  O  O302  1  0.25779871  0.75689237  0.62193351  1
  O  O303  1  0.75866747  0.24680107  0.11622050  1
  O  O304  1  0.75997265  0.25592318  0.62103398  1
  O  O305  1  0.75480404  0.74981691  0.12205973  1
  O  O306  1  0.74315050  0.76012811  0.61128629  1
  O  O307  1  0.24625833  0.23995012  0.37874663  1
  O  O308  1  0.24345071  0.24286831  0.88029916  1
  O  O309  1  0.24164821  0.74076521  0.37768161  1
  O  O310  1  0.24587063  0.75695250  0.89242581  1
  O  O311  1  0.74553677  0.24851331  0.38584510  1
  O  O312  1  0.73908822  0.25151662  0.88079861  1
  O  O313  1  0.74069371  0.75316682  0.38791498  1
  O  O314  1  0.73393543  0.76031265  0.87049208  1
  O  O315  1  0.01749164  0.12367070  -0.00652252  1
  O  O316  1  0.01356573  0.11518597  0.49245350  1
  O  O317  1  0.00055389  0.60849601  0.00017750  1
  O  O318  1  0.00756017  0.61447013  0.49345872  1
  O  O319  1  0.51151150  0.13310364  0.01300812  1
  O  O320  1  0.51214275  0.12509594  0.50763231  1
  O  O321  1  0.50297068  0.62059855  0.00729376  1
  O  O322  1  0.51084837  0.61965639  0.50199745  1
  O  O323  1  0.48918390  0.38190227  0.50209617  1
  O  O324  1  0.49824772  0.38218894  0.99623427  1
  O  O325  1  0.48448214  0.87643850  0.50706425  1
  O  O326  1  0.48614013  0.87042758  0.98636146  1
  O  O327  1  1.00258784  0.38196443  0.48719783  1
  O  O328  1  0.99341126  0.38025355  0.99073594  1
  O  O329  1  0.99593624  0.88026335  0.49137861  1
  O  O330  1  0.99190209  0.88237056  0.99369924  1
  O  O331  1  0.49266037  0.50621288  0.38824522  1
  O  O332  1  0.49848285  0.49603748  0.88446064  1
  O  O333  1  0.49551890  1.00696234  0.37624569  1
  O  O334  1  0.48701406  0.99451811  0.87183856  1
  O  O335  1  0.99213816  0.49108267  0.37944603  1
  O  O336  1  0.99251816  0.48999732  0.88003642  1
  O  O337  1  0.99932246  0.99157165  0.38207042  1
  O  O338  1  0.98868331  0.99916543  0.86751506  1
  O  O339  1  0.01499946  -0.00010953  0.12781852  1
  O  O340  1  0.00808443  -0.00653245  0.61145663  1
  O  O341  1  0.00566524  0.49587333  0.11734749  1
  O  O342  1  0.00979064  0.49332608  0.61232724  1
  O  O343  1  0.50844950  0.01045127  0.13168248  1
  O  O344  1  0.50974037  0.00537908  0.62499016  1
  O  O345  1  0.50661138  0.50800169  0.12029868  1
  O  O346  1  0.51357220  0.49509016  0.61224823  1
  O  O347  1  0.24822222  0.38076166  0.24535048  1
  O  O348  1  0.25473715  0.38626941  0.74702391  1
  O  O349  1  0.24516677  0.88550000  0.25385063  1
  O  O350  1  0.24309833  0.86897069  0.73846452  1
  O  O351  1  0.74208084  0.36964767  0.24472079  1
  O  O352  1  0.73855550  0.36840221  0.74428698  1
  O  O353  1  0.73629246  0.88153326  0.25410797  1
  O  O354  1  0.74476825  0.88139095  0.74048753  1
  O  O355  1  0.24797092  0.12138762  0.26301905  1
  O  O356  1  0.25918643  0.13211024  0.76045646  1
  O  O357  1  0.25087410  0.61917982  0.26144384  1
  O  O358  1  0.26266626  0.61834788  0.74557561  1
  O  O359  1  0.76343170  0.11961991  0.25348847  1
  O  O360  1  0.74526975  0.11279449  0.74310180  1
  O  O361  1  0.75339740  0.62840986  0.25876582  1
  O  O362  1  0.76560406  0.63363754  0.75711785  1
  O  O363  1  0.35733665  0.12028053  0.38496249  1
  O  O364  1  0.37124711  0.12033933  0.87116349  1
  O  O365  1  0.36613249  0.61363820  0.37815556  1
  O  O366  1  0.38002783  0.62874619  0.85939948  1
  O  O367  1  0.87431609  0.11462777  0.36799344  1
  O  O368  1  0.87626589  0.11567267  0.85900434  1
  O  O369  1  0.87401347  0.60733420  0.37355775  1
  O  O370  1  0.87693350  0.61564347  0.86662361  1
  O  O371  1  0.13144104  0.38337285  0.12770944  1
  O  O372  1  0.12822977  0.38835540  0.61687763  1
  O  O373  1  0.12582110  0.88773221  0.12177044  1
  O  O374  1  0.13267933  0.88169788  0.63112107  1
  O  O375  1  0.62478264  0.39174182  0.12536453  1
  O  O376  1  0.63279662  0.37983012  0.63443074  1
  O  O377  1  0.61819468  0.88683975  0.13308002  1
  O  O378  1  0.63425684  0.88239646  0.62852420  1
  O  O379  1  0.11590252  0.24879584  0.25629951  1
  O  O380  1  0.11415506  0.24812182  0.75758440  1
  O  O381  1  0.11828268  0.74095977  0.26275837  1
  O  O382  1  0.11684513  0.75687249  0.74783574  1
  O  O383  1  0.61940405  0.24717134  0.26089849  1
  O  O384  1  0.62100177  0.25608263  0.75751191  1
  O  O385  1  0.61900869  0.75842943  0.25813976  1
  O  O386  1  0.61798671  0.75794601  0.75505369  1
  O  O387  1  0.38235347  0.25385818  0.24044660  1
  O  O388  1  0.38192694  0.23984971  0.74856370  1
  O  O389  1  0.38131868  0.75075716  0.24942105  1
  O  O390  1  0.37909795  0.74139186  0.74526023  1
  O  O391  1  0.88135711  0.24117805  0.24395908  1
  O  O392  1  0.89005846  0.25067007  0.74349287  1
  O  O393  1  0.88224896  0.74948228  0.23822546  1
  O  O394  1  0.88420417  0.74235835  0.75006448  1
  O  O395  1  0.38196117  0.49476503  0.49884755  1
  O  O396  1  0.38920735  0.49333984  1.00394232  1
  O  O397  1  0.37581200  0.98624890  0.50353414  1
  O  O398  1  0.36941393  0.98911265  0.99214842  1
  O  O399  1  0.88579853  0.50239797  0.49173939  1
  O  O400  1  0.88117424  0.49218982  0.99371889  1
  O  O401  1  0.88329964  0.99468755  0.49458703  1
  O  O402  1  0.88488063  1.02291269  0.97969150  1
  O  O403  1  0.12786565  0.00950701  0.01309123  1
  O  O404  1  0.12052468  0.00499209  0.50685429  1
  O  O405  1  0.11535840  0.49379426  0.00885177  1
  O  O406  1  0.11473712  0.50618943  0.50356607  1
  O  O407  1  0.62353672  0.00833792  0.00790422  1
  O  O408  1  0.62813329  0.00870978  0.50557851  1
  O  O409  1  0.61410335  0.50033264  0.00902850  1
  O  O410  1  0.61893924  0.50783175  0.50387554  1
  O  O411  1  0.37216327  0.36739214  0.12033886  1
  O  O412  1  0.37672754  0.36845745  0.61830472  1
  O  O413  1  0.38265104  0.87694000  0.10987675  1
  O  O414  1  0.36850444  0.86780730  0.62168223  1
  O  O415  1  0.87553259  0.35981679  0.11684656  1
  O  O416  1  0.86327238  0.37085740  0.63331341  1
  O  O417  1  0.87765404  0.85544175  0.12381329  1
  O  O418  1  0.86389424  0.88041874  0.61821195  1
  O  O419  1  0.13442932  0.12943806  0.38131222  1
  O  O420  1  0.13347168  0.13127843  0.88156429  1
  O  O421  1  0.13043968  0.62790621  0.38276877  1
  O  O422  1  0.12558873  0.62057307  0.87317944  1
  O  O423  1  0.62983603  0.13521243  0.38454501  1
  O  O424  1  0.61677461  0.13426692  0.88443040  1
  O  O425  1  0.62494058  0.63737493  0.38527450  1
  O  O426  1  0.62352928  0.64459847  0.87145498  1
