# generated using pymatgen
data_V85Zn86O256
_symmetry_space_group_name_H-M   'P 1'
_cell_length_a   16.95981353
_cell_length_b   16.95573876
_cell_length_c   16.94733567
_cell_angle_alpha   89.94614082
_cell_angle_beta   90.01082331
_cell_angle_gamma   90.01842172
_symmetry_Int_Tables_number   1
_chemical_formula_structural   V85Zn86O256
_chemical_formula_sum   'V85 Zn86 O256'
_cell_volume   4873.47788038
_cell_formula_units_Z   1
loop_
 _symmetry_equiv_pos_site_id
 _symmetry_equiv_pos_as_xyz
  1  'x, y, z'
loop_
 _atom_site_type_symbol
 _atom_site_label
 _atom_site_symmetry_multiplicity
 _atom_site_fract_x
 _atom_site_fract_y
 _atom_site_fract_z
 _atom_site_occupancy
  V  V0  1  0.37764800  0.37881579  -0.00269900  1
  V  V1  1  0.87713011  0.61592760  0.24795135  1
  V  V2  1  0.50127806  0.87688943  0.38238874  1
  V  V3  1  0.75414949  0.62218056  0.37246379  1
  V  V4  1  0.13108408  0.62571875  -0.00689856  1
  V  V5  1  0.25338243  0.52075871  0.75169157  1
  V  V6  1  0.25166602  0.25217081  -0.00038913  1
  V  V7  1  0.12458339  0.50257250  0.61819266  1
  V  V8  1  0.49899007  0.12303346  0.62173856  1
  V  V9  1  0.62345823  0.12910228  0.49613683  1
  V  V10  1  0.74591425  0.87953070  0.12538747  1
  V  V11  1  -0.00708476  0.37276359  0.38111487  1
  V  V12  1  0.87509504  0.12558893  0.25520474  1
  V  V13  1  0.87398850  0.87814145  0.48536071  1
  V  V14  1  0.25496030  0.49487707  0.26798000  1
  V  V15  1  0.75375962  0.49839741  0.73936744  1
  V  V16  1  0.49779793  0.73784541  0.75108694  1
  V  V17  1  0.38004602  0.00227477  0.38266081  1
  V  V18  1  0.61586116  0.37189850  0.25033662  1
  V  V19  1  0.25733176  0.11539785  0.87103169  1
  V  V20  1  0.37253133  0.87875230  -0.00291809  1
  V  V21  1  0.62755413  0.74966784  0.37579663  1
  V  V22  1  0.87138733  0.12778750  0.74746313  1
  V  V23  1  0.88877566  0.76919641  0.14760055  1
  V  V24  1  0.87065766  0.26436268  0.62104696  1
  V  V25  1  0.37788781  0.37584979  0.48786122  1
  V  V26  1  0.24719676  0.24588922  0.50195197  1
  V  V27  1  0.37424478  0.74197910  0.62027730  1
  V  V28  1  -0.00007242  0.12454649  0.62220542  1
  V  V29  1  0.00324617  0.62385075  0.13018151  1
  V  V30  1  -0.00462062  0.00330737  0.00056815  1
  V  V31  1  0.00275823  0.49978101  -0.00220640  1
  V  V32  1  0.12847977  0.00392661  0.62823384  1
  V  V33  1  -0.00349269  -0.00056929  0.49508335  1
  V  V34  1  0.49778078  0.49848562  0.48011379  1
  V  V35  1  0.86872329  0.74585930  0.63192009  1
  V  V36  1  -0.01053938  0.49686685  0.50277306  1
  V  V37  1  0.25127562  -0.00760743  0.24996672  1
  V  V38  1  0.13047677  0.87881778  0.75210927  1
  V  V39  1  0.24092007  0.12196522  0.37838450  1
  V  V40  1  0.87276134  0.87760958  -0.00071935  1
  V  V41  1  0.12979269  0.37578971  0.75121105  1
  V  V42  1  0.62290657  -0.00089336  0.61653876  1
  V  V43  1  0.74736362  0.13078311  0.37645983  1
  V  V44  1  0.75394376  0.74713771  0.49558730  1
  V  V45  1  0.62387254  0.87681884  0.25205447  1
  V  V46  1  0.74673040  0.00122551  0.74884921  1
  V  V47  1  0.12997866  0.74654180  0.86986904  1
  V  V48  1  0.62196504  0.87057438  0.75157293  1
  V  V49  1  0.49787643  0.13049660  0.12468988  1
  V  V50  1  0.75068123  0.87339040  0.62387157  1
  V  V51  1  0.37091922  0.87383868  0.50290387  1
  V  V52  1  0.49902493  0.51813248  0.00406425  1
  V  V53  1  0.13261028  0.49722947  0.12551040  1
  V  V54  1  -0.00258478  0.25206552  0.74832390  1
  V  V55  1  0.74870194  0.74227766  0.00496427  1
  V  V56  1  0.74880125  0.26422440  0.50036955  1
  V  V57  1  -0.00491422  0.74739049  0.75413932  1
  V  V58  1  0.49955020  0.25239033  0.26556296  1
  V  V59  1  -0.00098126  0.24874636  0.25151700  1
  V  V60  1  0.25110467  0.37503259  0.62627183  1
  V  V61  1  -0.00263131  0.62752612  0.62324163  1
  V  V62  1  0.12428425  0.12759072  -0.00277877  1
  V  V63  1  0.74945872  0.00024188  0.25665010  1
  V  V64  1  0.12659812  -0.00246545  0.12690377  1
  V  V65  1  0.87472724  0.51551793  0.87076048  1
  V  V66  1  0.50878205  0.25700204  0.74851574  1
  V  V67  1  0.12083588  0.24402804  0.38095598  1
  V  V68  1  0.37532842  0.12532101  0.25117635  1
  V  V69  1  0.86590685  0.25644271  0.12419263  1
  V  V70  1  0.62148432  0.00420061  0.12532987  1
  V  V71  1  -0.00231607  0.12811830  0.12594201  1
  V  V72  1  0.49664196  0.74464347  0.24571348  1
  V  V73  1  0.62732094  0.50943157  0.11855015  1
  V  V74  1  0.37491834  0.25102769  0.62966381  1
  V  V75  1  -0.00102927  0.37712006  0.87407485  1
  V  V76  1  0.25110769  0.74715377  -0.00211457  1
  V  V77  1  0.86624322  0.37873458  -0.00012956  1
  V  V78  1  0.49581306  0.00187333  -0.01085072  1
  V  V79  1  0.62482509  0.13132410  -0.00455273  1
  V  V80  1  0.74808232  0.48833694  0.24471024  1
  V  V81  1  0.87123388  0.00356499  0.87413453  1
  V  V82  1  0.24612808  0.64567771  0.38703964  1
  V  V83  1  0.50735960  0.38056025  0.87420309  1
  V  V84  1  0.61795532  0.48751524  0.63249577  1
  Zn  Zn85  1  0.12498949  0.37117770  0.24948648  1
  Zn  Zn86  1  0.74587635  0.13157870  0.87279294  1
  Zn  Zn87  1  0.74390776  0.25884905  -0.00128226  1
  Zn  Zn88  1  0.24992060  0.37470074  0.12465647  1
  Zn  Zn89  1  0.50013343  0.61946315  0.62225427  1
  Zn  Zn90  1  0.24747534  0.86747602  0.12773311  1
  Zn  Zn91  1  0.62994238  0.25791970  0.87004111  1
  Zn  Zn92  1  0.25540613  0.88022542  0.63159854  1
  Zn  Zn93  1  0.37446319  0.51462483  0.86940280  1
  Zn  Zn94  1  0.74509716  0.62849308  0.86946506  1
  Zn  Zn95  1  0.61983909  0.74607454  0.88613752  1
  Zn  Zn96  1  0.12572180  0.24921464  0.87256491  1
  Zn  Zn97  1  0.11467786  0.79926200  0.33566863  1
  Zn  Zn98  1  0.49419732  0.87836928  0.86981341  1
  Zn  Zn99  1  0.37638616  0.61607900  0.25164758  1
  Zn  Zn100  1  0.38134382  0.74457246  0.11969885  1
  Zn  Zn101  1  0.37571825  0.11316437  0.75091072  1
  Zn  Zn102  1  -0.00109214  0.87515478  0.87485836  1
  Zn  Zn103  1  0.86982223  0.49142149  0.37970722  1
  Zn  Zn104  1  0.31328095  -0.05973274  0.81534846  1
  Zn  Zn105  1  0.62498777  0.62146390  0.50106795  1
  Zn  Zn106  1  0.37496250  0.25359854  0.12590686  1
  Zn  Zn107  1  0.18707043  0.18359748  0.18902988  1
  Zn  Zn108  1  0.18549461  0.18647554  0.68981699  1
  Zn  Zn109  1  0.19718242  0.67782419  0.18784885  1
  Zn  Zn110  1  0.17563571  0.70234890  0.62821306  1
  Zn  Zn111  1  0.68509882  0.19167542  0.18645901  1
  Zn  Zn112  1  0.68794309  0.19110757  0.68173997  1
  Zn  Zn113  1  0.69155092  0.68854159  0.18874549  1
  Zn  Zn114  1  0.68328854  0.67723692  0.68780388  1
  Zn  Zn115  1  0.30844385  0.30981177  0.30970541  1
  Zn  Zn116  1  0.31641003  0.31190609  0.81590806  1
  Zn  Zn117  1  0.31279552  0.81085645  0.31653947  1
  Zn  Zn118  1  0.31008254  0.69451613  0.80334562  1
  Zn  Zn119  1  0.80797112  0.31167846  0.31417846  1
  Zn  Zn120  1  0.81003135  0.31812310  0.81343538  1
  Zn  Zn121  1  0.93567811  0.79039901  0.32497331  1
  Zn  Zn122  1  0.80907729  0.81300208  0.81469652  1
  Zn  Zn123  1  0.17994927  0.42890950  0.44100085  1
  Zn  Zn124  1  0.19038744  0.43991224  0.93320420  1
  Zn  Zn125  1  0.18824594  0.93442228  0.44791773  1
  Zn  Zn126  1  0.18091364  0.93331386  0.94344017  1
  Zn  Zn127  1  0.67798269  0.43936483  0.43301210  1
  Zn  Zn128  1  0.68694953  0.44726567  0.93428976  1
  Zn  Zn129  1  0.69007868  0.93967897  0.43685707  1
  Zn  Zn130  1  0.68420553  0.93817104  0.93607577  1
  Zn  Zn131  1  0.31277417  0.06403588  0.06173152  1
  Zn  Zn132  1  0.31409112  0.06180142  0.56235783  1
  Zn  Zn133  1  0.31767630  0.56755391  0.06623622  1
  Zn  Zn134  1  0.31424744  0.56061000  0.55738909  1
  Zn  Zn135  1  0.80774834  0.06766152  0.06528536  1
  Zn  Zn136  1  0.81293042  0.06477870  0.56232660  1
  Zn  Zn137  1  0.81458329  0.55883347  0.06670592  1
  Zn  Zn138  1  0.81108557  0.56317449  0.56532222  1
  Zn  Zn139  1  0.43722424  0.43875809  0.18267467  1
  Zn  Zn140  1  0.43467120  0.43709741  0.68680617  1
  Zn  Zn141  1  0.43493750  0.93451764  0.18529454  1
  Zn  Zn142  1  0.44252734  0.93764829  0.68334405  1
  Zn  Zn143  1  0.94197355  0.43506415  0.18750994  1
  Zn  Zn144  1  0.93583817  0.44072317  0.69171156  1
  Zn  Zn145  1  0.93377315  0.94544708  0.19029162  1
  Zn  Zn146  1  0.93797649  0.93461380  0.68754418  1
  Zn  Zn147  1  0.08355133  0.01217109  0.33422526  1
  Zn  Zn148  1  0.06017633  0.06408451  0.81246191  1
  Zn  Zn149  1  0.06711018  0.56009413  0.31401720  1
  Zn  Zn150  1  0.06352679  0.56497529  0.80611421  1
  Zn  Zn151  1  0.56103766  0.06475757  0.31443499  1
  Zn  Zn152  1  0.56200439  0.06628362  0.80703605  1
  Zn  Zn153  1  0.56893229  0.56396815  0.30893375  1
  Zn  Zn154  1  0.57075733  0.56465353  0.81727171  1
  Zn  Zn155  1  0.43338640  0.18749751  0.44222206  1
  Zn  Zn156  1  0.43809834  0.19214117  0.93506248  1
  Zn  Zn157  1  0.43408324  0.68366766  0.43374289  1
  Zn  Zn158  1  0.43562657  0.69024386  0.93272479  1
  Zn  Zn159  1  0.93244682  0.18424543  0.44014210  1
  Zn  Zn160  1  0.93426974  0.19133797  0.93586318  1
  Zn  Zn161  1  1.07524480  0.68111027  0.45384554  1
  Zn  Zn162  1  0.94154803  0.69317683  0.94836094  1
  Zn  Zn163  1  0.05965339  0.31287843  0.06191739  1
  Zn  Zn164  1  0.06145855  0.31208444  0.56232155  1
  Zn  Zn165  1  0.06430062  0.80916273  0.16525899  1
  Zn  Zn166  1  0.05674811  0.82148620  0.56445267  1
  Zn  Zn167  1  0.56368969  0.31953173  0.06679784  1
  Zn  Zn168  1  0.56114152  0.31438303  0.55631386  1
  Zn  Zn169  1  0.56148311  0.81642022  0.06280255  1
  Zn  Zn170  1  0.56146504  0.80955572  0.56257096  1
  O  O171  1  0.11923458  0.12064680  0.11458540  1
  O  O172  1  0.11077134  0.11880934  0.63383557  1
  O  O173  1  0.11951817  0.61579223  0.11806254  1
  O  O174  1  0.11152397  0.61044691  0.63636031  1
  O  O175  1  0.61675649  0.12293975  0.11839305  1
  O  O176  1  0.61995340  0.11905744  0.61626977  1
  O  O177  1  0.62682732  0.60870162  0.13364775  1
  O  O178  1  0.62129272  0.60953122  0.61758354  1
  O  O179  1  0.36951244  0.36365237  0.38968815  1
  O  O180  1  0.38121817  0.38169360  0.88462072  1
  O  O181  1  0.38167199  0.88125319  0.38275194  1
  O  O182  1  0.37630675  0.87992515  0.89061449  1
  O  O183  1  0.88809862  0.37290141  0.37061384  1
  O  O184  1  0.88366186  0.38472327  0.88192123  1
  O  O185  1  0.87282410  0.86832253  0.38648141  1
  O  O186  1  0.87195523  0.88860378  0.88063483  1
  O  O187  1  0.26063360  0.00683570  0.36964370  1
  O  O188  1  0.24547943  0.01220795  0.88203650  1
  O  O189  1  0.24691526  0.48866168  0.36757423  1
  O  O190  1  0.24790168  0.50160218  0.85458542  1
  O  O191  1  0.74469155  0.01293237  0.36414485  1
  O  O192  1  0.75453543  0.00457259  0.86751019  1
  O  O193  1  0.74945600  0.50460503  0.36626613  1
  O  O194  1  0.76042927  0.50697751  0.87055150  1
  O  O195  1  0.23935763  0.49919730  0.12640180  1
  O  O196  1  0.24223382  0.49698265  0.63092350  1
  O  O197  1  0.24314842  1.00295775  0.13233800  1
  O  O198  1  0.23248506  1.00445266  0.61989036  1
  O  O199  1  0.73782029  0.49962221  0.12929479  1
  O  O200  1  0.74193513  0.50018387  0.63247801  1
  O  O201  1  0.74008451  1.00109298  0.13420430  1
  O  O202  1  0.74339215  0.99499102  0.63063468  1
  O  O203  1  0.00332021  0.36532717  0.25796468  1
  O  O204  1  0.01014927  0.37377272  0.75471128  1
  O  O205  1  -0.03478116  0.84132479  0.21977158  1
  O  O206  1  0.00475344  0.86360719  0.75222425  1
  O  O207  1  0.50561200  0.36613150  0.24403586  1
  O  O208  1  0.49124459  0.36837485  0.76060803  1
  O  O209  1  0.50594938  0.87010469  0.26053606  1
  O  O210  1  0.51202210  0.86840746  0.74785490  1
  O  O211  1  0.49583820  0.13214122  0.24303150  1
  O  O212  1  0.49806348  0.13506040  0.73752241  1
  O  O213  1  0.49898328  0.64194910  0.26035471  1
  O  O214  1  0.50531306  0.63619306  0.74702049  1
  O  O215  1  0.98650421  0.13215411  0.24449434  1
  O  O216  1  0.99056604  0.13207255  0.74406840  1
  O  O217  1  0.99184666  0.61284084  0.24130815  1
  O  O218  1  1.00028788  0.63887862  0.74148721  1
  O  O219  1  0.36764430  0.25906662  -0.00004809  1
  O  O220  1  0.37050021  0.25593958  0.51268852  1
  O  O221  1  0.36721525  0.75813843  -0.00150075  1
  O  O222  1  0.38412057  0.75795743  0.51278006  1
  O  O223  1  0.87408228  0.26039800  0.00679882  1
  O  O224  1  0.85896897  0.24592528  0.50729163  1
  O  O225  1  0.86951135  0.76292749  0.01383675  1
  O  O226  1  0.86044978  0.76173406  0.51239161  1
  O  O227  1  0.12852414  0.24919720  0.48897654  1
  O  O228  1  0.12948857  0.24083624  0.99818818  1
  O  O229  1  0.12757178  0.74350712  0.53259942  1
  O  O230  1  0.13233104  0.73978757  0.98674099  1
  O  O231  1  0.63800625  0.24208700  0.50656941  1
  O  O232  1  0.62365864  0.24446309  1.00014094  1
  O  O233  1  0.63651061  0.74911771  0.49559772  1
  O  O234  1  0.64477323  0.75985593  1.00650859  1
  O  O235  1  0.49844614  0.23886100  0.12802497  1
  O  O236  1  0.49281692  0.24825197  0.62986212  1
  O  O237  1  0.50472888  0.75594502  0.14276764  1
  O  O238  1  0.49354587  0.74638854  0.63288767  1
  O  O239  1  0.99140908  0.24512196  0.13021232  1
  O  O240  1  0.99341413  0.24286467  0.62822654  1
  O  O241  1  0.99116411  0.73188230  0.11417931  1
  O  O242  1  0.98775660  0.74419559  0.63304157  1
  O  O243  1  0.00393477  0.25023230  0.37414806  1
  O  O244  1  -0.00009859  0.25901869  0.86672140  1
  O  O245  1  0.02158180  0.74851308  0.37887419  1
  O  O246  1  0.00551328  0.75177324  0.86999594  1
  O  O247  1  0.49845819  0.24205798  0.36456346  1
  O  O248  1  0.50000155  0.26000075  0.86486042  1
  O  O249  1  0.50785364  0.75792997  0.36948444  1
  O  O250  1  0.50092686  0.75660868  0.86099274  1
  O  O251  1  0.25756747  0.13315557  0.48909610  1
  O  O252  1  0.24322352  0.13071650  0.99195477  1
  O  O253  1  0.25343483  0.62556674  0.48577460  1
  O  O254  1  0.23807036  0.62893159  1.00104004  1
  O  O255  1  0.74333433  0.12911115  0.49256313  1
  O  O256  1  0.73307799  0.12592570  0.99947347  1
  O  O257  1  0.75257747  0.63089565  0.49017511  1
  O  O258  1  0.75859997  0.64185353  1.00869053  1
  O  O259  1  0.25623827  0.36826830  -0.00264067  1
  O  O260  1  0.25451919  0.36683402  0.50816967  1
  O  O261  1  0.25507146  0.86652949  0.00116629  1
  O  O262  1  0.26619557  0.87927899  0.50749778  1
  O  O263  1  0.76333287  0.38030222  -0.00480821  1
  O  O264  1  0.74508483  0.36213259  0.48854166  1
  O  O265  1  0.75725816  0.87502188  0.00545361  1
  O  O266  1  0.75508330  0.87034864  0.50441417  1
  O  O267  1  0.13602613  0.49492256  0.24221959  1
  O  O268  1  0.13432447  0.49280447  0.74221678  1
  O  O269  1  0.13919294  1.01573172  0.23631444  1
  O  O270  1  0.11272368  0.99133485  0.74180426  1
  O  O271  1  0.62844437  0.49360842  0.23966503  1
  O  O272  1  0.63228816  0.49982205  0.73764718  1
  O  O273  1  0.62951253  0.99933102  0.24521006  1
  O  O274  1  0.62805193  0.99344390  0.74023414  1
  O  O275  1  0.37049173  0.00664453  0.25676387  1
  O  O276  1  0.37424386  0.00017588  0.74454079  1
  O  O277  1  0.35836787  0.49455751  0.24722149  1
  O  O278  1  0.35554278  0.49939997  0.74477876  1
  O  O279  1  0.86163951  0.01414551  0.24465610  1
  O  O280  1  0.86906313  0.00472269  0.75660367  1
  O  O281  1  0.86539295  0.49955674  0.24773473  1
  O  O282  1  0.86639881  0.50262924  0.75754785  1
  O  O283  1  0.11291186  0.36039877  0.37348915  1
  O  O284  1  0.11854910  0.37454440  0.86667928  1
  O  O285  1  0.12225543  0.90784377  0.36448307  1
  O  O286  1  0.11918032  0.86738320  0.87073811  1
  O  O287  1  0.62284694  0.38232790  0.35053295  1
  O  O288  1  0.61130055  0.37696467  0.88042766  1
  O  O289  1  0.61906109  0.87264806  0.37198715  1
  O  O290  1  0.62329992  0.86889178  0.86483296  1
  O  O291  1  0.38252071  0.12760449  0.13150943  1
  O  O292  1  0.38330989  0.13244733  0.62418183  1
  O  O293  1  0.36875633  0.63339394  0.13886757  1
  O  O294  1  0.37815617  0.63829422  0.61855907  1
  O  O295  1  0.87784501  0.13434051  0.13149133  1
  O  O296  1  0.87996265  0.13289958  0.63256052  1
  O  O297  1  0.88405620  0.62396006  0.13533238  1
  O  O298  1  0.87962730  0.63848566  0.62230200  1
  O  O299  1  0.24975008  0.24859283  0.11139296  1
  O  O300  1  0.25575399  0.25144010  0.62200878  1
  O  O301  1  0.24753791  0.74981970  0.10611130  1
  O  O302  1  0.27256996  0.75820180  0.63835204  1
  O  O303  1  0.76236331  0.24822774  0.12097945  1
  O  O304  1  0.75684208  0.25071307  0.61121523  1
  O  O305  1  0.76072080  0.75996439  0.12195791  1
  O  O306  1  0.75212298  0.75194562  0.62061593  1
  O  O307  1  0.23972511  0.24141788  0.37866889  1
  O  O308  1  0.24803821  0.24229543  0.88645431  1
  O  O309  1  0.23669887  0.74839674  0.37490224  1
  O  O310  1  0.23700718  0.74893367  0.87925142  1
  O  O311  1  0.75004968  0.23959606  0.38535570  1
  O  O312  1  0.74745055  0.24941030  0.87916771  1
  O  O313  1  0.74414716  0.74006597  0.38386396  1
  O  O314  1  0.75682118  0.74972154  0.89501923  1
  O  O315  1  0.00545997  0.12364438  0.00328355  1
  O  O316  1  -0.01075464  0.11579443  0.51496224  1
  O  O317  1  0.01036447  0.61727601  0.00753557  1
  O  O318  1  0.00249304  0.61306013  0.51666602  1
  O  O319  1  0.50537527  0.12174080  0.00495442  1
  O  O320  1  0.50883188  0.13444105  0.51255764  1
  O  O321  1  0.49750287  0.61628606  0.00005258  1
  O  O322  1  0.49924614  0.60958603  0.49748385  1
  O  O323  1  0.49143844  0.38609261  0.49912939  1
  O  O324  1  0.49208158  0.38010516  0.99294550  1
  O  O325  1  0.49481589  0.87227098  0.48782931  1
  O  O326  1  0.49401247  0.88565910  0.99847115  1
  O  O327  1  1.00219232  0.38237469  0.49322367  1
  O  O328  1  0.99530544  0.38155934  0.99117717  1
  O  O329  1  0.98670159  0.89009728  0.50684616  1
  O  O330  1  0.97994918  0.88740394  0.99864544  1
  O  O331  1  0.50129148  0.50164853  0.38175360  1
  O  O332  1  0.49863413  0.49677592  0.88540039  1
  O  O333  1  0.48977357  0.99184356  0.36915187  1
  O  O334  1  0.50453457  1.00160565  0.88594327  1
  O  O335  1  1.00035070  0.49023516  0.38549370  1
  O  O336  1  0.99484486  0.49617160  0.87541893  1
  O  O337  1  0.98976233  1.01702635  0.39675092  1
  O  O338  1  0.98847612  1.00121168  0.88219771  1
  O  O339  1  0.00522813  0.00935284  0.12122145  1
  O  O340  1  0.00196464  0.00897480  0.62230040  1
  O  O341  1  0.01088099  0.50600085  0.11972641  1
  O  O342  1  0.00323357  0.50551991  0.62267860  1
  O  O343  1  0.50430941  0.01267919  0.12157368  1
  O  O344  1  0.51136440  0.01160711  0.62530020  1
  O  O345  1  0.50730571  0.50022175  0.11073484  1
  O  O346  1  0.50927373  0.49947129  0.62577992  1
  O  O347  1  0.24553838  0.38162974  0.24574151  1
  O  O348  1  0.24013813  0.37186132  0.74597189  1
  O  O349  1  0.26059791  0.88968795  0.24674780  1
  O  O350  1  0.23432494  0.87976994  0.75270244  1
  O  O351  1  0.74128402  0.38321398  0.25026638  1
  O  O352  1  0.75074483  0.39843204  0.75863642  1
  O  O353  1  0.74030935  0.88968644  0.24364540  1
  O  O354  1  0.73849282  0.87822781  0.74444201  1
  O  O355  1  0.25883173  0.11995421  0.25850839  1
  O  O356  1  0.25006735  0.13094880  0.76862646  1
  O  O357  1  0.24765382  0.60706252  0.26425226  1
  O  O358  1  0.24329253  0.61995961  0.73998470  1
  O  O359  1  0.75099583  0.12409849  0.25741484  1
  O  O360  1  0.75500830  0.12026370  0.74812259  1
  O  O361  1  0.75509729  0.61135775  0.25286424  1
  O  O362  1  0.74880054  0.60834842  0.75229741  1
  O  O363  1  0.37034264  0.11773500  0.37177410  1
  O  O364  1  0.36068261  0.12657565  0.87608841  1
  O  O365  1  0.35439238  0.63515935  0.36728005  1
  O  O366  1  0.37104191  0.62740752  0.86871420  1
  O  O367  1  0.86364812  0.13158925  0.36249378  1
  O  O368  1  0.87217153  0.11684935  0.86864072  1
  O  O369  1  0.86264025  0.61658088  0.36046431  1
  O  O370  1  0.87757631  0.61645927  0.88505064  1
  O  O371  1  0.12561315  0.38324074  0.12512966  1
  O  O372  1  0.12946943  0.38072948  0.63323488  1
  O  O373  1  0.12562063  0.89462574  0.11592926  1
  O  O374  1  0.12524210  0.88702122  0.63630841  1
  O  O375  1  0.62115231  0.39034141  0.13705356  1
  O  O376  1  0.62375413  0.38901786  0.61986812  1
  O  O377  1  0.62717884  0.88570664  0.13118637  1
  O  O378  1  0.62969017  0.88248812  0.62756384  1
  O  O379  1  0.11794864  0.24489034  0.26205075  1
  O  O380  1  0.11658182  0.25965964  0.75049805  1
  O  O381  1  0.13932109  0.76226956  0.23209337  1
  O  O382  1  0.11562628  0.75961479  0.75490900  1
  O  O383  1  0.61556210  0.26300277  0.24299259  1
  O  O384  1  0.61235821  0.24920028  0.74709550  1
  O  O385  1  0.61989689  0.75679054  0.25628639  1
  O  O386  1  0.61438774  0.75678180  0.74397969  1
  O  O387  1  0.38166668  0.24407096  0.24752582  1
  O  O388  1  0.38041719  0.24750655  0.73934250  1
  O  O389  1  0.39202325  0.75768452  0.25125075  1
  O  O390  1  0.39101108  0.75280533  0.73786466  1
  O  O391  1  0.87666919  0.24605957  0.24222646  1
  O  O392  1  0.87756777  0.24756636  0.74323490  1
  O  O393  1  0.86477568  0.73200253  0.24434690  1
  O  O394  1  0.88016346  0.75656148  0.74372359  1
  O  O395  1  0.38901521  0.48995197  0.50470454  1
  O  O396  1  0.38548390  0.49714541  0.99865241  1
  O  O397  1  0.37617281  0.99368696  0.49034956  1
  O  O398  1  0.38610663  0.99494641  1.00758804  1
  O  O399  1  0.88569559  0.50149169  0.50052064  1
  O  O400  1  0.88312152  0.49528655  0.99499530  1
  O  O401  1  0.88211129  0.98993903  0.50881444  1
  O  O402  1  0.87257188  1.00039492  0.99269386  1
  O  O403  1  0.11780587  0.01188365  0.00511894  1
  O  O404  1  0.10563056  -0.00335255  0.51375505  1
  O  O405  1  0.12252306  0.50491293  0.00413113  1
  O  O406  1  0.11565322  0.49202639  0.51408380  1
  O  O407  1  0.61584106  0.00777439  0.00593117  1
  O  O408  1  0.63123689  0.00836555  0.51080572  1
  O  O409  1  0.61474606  0.49849790  0.01074446  1
  O  O410  1  0.60995444  0.49778212  0.50528430  1
  O  O411  1  0.37194818  0.37391894  0.11019958  1
  O  O412  1  0.36763913  0.36680145  0.61974478  1
  O  O413  1  0.37242520  0.86880926  0.11303181  1
  O  O414  1  0.38021608  0.86729849  0.61603765  1
  O  O415  1  0.88369813  0.36744330  0.11313435  1
  O  O416  1  0.88161384  0.36303488  0.62733831  1
  O  O417  1  0.86302696  0.87957291  0.11664031  1
  O  O418  1  0.86549420  0.86586617  0.62391170  1
  O  O419  1  0.13681574  0.12236484  0.37329156  1
  O  O420  1  0.13150938  0.12676066  0.88272572  1
  O  O421  1  0.14066425  0.61786804  0.37888994  1
  O  O422  1  0.11795478  0.63271376  0.88182597  1
  O  O423  1  0.62902247  0.12158617  0.38892697  1
  O  O424  1  0.62280962  0.13071084  0.88261405  1
  O  O425  1  0.63815909  0.62912838  0.37620582  1
  O  O426  1  0.63129802  0.63406720  0.87863774  1
