# generated using pymatgen
data_V85Zn86O256
_symmetry_space_group_name_H-M   'P 1'
_cell_length_a   16.94449609
_cell_length_b   16.95746527
_cell_length_c   16.94182138
_cell_angle_alpha   90.04742934
_cell_angle_beta   90.04882756
_cell_angle_gamma   90.02506759
_symmetry_Int_Tables_number   1
_chemical_formula_structural   V85Zn86O256
_chemical_formula_sum   'V85 Zn86 O256'
_cell_volume   4867.98626922
_cell_formula_units_Z   1
loop_
 _symmetry_equiv_pos_site_id
 _symmetry_equiv_pos_as_xyz
  1  'x, y, z'
loop_
 _atom_site_type_symbol
 _atom_site_label
 _atom_site_symmetry_multiplicity
 _atom_site_fract_x
 _atom_site_fract_y
 _atom_site_fract_z
 _atom_site_occupancy
  V  V0  1  0.87761915  0.86680064  0.48950273  1
  V  V1  1  0.74307344  0.38482239  0.12501575  1
  V  V2  1  0.24969360  0.00162554  0.75910666  1
  V  V3  1  0.62275261  0.86900719  0.24868544  1
  V  V4  1  0.74852722  0.62765628  0.88722322  1
  V  V5  1  0.00025852  0.24924712  0.24881330  1
  V  V6  1  0.00411811  0.75013712  0.74811778  1
  V  V7  1  0.11695320  0.37830620  0.75551299  1
  V  V8  1  0.25586563  0.38292476  0.12794902  1
  V  V9  1  0.49494141  0.51387758  0.50292328  1
  V  V10  1  0.25202651  0.75209098  0.00692084  1
  V  V11  1  0.74236654  0.36939194  0.62399450  1
  V  V12  1  0.12654823  0.50089053  0.62995491  1
  V  V13  1  0.37111571  -0.00324474  0.36614855  1
  V  V14  1  0.24807443  0.12143136  0.37103382  1
  V  V15  1  0.87355481  0.62584474  0.75032647  1
  V  V16  1  0.87570528  0.74886093  0.61952876  1
  V  V17  1  0.87324152  0.24775942  0.13052078  1
  V  V18  1  0.50684361  0.51794398  0.01749195  1
  V  V19  1  0.87390133  0.12294006  0.74814368  1
  V  V20  1  0.50465221  0.25246832  0.74542676  1
  V  V21  1  0.87073136  0.86817515  -0.00147479  1
  V  V22  1  0.37994394  0.87330124  0.00405540  1
  V  V23  1  -0.00311173  0.50353045  0.00927236  1
  V  V24  1  0.49509821  0.86687735  0.87219565  1
  V  V25  1  0.87651058  0.24572088  0.62478913  1
  V  V26  1  0.12400706  0.88278646  0.74688799  1
  V  V27  1  0.25122980  0.62331136  0.36138345  1
  V  V28  1  0.75069759  0.86353552  0.12024522  1
  V  V29  1  0.13102339  0.00178208  0.13175502  1
  V  V30  1  0.74866820  0.87112849  0.61692812  1
  V  V31  1  0.12896611  0.12402403  0.50766970  1
  V  V32  1  0.24990615  0.25534133  0.00273917  1
  V  V33  1  0.49990684  0.38958608  0.87228691  1
  V  V34  1  0.37721367  0.12038167  0.74601312  1
  V  V35  1  -0.00455698  0.12352572  0.12966808  1
  V  V36  1  0.87707189  0.36576005  0.49964056  1
  V  V37  1  0.75453988  0.12417729  0.36447321  1
  V  V38  1  0.87352685  -0.00232114  0.87456250  1
  V  V39  1  0.12124737  0.62811764  0.00444801  1
  V  V40  1  0.11648816  0.75990960  0.38087314  1
  V  V41  1  0.37139540  0.50180620  0.36435099  1
  V  V42  1  0.74748066  0.24889667  0.00027117  1
  V  V43  1  0.00391004  0.62457627  0.62403842  1
  V  V44  1  0.62648635  0.74553398  0.88587824  1
  V  V45  1  0.00427542  0.49401834  0.49999399  1
  V  V46  1  0.37952366  0.12987883  0.24541958  1
  V  V47  1  0.50663719  0.63902102  0.14472446  1
  V  V48  1  0.49872877  -0.00314181  0.49604541  1
  V  V49  1  0.26154164  0.62050466  0.87759009  1
  V  V50  1  0.00043902  0.00122139  -0.00026205  1
  V  V51  1  0.61470523  0.00500342  0.11880433  1
  V  V52  1  0.62397215  0.12391763  0.48799920  1
  V  V53  1  0.62480593  -0.00393120  0.61993929  1
  V  V54  1  0.37118963  0.36877388  0.50047550  1
  V  V55  1  0.24701064  0.88487170  0.62344095  1
  V  V56  1  0.12964670  0.38009122  0.25065819  1
  V  V57  1  0.00207048  -0.00287782  0.50581992  1
  V  V58  1  0.88097216  0.37349930  -0.00317280  1
  V  V59  1  0.63323251  0.73490781  0.37719576  1
  V  V60  1  0.00137174  0.37252749  0.37496222  1
  V  V61  1  0.87978242  0.49695476  0.87441607  1
  V  V62  1  0.88146849  -0.00167119  0.37027811  1
  V  V63  1  0.26309529  0.49885580  0.75921826  1
  V  V64  1  0.48648070  0.63004081  0.64126692  1
  V  V65  1  0.75512185  -0.00152292  0.24419822  1
  V  V66  1  0.43713170  0.05033430  0.93264301  1
  V  V67  1  0.74987673  -0.00291009  0.74687445  1
  V  V68  1  0.12884547  0.50802727  0.13136158  1
  V  V69  1  0.61851779  0.86529905  0.74667532  1
  V  V70  1  0.12858173  0.62308808  0.50249632  1
  V  V71  1  0.74586979  0.12355696  0.87606506  1
  V  V72  1  0.86463437  0.50132743  0.37482743  1
  V  V73  1  0.65525776  0.54392307  0.59876292  1
  V  V74  1  -0.00285240  0.25073909  0.75712693  1
  V  V75  1  0.13214015  0.24956241  0.37942891  1
  V  V76  1  0.74673779  0.24573200  0.49205444  1
  V  V77  1  0.12612189  0.75139126  0.87573184  1
  V  V78  1  0.50042120  0.12467776  0.61990861  1
  V  V79  1  0.12350954  0.25365309  0.87769857  1
  V  V80  1  0.50442630  0.36475461  0.37616603  1
  V  V81  1  0.25497545  0.74614305  0.50291401  1
  V  V82  1  0.24929666  0.37009260  0.62489590  1
  V  V83  1  0.49960654  0.86307479  0.36933144  1
  V  V84  1  0.37688017  0.87026819  0.50104575  1
  Zn  Zn85  1  -0.00481713  0.75685118  0.24588075  1
  Zn  Zn86  1  0.62241403  0.38973498  0.74190711  1
  Zn  Zn87  1  0.73511658  0.51265559  0.25036343  1
  Zn  Zn88  1  0.25138413  0.12590727  0.87792800  1
  Zn  Zn89  1  0.75110026  0.49755340  0.74870151  1
  Zn  Zn90  1  0.37555796  0.74649552  0.14436384  1
  Zn  Zn91  1  0.87432853  0.63031971  0.23793427  1
  Zn  Zn92  1  0.89194605  0.73549281  0.11757169  1
  Zn  Zn93  1  0.38078549  0.75607158  0.64871885  1
  Zn  Zn94  1  0.37004306  0.24677221  0.62130504  1
  Zn  Zn95  1  0.37296968  0.38713345  -0.01194392  1
  Zn  Zn96  1  0.62876064  0.36706274  0.25330689  1
  Zn  Zn97  1  0.12559950  0.12771958  -0.00001691  1
  Zn  Zn98  1  0.25394343  0.88111912  0.13721145  1
  Zn  Zn99  1  0.61434070  0.12410413  0.00169520  1
  Zn  Zn100  1  0.38287027  0.25429033  0.12331879  1
  Zn  Zn101  1  0.62787955  0.25688629  0.87067085  1
  Zn  Zn102  1  0.51450151  0.24202345  0.24103302  1
  Zn  Zn103  1  0.12006805  0.88656841  0.26150536  1
  Zn  Zn104  1  -0.00012604  0.87652298  0.87402146  1
  Zn  Zn105  1  0.74548833  0.71745320  0.49934046  1
  Zn  Zn106  1  0.00657682  0.12076682  0.62867527  1
  Zn  Zn107  1  0.18875406  0.18822779  0.18838990  1
  Zn  Zn108  1  0.18743450  0.18824845  0.69184789  1
  Zn  Zn109  1  0.17927286  0.69529222  0.18973566  1
  Zn  Zn110  1  0.22119669  0.70147117  0.70521574  1
  Zn  Zn111  1  0.68314497  0.18906734  0.18629008  1
  Zn  Zn112  1  0.68636438  0.18500113  0.68111135  1
  Zn  Zn113  1  0.69034413  0.68337168  0.18931115  1
  Zn  Zn114  1  0.68932291  0.69088764  0.68958805  1
  Zn  Zn115  1  0.31250628  0.31276589  0.31304919  1
  Zn  Zn116  1  0.31444190  0.31231797  0.81055081  1
  Zn  Zn117  1  0.29845091  0.81772123  0.31201053  1
  Zn  Zn118  1  0.31259877  0.81452270  0.81931883  1
  Zn  Zn119  1  0.81148483  0.31332607  0.31003441  1
  Zn  Zn120  1  0.81065098  0.31381761  0.81255575  1
  Zn  Zn121  1  0.80850511  0.80509502  0.30800049  1
  Zn  Zn122  1  0.80959951  0.81075343  0.81070626  1
  Zn  Zn123  1  0.19177035  0.43781652  0.43751484  1
  Zn  Zn124  1  0.18402924  0.43830601  0.93957644  1
  Zn  Zn125  1  0.19028597  0.94308349  0.44068976  1
  Zn  Zn126  1  0.18737037  0.93729149  0.94123196  1
  Zn  Zn127  1  0.68217312  0.43619977  0.44096859  1
  Zn  Zn128  1  0.68537809  0.44026939  0.93488992  1
  Zn  Zn129  1  0.68907097  0.93533440  0.43251293  1
  Zn  Zn130  1  0.68345084  0.93524963  0.93838824  1
  Zn  Zn131  1  0.30822793  0.07001676  0.06493966  1
  Zn  Zn132  1  0.30989368  0.06048218  0.55913656  1
  Zn  Zn133  1  0.32292491  0.56414123  0.06478466  1
  Zn  Zn134  1  0.31399041  0.55874555  0.56450061  1
  Zn  Zn135  1  0.81153531  0.05988836  0.06312348  1
  Zn  Zn136  1  0.81440445  0.05947271  0.55774363  1
  Zn  Zn137  1  0.81136884  0.56655431  0.06595886  1
  Zn  Zn138  1  0.82525284  0.55761659  0.55608213  1
  Zn  Zn139  1  0.44583355  0.43892055  0.18862553  1
  Zn  Zn140  1  0.43909694  0.43952041  0.68296158  1
  Zn  Zn141  1  0.43621309  0.93573923  0.18869281  1
  Zn  Zn142  1  0.43633698  0.93926109  0.68819177  1
  Zn  Zn143  1  0.93560180  0.43866102  0.18809170  1
  Zn  Zn144  1  0.93546525  0.43508711  0.68621390  1
  Zn  Zn145  1  0.94016071  0.92680745  0.18844328  1
  Zn  Zn146  1  0.93676068  0.93505774  0.68325414  1
  Zn  Zn147  1  0.05743198  0.06535102  0.31347138  1
  Zn  Zn148  1  0.06334862  0.06519577  0.81504951  1
  Zn  Zn149  1  0.05654075  0.56681118  0.31238494  1
  Zn  Zn150  1  0.06208089  0.56411684  0.81867821  1
  Zn  Zn151  1  0.56175614  0.05493004  0.30836502  1
  Zn  Zn152  1  0.56944927  0.06288180  0.80471810  1
  Zn  Zn153  1  0.56434841  0.55109209  0.31299103  1
  Zn  Zn154  1  0.57120367  0.56421915  0.79903893  1
  Zn  Zn155  1  0.43097916  0.18653042  0.43720198  1
  Zn  Zn156  1  0.43725918  0.21617971  0.93440177  1
  Zn  Zn157  1  0.43320035  0.68657001  0.31903391  1
  Zn  Zn158  1  0.44086551  0.68886222  0.94171370  1
  Zn  Zn159  1  0.94068538  0.18162321  0.43498288  1
  Zn  Zn160  1  0.93490083  0.18547430  0.93818735  1
  Zn  Zn161  1  0.94588885  0.67126952  0.41272084  1
  Zn  Zn162  1  0.94028753  0.68592359  0.93745442  1
  Zn  Zn163  1  0.06249075  0.31770725  0.06477270  1
  Zn  Zn164  1  0.06511423  0.30695676  0.56676906  1
  Zn  Zn165  1  0.05942400  0.81811169  0.06673874  1
  Zn  Zn166  1  0.06376313  0.81324972  0.56106148  1
  Zn  Zn167  1  0.56113515  0.31211270  0.05885744  1
  Zn  Zn168  1  0.55942331  0.30951146  0.55402587  1
  Zn  Zn169  1  0.56084890  0.81140636  0.06437987  1
  Zn  Zn170  1  0.55921672  0.80040086  0.55731369  1
  O  O171  1  0.11617870  0.11941167  0.12164196  1
  O  O172  1  0.12780652  0.13088207  0.61215429  1
  O  O173  1  0.12948265  0.61592592  0.11931544  1
  O  O174  1  0.12309134  0.62094007  0.61647558  1
  O  O175  1  0.62992537  0.10984380  0.12082404  1
  O  O176  1  0.62100562  0.11557428  0.61126266  1
  O  O177  1  0.60696733  0.63378349  0.12845450  1
  O  O178  1  0.60647648  0.63324187  0.63071098  1
  O  O179  1  0.37491508  0.38404629  0.38324751  1
  O  O180  1  0.39331003  0.37114112  0.86956563  1
  O  O181  1  0.38040022  0.88134102  0.38088940  1
  O  O182  1  0.38733271  0.87353611  0.88054888  1
  O  O183  1  0.88326934  0.37553104  0.38131806  1
  O  O184  1  0.86873745  0.38488517  0.88350446  1
  O  O185  1  0.86415123  0.88104432  0.38544018  1
  O  O186  1  0.87496866  0.88063571  0.87851261  1
  O  O187  1  0.25982521  0.00780116  0.37690520  1
  O  O188  1  0.24619528  0.00389762  0.86376309  1
  O  O189  1  0.26275435  0.50809087  0.38090245  1
  O  O190  1  0.24802388  0.50368731  0.86830120  1
  O  O191  1  0.75863773  0.00508403  0.36668127  1
  O  O192  1  0.75208896  0.00486738  0.86799924  1
  O  O193  1  0.76368333  0.48033234  0.37568818  1
  O  O194  1  0.75978614  0.50842248  0.87102675  1
  O  O195  1  0.24074379  0.49518362  0.11917621  1
  O  O196  1  0.24423281  0.49275165  0.63937005  1
  O  O197  1  0.23370662  1.00502836  0.12081760  1
  O  O198  1  0.25316143  0.99052722  0.63482575  1
  O  O199  1  0.75063884  0.48635098  0.12107042  1
  O  O200  1  0.75229092  0.48497571  0.62086277  1
  O  O201  1  0.74495854  0.99352636  0.13159994  1
  O  O202  1  0.74535638  0.99208300  0.62702767  1
  O  O203  1  0.01060428  0.36947544  0.25328916  1
  O  O204  1  0.00895341  0.36670380  0.74630765  1
  O  O205  1  0.00897513  0.87325796  0.25551387  1
  O  O206  1  0.00809151  0.86956348  0.74928685  1
  O  O207  1  0.49596569  0.37313596  0.26936423  1
  O  O208  1  0.50314888  0.36842572  0.74890831  1
  O  O209  1  0.51019955  0.88148747  0.25882929  1
  O  O210  1  0.50668380  0.88007670  0.75824341  1
  O  O211  1  0.48361796  0.12637746  0.26211342  1
  O  O212  1  0.49519625  0.12801587  0.74159201  1
  O  O213  1  0.50073763  0.62360612  0.24890964  1
  O  O214  1  0.48983073  0.62145838  0.73969804  1
  O  O215  1  1.00020309  0.13282204  0.23736386  1
  O  O216  1  0.99293113  0.13122819  0.74872789  1
  O  O217  1  0.97645782  0.64397612  0.29780165  1
  O  O218  1  0.99245613  0.63040007  0.74704657  1
  O  O219  1  0.36286236  0.26307845  0.00326391  1
  O  O220  1  0.37262813  0.26336045  0.50174675  1
  O  O221  1  0.36654424  0.75887891  0.00229082  1
  O  O222  1  0.36722053  0.76593842  0.49896031  1
  O  O223  1  0.86773348  0.25670616  0.00419227  1
  O  O224  1  0.87065687  0.24857313  0.50434943  1
  O  O225  1  0.88284115  0.76460134  -0.00246125  1
  O  O226  1  0.86902187  0.75365648  0.50297549  1
  O  O227  1  0.11864397  0.23927615  0.48979568  1
  O  O228  1  0.13033582  0.25461917  0.99377957  1
  O  O229  1  0.13381130  0.74127093  0.49810198  1
  O  O230  1  0.12897757  0.74564129  0.99453050  1
  O  O231  1  0.63543713  0.23601928  0.50142666  1
  O  O232  1  0.63739993  0.24483665  0.99565703  1
  O  O233  1  0.62973878  0.75405281  0.48209057  1
  O  O234  1  0.62611963  0.75754831  0.98390897  1
  O  O235  1  0.49529518  0.25731204  0.12840759  1
  O  O236  1  0.49596751  0.24181356  0.62750398  1
  O  O237  1  0.49792301  0.74353547  0.13067095  1
  O  O238  1  0.49302617  0.73653895  0.62419777  1
  O  O239  1  0.99402811  0.24417847  0.12688198  1
  O  O240  1  0.99457872  0.24585676  0.63863820  1
  O  O241  1  1.00779022  0.74681590  0.13007495  1
  O  O242  1  0.99690682  0.74343389  0.62928521  1
  O  O243  1  0.00817575  0.25299695  0.36863629  1
  O  O244  1  0.00368503  0.24658611  0.86492085  1
  O  O245  1  0.01790850  0.75881122  0.40039500  1
  O  O246  1  0.01230650  0.75059661  0.86816205  1
  O  O247  1  0.49120334  0.26373192  0.37813873  1
  O  O248  1  0.50853033  0.26087493  0.86086903  1
  O  O249  1  0.50984638  0.76031909  0.37518763  1
  O  O250  1  0.51190208  0.75585530  0.87438351  1
  O  O251  1  0.24050720  0.11988430  0.48792715  1
  O  O252  1  0.24814059  0.14017117  0.99695890  1
  O  O253  1  0.24570246  0.63151548  0.50104504  1
  O  O254  1  0.24072011  0.63015720  0.99655241  1
  O  O255  1  0.74369414  0.12716161  0.48974188  1
  O  O256  1  0.75271770  0.13249557  0.99064502  1
  O  O257  1  0.72581801  0.60776918  0.53966201  1
  O  O258  1  0.75076819  0.62196256  0.98621368  1
  O  O259  1  0.25111870  0.37296609  0.00865010  1
  O  O260  1  0.25687057  0.38224124  0.51378856  1
  O  O261  1  0.26139131  0.86882469  -0.00015308  1
  O  O262  1  0.25647789  0.87354463  0.50780364  1
  O  O263  1  0.75793046  0.36842772  0.00550569  1
  O  O264  1  0.75478301  0.36171136  0.50362316  1
  O  O265  1  0.75987447  0.88179459  0.00647930  1
  O  O266  1  0.75698784  0.88052813  0.51038917  1
  O  O267  1  0.11594461  0.49460586  0.24282668  1
  O  O268  1  0.12169983  0.49099007  0.74854889  1
  O  O269  1  0.11855849  1.00808829  0.23451384  1
  O  O270  1  0.13012336  0.99063880  0.75387873  1
  O  O271  1  0.62947390  0.47894679  0.26328485  1
  O  O272  1  0.63575490  0.50732443  0.71952280  1
  O  O273  1  0.63556442  0.99194950  0.24155320  1
  O  O274  1  0.63154767  0.98904486  0.74019905  1
  O  O275  1  0.37811732  0.00911982  0.26062169  1
  O  O276  1  0.36767948  0.01251333  0.74833215  1
  O  O277  1  0.37697653  0.49543712  0.26643076  1
  O  O278  1  0.36063182  0.49605291  0.74909155  1
  O  O279  1  0.86355875  -0.00757104  0.25581588  1
  O  O280  1  0.86908673  0.00203914  0.75397583  1
  O  O281  1  0.87954292  0.49923423  0.26965798  1
  O  O282  1  0.87714629  0.50728260  0.75692869  1
  O  O283  1  0.12288046  0.36946013  0.37049529  1
  O  O284  1  0.12491886  0.36494828  0.86802800  1
  O  O285  1  0.13183696  0.86144235  0.38530487  1
  O  O286  1  0.12398508  0.86788999  0.86856663  1
  O  O287  1  0.60554110  0.36976441  0.38834100  1
  O  O288  1  0.61758921  0.37624739  0.86230772  1
  O  O289  1  0.61651407  0.87566064  0.36574732  1
  O  O290  1  0.61713494  0.86821999  0.86716031  1
  O  O291  1  0.37046071  0.12553593  0.14292548  1
  O  O292  1  0.37953483  0.12511598  0.62968304  1
  O  O293  1  0.39580043  0.63103716  0.12062624  1
  O  O294  1  0.38408766  0.62916515  0.62116356  1
  O  O295  1  0.88262078  0.13593096  0.11796618  1
  O  O296  1  0.87358763  0.12966526  0.63126570  1
  O  O297  1  0.88663238  0.62032210  0.12268591  1
  O  O298  1  0.88480537  0.62796071  0.63090434  1
  O  O299  1  0.24956670  0.26069121  0.11715394  1
  O  O300  1  0.25158295  0.26613078  0.63681713  1
  O  O301  1  0.24642983  0.75271658  0.11461225  1
  O  O302  1  0.24681468  0.76355821  0.60997404  1
  O  O303  1  0.75825472  0.25281249  0.11582954  1
  O  O304  1  0.75731582  0.24995221  0.61348961  1
  O  O305  1  0.74727254  0.76317350  0.12217126  1
  O  O306  1  0.75543625  0.75679896  0.61938141  1
  O  O307  1  0.23741806  0.24441687  0.37334727  1
  O  O308  1  0.24239631  0.25253769  0.88286238  1
  O  O309  1  0.24176725  0.74099955  0.38942847  1
  O  O310  1  0.23887999  0.74465760  0.88893514  1
  O  O311  1  0.75934709  0.23990248  0.38418443  1
  O  O312  1  0.74939247  0.24162217  0.88089793  1
  O  O313  1  0.73821375  0.74892196  0.38193524  1
  O  O314  1  0.73747377  0.74301516  0.86955806  1
  O  O315  1  -0.00142669  0.11634639  0.00783536  1
  O  O316  1  0.00899365  0.11646519  0.50283152  1
  O  O317  1  0.01353340  0.61727386  -0.00461172  1
  O  O318  1  0.01008932  0.61498461  0.50325614  1
  O  O319  1  0.49241383  0.11972498  -0.01602395  1
  O  O320  1  0.50627342  0.11939455  0.49918427  1
  O  O321  1  0.50671619  0.61979617  0.00451424  1
  O  O322  1  0.49672666  0.61079852  0.50100546  1
  O  O323  1  0.48887819  0.38045653  0.49478952  1
  O  O324  1  0.50027891  0.37558240  0.97984158  1
  O  O325  1  0.49310430  0.87708890  0.49336846  1
  O  O326  1  0.48804714  0.87186589  0.99180288  1
  O  O327  1  0.99811580  0.37398047  0.49697330  1
  O  O328  1  0.98782705  0.38264405  1.00270901  1
  O  O329  1  0.98783722  0.88256234  0.50714682  1
  O  O330  1  0.99307862  0.88888154  0.99690016  1
  O  O331  1  0.48782095  0.49256677  0.38745628  1
  O  O332  1  0.50478088  0.48932982  0.86076818  1
  O  O333  1  0.49196322  0.99040475  0.38030100  1
  O  O334  1  0.50096551  0.99462782  0.87460359  1
  O  O335  1  0.99416435  0.48977500  0.38429740  1
  O  O336  1  0.98661076  0.50540374  0.88657924  1
  O  O337  1  0.98647305  1.00524145  0.38237480  1
  O  O338  1  0.99334280  1.00103365  0.88237827  1
  O  O339  1  0.00326026  0.00801130  0.11792064  1
  O  O340  1  -0.00599982  0.00371307  0.61130836  1
  O  O341  1  0.00949191  0.49362761  0.11473011  1
  O  O342  1  0.00622581  0.50371524  0.62011139  1
  O  O343  1  0.51642844  -0.00244090  0.13030900  1
  O  O344  1  0.50463997  0.00448459  0.61623931  1
  O  O345  1  0.50500209  0.51163744  0.12285029  1
  O  O346  1  0.49709258  0.51339694  0.61553254  1
  O  O347  1  0.23687495  0.37245244  0.24528033  1
  O  O348  1  0.24000779  0.38474588  0.74979638  1
  O  O349  1  0.23155722  0.87810310  0.24843427  1
  O  O350  1  0.24353279  0.88604218  0.74532999  1
  O  O351  1  0.75634926  0.37542480  0.23111317  1
  O  O352  1  0.74813637  0.37471990  0.73795310  1
  O  O353  1  0.74241166  0.88207072  0.24093531  1
  O  O354  1  0.74421312  0.87823686  0.73648389  1
  O  O355  1  0.25874889  0.12905300  0.26302337  1
  O  O356  1  0.25840744  0.12027395  0.75365985  1
  O  O357  1  0.24164405  0.62786789  0.26294940  1
  O  O358  1  0.23592793  0.60304158  0.76362462  1
  O  O359  1  0.74742464  0.11659480  0.25906043  1
  O  O360  1  0.75326812  0.11874944  0.75451776  1
  O  O361  1  0.75999292  0.62101506  0.24846571  1
  O  O362  1  0.76522161  0.62538998  0.75111434  1
  O  O363  1  0.36598554  0.11703654  0.37117810  1
  O  O364  1  0.38152525  0.11868064  0.87264472  1
  O  O365  1  0.36671620  0.61073731  0.37839401  1
  O  O366  1  0.36000082  0.63098437  0.88328826  1
  O  O367  1  0.86518073  0.11242176  0.37844047  1
  O  O368  1  0.86386807  0.11884029  0.86864512  1
  O  O369  1  0.85836736  0.59785475  0.40691780  1
  O  O370  1  0.86923284  0.62161845  0.86799816  1
  O  O371  1  0.13334010  0.38498453  0.13276116  1
  O  O372  1  0.13083811  0.37914320  0.63449344  1
  O  O373  1  0.12680960  0.89710631  0.11687506  1
  O  O374  1  0.13373154  0.87255653  0.63499993  1
  O  O375  1  0.64263611  0.37046171  0.11951082  1
  O  O376  1  0.63851422  0.36286388  0.62119610  1
  O  O377  1  0.63077406  0.88189074  0.12993234  1
  O  O378  1  0.62870026  0.87458519  0.62757707  1
  O  O379  1  0.11938678  0.25795495  0.25641727  1
  O  O380  1  0.11727128  0.25689794  0.75730932  1
  O  O381  1  0.11896519  0.74434309  0.27504944  1
  O  O382  1  0.12713018  0.76035574  0.75818482  1
  O  O383  1  0.62709633  0.25393879  0.25542596  1
  O  O384  1  0.61220296  0.24500294  0.74569378  1
  O  O385  1  0.63209094  0.76338271  0.26196939  1
  O  O386  1  0.62774964  0.76334515  0.75602017  1
  O  O387  1  0.37499314  0.23671643  0.25206570  1
  O  O388  1  0.38509398  0.23657441  0.74937020  1
  O  O389  1  0.37072334  0.75410553  0.25763161  1
  O  O390  1  0.32631599  0.73623806  0.74443548  1
  O  O391  1  0.88242239  0.25535889  0.23691660  1
  O  O392  1  0.88094034  0.24490033  0.74727309  1
  O  O393  1  0.87589339  0.75400409  0.23739962  1
  O  O394  1  0.88192622  0.74395737  0.74249188  1
  O  O395  1  0.38313452  0.49118106  0.49777051  1
  O  O396  1  0.39895781  0.49870450  1.00149809  1
  O  O397  1  0.37885945  0.99021530  0.49159394  1
  O  O398  1  0.37556104  0.99888506  0.99819866  1
  O  O399  1  0.88478253  0.48095171  0.49621201  1
  O  O400  1  0.88132008  0.49333400  0.99441838  1
  O  O401  1  0.88156497  0.99124901  0.49111355  1
  O  O402  1  0.88137205  0.99393487  0.99284200  1
  O  O403  1  0.11550489  0.00624829  0.00450327  1
  O  O404  1  0.11360516  0.00975875  0.49372922  1
  O  O405  1  0.11697503  0.50760304  0.00684847  1
  O  O406  1  0.12394852  0.50463499  0.50775853  1
  O  O407  1  0.62614608  0.00143309  0.01361640  1
  O  O408  1  0.61977712  0.00295138  0.50237659  1
  O  O409  1  0.60222321  0.49382396  -0.00763275  1
  O  O410  1  0.61014369  0.49476594  0.51149371  1
  O  O411  1  0.36163429  0.38008030  0.13162737  1
  O  O412  1  0.36691841  0.37433682  0.61867812  1
  O  O413  1  0.37216696  0.87346541  0.11782417  1
  O  O414  1  0.36813984  0.87414636  0.61921155  1
  O  O415  1  0.86908372  0.36797815  0.11581758  1
  O  O416  1  0.86722322  0.36447818  0.61919361  1
  O  O417  1  0.86540401  0.87826215  0.11280106  1
  O  O418  1  0.86636431  0.86771703  0.61658893  1
  O  O419  1  0.13004749  0.13121489  0.37943128  1
  O  O420  1  0.12663296  0.14102055  0.87667940  1
  O  O421  1  0.13280680  0.62695345  0.39004568  1
  O  O422  1  0.13112442  0.63295667  0.88439878  1
  O  O423  1  0.63357909  0.11317717  0.38347243  1
  O  O424  1  0.63694062  0.12375634  0.87674230  1
  O  O425  1  0.62019928  0.63727949  0.37196648  1
  O  O426  1  0.63305480  0.63834990  0.86469103  1
