# generated using pymatgen
data_V85Zn86O256
_symmetry_space_group_name_H-M   'P 1'
_cell_length_a   16.95311035
_cell_length_b   16.94471248
_cell_length_c   16.95099732
_cell_angle_alpha   89.95647941
_cell_angle_beta   89.88115897
_cell_angle_gamma   89.98009029
_symmetry_Int_Tables_number   1
_chemical_formula_structural   V85Zn86O256
_chemical_formula_sum   'V85 Zn86 O256'
_cell_volume   4869.42591535
_cell_formula_units_Z   1
loop_
 _symmetry_equiv_pos_site_id
 _symmetry_equiv_pos_as_xyz
  1  'x, y, z'
loop_
 _atom_site_type_symbol
 _atom_site_label
 _atom_site_symmetry_multiplicity
 _atom_site_fract_x
 _atom_site_fract_y
 _atom_site_fract_z
 _atom_site_occupancy
  V  V0  1  0.24639150  0.24897045  -0.00117552  1
  V  V1  1  0.88129921  0.87445754  0.49994181  1
  V  V2  1  0.87779803  0.25021809  0.62913395  1
  V  V3  1  0.75400620  -0.00555196  0.25132701  1
  V  V4  1  0.86905138  0.49662959  0.37376342  1
  V  V5  1  0.37987556  0.74433260  0.12605378  1
  V  V6  1  0.74824247  0.12301251  0.88279089  1
  V  V7  1  0.50223732  0.76633401  0.74941404  1
  V  V8  1  0.00337444  0.12783651  0.62769198  1
  V  V9  1  0.74270999  -0.00341761  0.75146093  1
  V  V10  1  0.87096712  0.62296748  0.24763640  1
  V  V11  1  0.00392005  -0.00483861  0.00101558  1
  V  V12  1  0.62300220  0.49462975  0.62835390  1
  V  V13  1  0.62608955  -0.00046085  0.11937903  1
  V  V14  1  -0.00303729  0.62694610  0.12344885  1
  V  V15  1  0.12280394  0.37302989  0.24496368  1
  V  V16  1  0.37513428  0.24418023  0.12838380  1
  V  V17  1  0.12314539  0.63312455  -0.00403316  1
  V  V18  1  0.24869773  0.63144848  0.87850654  1
  V  V19  1  0.60763402  0.62570099  0.00664216  1
  V  V20  1  0.36652945  0.75101616  0.62062303  1
  V  V21  1  0.49891883  0.24996186  0.25168272  1
  V  V22  1  0.49481656  0.48412342  0.49486042  1
  V  V23  1  0.74434360  0.25029524  0.00856350  1
  V  V24  1  0.26921426  0.12466716  0.36918544  1
  V  V25  1  0.75413270  0.12545303  0.37791370  1
  V  V26  1  0.50678343  -0.00366016  -0.00794859  1
  V  V27  1  0.74266296  0.87407515  0.62957132  1
  V  V28  1  0.87574751  -0.01298706  0.87691548  1
  V  V29  1  -0.00171422  0.50004904  -0.00562097  1
  V  V30  1  0.37698858  0.12400901  0.74989428  1
  V  V31  1  -0.00403174  0.37137496  0.37101946  1
  V  V32  1  0.50522146  0.25567899  0.75152070  1
  V  V33  1  0.38028692  -0.00938916  0.87127025  1
  V  V34  1  0.25684789  -0.01455396  0.22275241  1
  V  V35  1  0.01526243  0.75115211  0.75179094  1
  V  V36  1  0.24613766  0.75197627  0.48354292  1
  V  V37  1  0.62067875  0.62323685  0.49707030  1
  V  V38  1  0.74691443  0.37185480  0.63170916  1
  V  V39  1  0.38413367  0.37794804  0.00479205  1
  V  V40  1  0.63561778  0.37213813  0.24500221  1
  V  V41  1  0.88253528  0.12129565  0.24802784  1
  V  V42  1  0.87676581  0.75687925  0.12235464  1
  V  V43  1  0.38015807  0.50561963  0.88271993  1
  V  V44  1  0.50928252  0.38260180  0.87606971  1
  V  V45  1  -0.00150166  0.50014004  0.50279746  1
  V  V46  1  0.24625567  0.12275660  0.87300060  1
  V  V47  1  0.12261728  0.49884224  0.11853869  1
  V  V48  1  0.61931629  0.76265905  0.87280315  1
  V  V49  1  0.88346854  -0.00467129  0.37262010  1
  V  V50  1  0.74826733  0.87305499  0.13032680  1
  V  V51  1  0.61242521  0.49421689  0.12075708  1
  V  V52  1  -0.00415801  0.35943913  0.87583012  1
  V  V53  1  0.74330087  0.49856434  0.75376716  1
  V  V54  1  0.62508481  0.24673822  0.87774413  1
  V  V55  1  0.50877169  0.73389110  0.25060097  1
  V  V56  1  0.01805062  0.87061205  0.87425272  1
  V  V57  1  0.00350716  -0.00263179  0.50059906  1
  V  V58  1  0.37470320  0.87771356  0.00613090  1
  V  V59  1  0.00576452  0.12372018  0.12220568  1
  V  V60  1  0.12621322  -0.00781023  0.62756826  1
  V  V61  1  0.24725350  -0.01039355  0.74971345  1
  V  V62  1  0.75005171  0.75300031  0.00135024  1
  V  V63  1  0.56597031  0.92642565  0.30798274  1
  V  V64  1  0.62481308  0.25696710  0.37842783  1
  V  V65  1  0.49915429  0.62560654  0.62511219  1
  V  V66  1  0.38883450  0.88242931  0.49272322  1
  V  V67  1  0.37434569  0.62525843  0.75024688  1
  V  V68  1  0.24859487  0.37245610  0.11970807  1
  V  V69  1  0.25063819  0.50323668  0.24574280  1
  V  V70  1  0.00093621  0.75234601  0.26986128  1
  V  V71  1  0.87487183  0.75085293  0.62828818  1
  V  V72  1  0.87834523  0.12542537  0.75233164  1
  V  V73  1  0.74849896  0.74806974  0.49794244  1
  V  V74  1  0.62468311  0.11758321  0.50320077  1
  V  V75  1  0.86576869  0.37648160  0.00865056  1
  V  V76  1  0.50227405  0.12436298  0.11743031  1
  V  V77  1  0.24594327  0.75839835  0.00764394  1
  V  V78  1  0.37267846  0.26467885  0.62380856  1
  V  V79  1  0.74515350  0.62675287  0.87924654  1
  V  V80  1  0.12751404  0.24632089  0.37176904  1
  V  V81  1  0.87297870  0.62878677  0.75284944  1
  V  V82  1  0.13377704  0.12378993  0.49846575  1
  V  V83  1  0.25533590  0.26630779  0.50117403  1
  V  V84  1  0.49896876  0.12156079  0.62214533  1
  Zn  Zn85  1  0.87008866  0.37162864  0.50063191  1
  Zn  Zn86  1  -0.00084491  0.62135911  0.62525250  1
  Zn  Zn87  1  0.87000049  0.25127690  0.12849814  1
  Zn  Zn88  1  0.74599527  0.62261566  0.37248583  1
  Zn  Zn89  1  0.74925086  0.24838508  0.50509587  1
  Zn  Zn90  1  0.38479768  0.00102941  0.37026187  1
  Zn  Zn91  1  0.12965998  0.49025146  0.62585585  1
  Zn  Zn92  1  0.61746429  -0.00665054  0.62706847  1
  Zn  Zn93  1  0.16342983  0.29227954  0.83397349  1
  Zn  Zn94  1  0.05686682  0.30922207  0.70666438  1
  Zn  Zn95  1  0.24353733  0.47127331  0.74031584  1
  Zn  Zn96  1  0.62067872  0.75341699  0.37360059  1
  Zn  Zn97  1  -0.00066376  0.24623090  0.24680527  1
  Zn  Zn98  1  0.86971337  0.49921827  0.87734781  1
  Zn  Zn99  1  0.24669953  0.62554323  0.36874565  1
  Zn  Zn100  1  0.12480781  0.12454224  -0.00092594  1
  Zn  Zn101  1  0.75099396  0.49367962  0.23850436  1
  Zn  Zn102  1  0.37397398  0.62419157  0.24866861  1
  Zn  Zn103  1  0.11938124  0.63203700  0.49285307  1
  Zn  Zn104  1  0.24828408  0.87271790  0.62295431  1
  Zn  Zn105  1  0.12819275  0.86739469  0.25238185  1
  Zn  Zn106  1  0.37255587  0.49310278  0.38274155  1
  Zn  Zn107  1  0.18655906  0.17712603  0.19136932  1
  Zn  Zn108  1  0.19433407  0.18250514  0.68376264  1
  Zn  Zn109  1  0.18332207  0.69039197  0.18425554  1
  Zn  Zn110  1  0.17431445  0.64020513  0.69717697  1
  Zn  Zn111  1  0.68819450  0.18000370  0.19049740  1
  Zn  Zn112  1  0.68716785  0.18525232  0.69364450  1
  Zn  Zn113  1  0.68511808  0.68076718  0.18388911  1
  Zn  Zn114  1  0.68456832  0.68669664  0.68758692  1
  Zn  Zn115  1  0.31407583  0.31861482  0.31294431  1
  Zn  Zn116  1  0.32753800  0.31509490  0.81582527  1
  Zn  Zn117  1  0.32125772  0.81870168  0.30872064  1
  Zn  Zn118  1  0.31274652  0.80952053  0.81480166  1
  Zn  Zn119  1  0.81161205  0.30683220  0.31168099  1
  Zn  Zn120  1  0.81362138  0.31253335  0.81539852  1
  Zn  Zn121  1  0.81684082  0.81122654  0.31350874  1
  Zn  Zn122  1  0.80951266  0.81172287  0.81336398  1
  Zn  Zn123  1  0.18213061  0.44134597  0.42966810  1
  Zn  Zn124  1  0.19366008  0.43629730  0.92182786  1
  Zn  Zn125  1  0.19406236  0.93271796  0.43247349  1
  Zn  Zn126  1  0.18849342  0.93968232  0.94089603  1
  Zn  Zn127  1  0.68651231  0.43482835  0.44050747  1
  Zn  Zn128  1  0.68331616  0.44003486  0.94468567  1
  Zn  Zn129  1  0.69602106  0.93992656  0.44424891  1
  Zn  Zn130  1  0.69122916  0.93543269  0.94193583  1
  Zn  Zn131  1  0.31897419  0.06577924  0.05678010  1
  Zn  Zn132  1  0.31492951  0.06366868  0.56046814  1
  Zn  Zn133  1  0.31285449  0.56269243  0.06398194  1
  Zn  Zn134  1  0.30860670  0.56143129  0.56326055  1
  Zn  Zn135  1  0.81941304  0.05887657  0.06217633  1
  Zn  Zn136  1  0.81220007  0.06106973  0.56506523  1
  Zn  Zn137  1  0.80454755  0.56229070  0.06442571  1
  Zn  Zn138  1  0.81283244  0.56135231  0.56372264  1
  Zn  Zn139  1  0.43262710  0.42713581  0.21576384  1
  Zn  Zn140  1  0.43833251  0.44304074  0.69422440  1
  Zn  Zn141  1  0.43130614  0.94090043  0.18247297  1
  Zn  Zn142  1  0.43314582  0.93668217  0.68111746  1
  Zn  Zn143  1  0.93630473  0.43775835  0.18509771  1
  Zn  Zn144  1  0.93055353  0.44008845  0.69107082  1
  Zn  Zn145  1  0.96890186  0.92227264  0.17727491  1
  Zn  Zn146  1  0.93748075  0.93591620  0.69108121  1
  Zn  Zn147  1  0.08984738  0.02787933  0.32657961  1
  Zn  Zn148  1  0.06372239  0.06504162  0.81202769  1
  Zn  Zn149  1  0.06272314  0.56517668  0.31448100  1
  Zn  Zn150  1  0.06091772  0.56112047  0.81541420  1
  Zn  Zn151  1  0.56345540  0.08851440  0.30937628  1
  Zn  Zn152  1  0.56368038  0.06613089  0.81229133  1
  Zn  Zn153  1  0.56441697  0.55751289  0.31303557  1
  Zn  Zn154  1  0.56169317  0.57064400  0.81502685  1
  Zn  Zn155  1  0.44126994  0.19570031  0.44368293  1
  Zn  Zn156  1  0.43594264  0.18477631  0.93881432  1
  Zn  Zn157  1  0.43132686  0.68285432  0.42979689  1
  Zn  Zn158  1  0.43639189  0.69760991  0.93445250  1
  Zn  Zn159  1  0.93957029  0.18561894  0.44083411  1
  Zn  Zn160  1  0.92871795  0.18332358  0.94349358  1
  Zn  Zn161  1  0.92886328  0.68064196  0.43902407  1
  Zn  Zn162  1  0.93514861  0.69239786  0.93595292  1
  Zn  Zn163  1  0.05834638  0.30885173  0.05855030  1
  Zn  Zn164  1  0.06677484  0.31835470  0.54791536  1
  Zn  Zn165  1  0.06530727  0.81863997  0.06867171  1
  Zn  Zn166  1  0.06361984  0.80897889  0.56525215  1
  Zn  Zn167  1  0.56423096  0.31431474  0.06331251  1
  Zn  Zn168  1  0.56511767  0.30947697  0.56599748  1
  Zn  Zn169  1  0.56114154  0.81551413  0.06700441  1
  Zn  Zn170  1  0.56082207  0.80929930  0.56250888  1
  O  O171  1  0.10967487  0.12879872  0.12068081  1
  O  O172  1  0.12491066  0.11684924  0.61254623  1
  O  O173  1  0.11637274  0.61955981  0.11352072  1
  O  O174  1  0.11431482  0.61467284  0.60637048  1
  O  O175  1  0.62042306  0.10813584  0.12976294  1
  O  O176  1  0.61819991  0.12722863  0.61921212  1
  O  O177  1  0.61843760  0.61900791  0.11211207  1
  O  O178  1  0.62109896  0.61427142  0.61814884  1
  O  O179  1  0.39094751  0.39737430  0.32473462  1
  O  O180  1  0.39008113  0.38452952  0.88542366  1
  O  O181  1  0.37678674  0.88142247  0.38740717  1
  O  O182  1  0.37404417  0.88605575  0.88252729  1
  O  O183  1  0.87922779  0.37796467  0.37365981  1
  O  O184  1  0.88005647  0.37761533  0.88783058  1
  O  O185  1  0.86757241  0.88485699  0.38795964  1
  O  O186  1  0.87599545  0.88503605  0.87218793  1
  O  O187  1  0.25904241  0.02013390  0.37819402  1
  O  O188  1  0.25891981  0.00339627  0.86877217  1
  O  O189  1  0.25143736  0.49488857  0.35678419  1
  O  O190  1  0.26179170  0.52217849  0.88371458  1
  O  O191  1  0.76148069  0.00510131  0.37142564  1
  O  O192  1  0.75624339  0.00404194  0.87193653  1
  O  O193  1  0.76008055  0.49607719  0.37281857  1
  O  O194  1  0.74534786  0.50732199  0.87014108  1
  O  O195  1  0.23699657  0.49150035  0.11917089  1
  O  O196  1  0.24816241  0.49976705  0.63137970  1
  O  O197  1  0.26304275  0.99287541  0.12332543  1
  O  O198  1  0.24426547  1.00027732  0.63262350  1
  O  O199  1  0.72765883  0.50802980  0.12641309  1
  O  O200  1  0.74280832  0.49395913  0.63305728  1
  O  O201  1  0.74624037  0.99271031  0.12877755  1
  O  O202  1  0.74962115  0.99118732  0.63480901  1
  O  O203  1  0.00250718  0.37322614  0.25688689  1
  O  O204  1  -0.01365325  0.37668813  0.77074619  1
  O  O205  1  -0.02168111  0.85133077  0.26714416  1
  O  O206  1  -0.00286385  0.86548512  0.76243625  1
  O  O207  1  0.52101273  0.35402614  0.23651349  1
  O  O208  1  0.49539301  0.36379725  0.76106214  1
  O  O209  1  0.50437455  0.87237329  0.24887185  1
  O  O210  1  0.50105286  0.86553664  0.74072673  1
  O  O211  1  0.50172177  0.13840309  0.23178854  1
  O  O212  1  0.49605891  0.13799813  0.74622868  1
  O  O213  1  0.49905850  0.63134235  0.24851704  1
  O  O214  1  0.48822723  0.62975694  0.74508969  1
  O  O215  1  0.99024901  0.11891588  0.24128544  1
  O  O216  1  0.98548109  0.11642016  0.74454518  1
  O  O217  1  0.98763308  0.62830946  0.24478031  1
  O  O218  1  0.98430416  0.63251502  0.75602622  1
  O  O219  1  0.36911933  0.25707728  0.00748675  1
  O  O220  1  0.37167690  0.25470370  0.51457944  1
  O  O221  1  0.37143354  0.76069955  0.00539449  1
  O  O222  1  0.37082758  0.75809474  0.50299806  1
  O  O223  1  0.86142899  0.25803730  0.00205441  1
  O  O224  1  0.87152936  0.24755694  0.51563641  1
  O  O225  1  0.86240973  0.74236462  0.01074275  1
  O  O226  1  0.86765479  0.75488705  0.50632895  1
  O  O227  1  0.13480937  0.24227577  0.49201737  1
  O  O228  1  0.14178257  0.24961823  1.00138265  1
  O  O229  1  0.14292420  0.75538250  0.50150277  1
  O  O230  1  0.13224261  0.74560543  1.00899379  1
  O  O231  1  0.62666759  0.24242265  0.49371673  1
  O  O232  1  0.63003745  0.25286026  0.98769473  1
  O  O233  1  0.63117829  0.74154227  0.49815386  1
  O  O234  1  0.62698481  0.74231772  0.99751879  1
  O  O235  1  0.49557449  0.24159868  0.12360399  1
  O  O236  1  0.49329961  0.24575202  0.63375415  1
  O  O237  1  0.49437417  0.75540468  0.13976605  1
  O  O238  1  0.49372356  0.74250617  0.63110397  1
  O  O239  1  0.99308820  0.23891159  0.12411271  1
  O  O240  1  0.99224386  0.24399020  0.62389773  1
  O  O241  1  0.98891834  0.74181300  0.12673860  1
  O  O242  1  0.99192024  0.74942390  0.63534954  1
  O  O243  1  0.00560684  0.25542780  0.37317266  1
  O  O244  1  -0.00816890  0.26022076  0.88226013  1
  O  O245  1  -0.00261257  0.73794192  0.36783073  1
  O  O246  1  -0.00299155  0.76353885  0.86886884  1
  O  O247  1  0.51109775  0.24092786  0.36370653  1
  O  O248  1  0.50579893  0.25396166  0.87096885  1
  O  O249  1  0.50002832  0.74802328  0.35585946  1
  O  O250  1  0.50702882  0.75106919  0.86257067  1
  O  O251  1  0.24751786  0.13578567  0.49430715  1
  O  O252  1  0.25139281  0.13166663  0.99153111  1
  O  O253  1  0.25703393  0.64538331  0.49734293  1
  O  O254  1  0.24101254  0.63483605  0.99868818  1
  O  O255  1  0.74413731  0.12607981  0.49688251  1
  O  O256  1  0.75770845  0.13045411  0.98789407  1
  O  O257  1  0.74004691  0.63146986  0.50174034  1
  O  O258  1  0.73924911  0.63591418  0.99647733  1
  O  O259  1  0.26103358  0.36806247  0.00034172  1
  O  O260  1  0.24543203  0.36493628  0.49103665  1
  O  O261  1  0.25949526  0.86911421  -0.00455602  1
  O  O262  1  0.25960246  0.86472738  0.50049249  1
  O  O263  1  0.75482636  0.36451920  -0.00598607  1
  O  O264  1  0.74985757  0.37307908  0.51741293  1
  O  O265  1  0.74744159  0.86145116  0.01257181  1
  O  O266  1  0.76010261  0.86763907  0.50879757  1
  O  O267  1  0.12944880  0.49406464  0.23778231  1
  O  O268  1  0.13945761  0.53081672  0.74387993  1
  O  O269  1  0.16567558  1.03099832  0.23872501  1
  O  O270  1  0.13599443  1.00809236  0.73999255  1
  O  O271  1  0.62801388  0.48832319  0.24476574  1
  O  O272  1  0.63538944  0.50989151  0.74347764  1
  O  O273  1  0.62731127  0.99351524  0.24981066  1
  O  O274  1  0.63919042  1.00572355  0.74904833  1
  O  O275  1  0.36056831  -0.00055776  0.25118765  1
  O  O276  1  0.37116000  0.00304804  0.75569730  1
  O  O277  1  0.35205932  0.51059161  0.21631676  1
  O  O278  1  0.37050153  0.50900216  0.76334925  1
  O  O279  1  0.87325818  0.00286747  0.25896562  1
  O  O280  1  0.86532314  0.00542914  0.75724172  1
  O  O281  1  0.87133352  0.50459024  0.25418219  1
  O  O282  1  0.85991814  0.51046167  0.75392311  1
  O  O283  1  0.11463349  0.36722468  0.36564844  1
  O  O284  1  0.09970131  0.37410545  0.88865928  1
  O  O285  1  0.11693082  0.91826629  0.35452199  1
  O  O286  1  0.11632357  0.87682650  0.87170223  1
  O  O287  1  0.63061336  0.36234909  0.36757417  1
  O  O288  1  0.61376649  0.37047050  0.88069392  1
  O  O289  1  0.62554757  0.87580537  0.37507776  1
  O  O290  1  0.63021483  0.86154088  0.87957037  1
  O  O291  1  0.38638898  0.13468365  0.11878614  1
  O  O292  1  0.38317407  0.13326639  0.62971497  1
  O  O293  1  0.37495674  0.64172459  0.11884468  1
  O  O294  1  0.37981228  0.63164080  0.63293321  1
  O  O295  1  0.87903846  0.12743428  0.13379892  1
  O  O296  1  0.87942711  0.12974015  0.63301283  1
  O  O297  1  0.87707158  0.63076218  0.13108234  1
  O  O298  1  0.87289134  0.63227312  0.63575373  1
  O  O299  1  0.25777003  0.25022143  0.11923521  1
  O  O300  1  0.26536212  0.24754267  0.61820713  1
  O  O301  1  0.25804270  0.75068078  0.11441189  1
  O  O302  1  0.26374425  0.75018567  0.62234805  1
  O  O303  1  0.74540894  0.24088755  0.11127601  1
  O  O304  1  0.75334999  0.25749747  0.62969020  1
  O  O305  1  0.75256068  0.75522307  0.12111854  1
  O  O306  1  0.75260494  0.75494661  0.61709627  1
  O  O307  1  0.25139122  0.24563371  0.38295050  1
  O  O308  1  0.25929921  0.23833897  0.88309506  1
  O  O309  1  0.25390567  0.75392482  0.38154492  1
  O  O310  1  0.25950704  0.74047691  0.89143666  1
  O  O311  1  0.74359536  0.24206969  0.38009593  1
  O  O312  1  0.74317245  0.24207256  0.88002023  1
  O  O313  1  0.74899660  0.74929983  0.38856913  1
  O  O314  1  0.74271119  0.74587601  0.88372849  1
  O  O315  1  0.00117128  0.11825440  0.00412113  1
  O  O316  1  0.01126259  0.11911161  0.50752095  1
  O  O317  1  0.00421523  0.62054478  0.00061917  1
  O  O318  1  -0.00599151  0.61253801  0.50081605  1
  O  O319  1  0.49829608  0.11376033  0.00859848  1
  O  O320  1  0.51009520  0.13163872  0.51196344  1
  O  O321  1  0.50995309  0.63151418  -0.00439969  1
  O  O322  1  0.50925141  0.62403741  0.50574315  1
  O  O323  1  0.50382549  0.38588475  0.50548829  1
  O  O324  1  0.48998789  0.37095465  0.99385217  1
  O  O325  1  0.48788419  0.87288568  0.50221204  1
  O  O326  1  0.49376430  0.88850197  1.00215677  1
  O  O327  1  0.99075528  0.37729587  0.48276695  1
  O  O328  1  0.98833213  0.38210164  0.99464152  1
  O  O329  1  0.98791927  0.87845137  0.50722023  1
  O  O330  1  1.00186221  0.88015603  0.98337147  1
  O  O331  1  0.50627004  0.49956325  0.39386281  1
  O  O332  1  0.49400390  0.49399901  0.86950443  1
  O  O333  1  0.50849235  0.99595996  0.35751163  1
  O  O334  1  0.49382493  1.00605733  0.88076688  1
  O  O335  1  0.98590164  0.49086871  0.37602568  1
  O  O336  1  0.99347431  0.49831622  0.88627552  1
  O  O337  1  0.98737676  1.01149720  0.38512564  1
  O  O338  1  0.99455259  0.98843512  0.87514025  1
  O  O339  1  -0.01938962  0.01229064  0.10812710  1
  O  O340  1  0.00705853  0.00538325  0.62117756  1
  O  O341  1  0.00212172  0.50559828  0.11267069  1
  O  O342  1  -0.01268234  0.49995817  0.61308183  1
  O  O343  1  0.50718383  0.00509343  0.11812450  1
  O  O344  1  0.50186831  0.01671673  0.63518135  1
  O  O345  1  0.51410778  0.49260766  0.14003782  1
  O  O346  1  0.50672937  0.50466160  0.62073007  1
  O  O347  1  0.23911099  0.37954699  0.23661939  1
  O  O348  1  0.23642159  0.38074192  0.80814522  1
  O  O349  1  0.24711535  0.88292969  0.24429480  1
  O  O350  1  0.25663357  0.88615573  0.74802055  1
  O  O351  1  0.73992438  0.36916243  0.24659709  1
  O  O352  1  0.75372568  0.38514924  0.74291605  1
  O  O353  1  0.75586063  0.87793377  0.23901918  1
  O  O354  1  0.75371830  0.88280227  0.74145002  1
  O  O355  1  0.26336023  0.14193080  0.27011977  1
  O  O356  1  0.26044041  0.11403669  0.75615365  1
  O  O357  1  0.24601095  0.61679649  0.24505348  1
  O  O358  1  0.26758725  0.64196641  0.76390359  1
  O  O359  1  0.76054705  0.11415847  0.25615121  1
  O  O360  1  0.75934222  0.11716082  0.75941890  1
  O  O361  1  0.76066447  0.62432554  0.25123208  1
  O  O362  1  0.75499127  0.62183956  0.75767961  1
  O  O363  1  0.37240760  0.12375359  0.38420315  1
  O  O364  1  0.36843702  0.11380923  0.87081784  1
  O  O365  1  0.36727625  0.61257503  0.36620533  1
  O  O366  1  0.37455410  0.62105040  0.87190533  1
  O  O367  1  0.87175578  0.11928692  0.36930798  1
  O  O368  1  0.86868450  0.11667091  0.86746591  1
  O  O369  1  0.86842416  0.61370371  0.36591433  1
  O  O370  1  0.86256382  0.62560539  0.87024881  1
  O  O371  1  0.12584774  0.37830993  0.12499551  1
  O  O372  1  0.10796100  0.37648901  0.63203853  1
  O  O373  1  0.07965792  0.89152511  0.15046328  1
  O  O374  1  0.12723041  0.88842598  0.62184449  1
  O  O375  1  0.62775672  0.38590332  0.12653199  1
  O  O376  1  0.62989985  0.38651365  0.62742662  1
  O  O377  1  0.63478641  0.88711744  0.12453894  1
  O  O378  1  0.63827802  0.87573899  0.61752680  1
  O  O379  1  0.12225996  0.25334815  0.25499258  1
  O  O380  1  0.12040322  0.22975717  0.75348977  1
  O  O381  1  0.10487669  0.74876150  0.24699725  1
  O  O382  1  0.11251037  0.73518272  0.74376149  1
  O  O383  1  0.62360922  0.24993801  0.25818955  1
  O  O384  1  0.61725886  0.24851309  0.76346193  1
  O  O385  1  0.61348138  0.74485933  0.25031945  1
  O  O386  1  0.61472164  0.74237304  0.76026538  1
  O  O387  1  0.38492051  0.25530912  0.23531744  1
  O  O388  1  0.38206346  0.24455814  0.74303209  1
  O  O389  1  0.38470227  0.74857133  0.24156505  1
  O  O390  1  0.38374561  0.74757118  0.74229198  1
  O  O391  1  0.87713269  0.23651924  0.24861277  1
  O  O392  1  0.86881013  0.23957167  0.74026801  1
  O  O393  1  0.87951608  0.73860030  0.24431752  1
  O  O394  1  0.87513531  0.74305285  0.74648122  1
  O  O395  1  0.39120553  0.50192013  0.50166883  1
  O  O396  1  0.37426118  0.49325540  0.99170701  1
  O  O397  1  0.37598767  0.98634742  0.50061017  1
  O  O398  1  0.38411808  0.99409072  0.99074628  1
  O  O399  1  0.87834665  0.49608853  0.49041862  1
  O  O400  1  0.87820172  0.49499641  1.00050829  1
  O  O401  1  0.88017115  0.99220314  0.49639912  1
  O  O402  1  0.88549903  1.00420768  0.98449379  1
  O  O403  1  0.10945503  0.00310339  -0.00525779  1
  O  O404  1  0.12469877  0.00680460  0.50697001  1
  O  O405  1  0.11565908  0.50696717  0.00042835  1
  O  O406  1  0.10367676  0.48957584  0.49635209  1
  O  O407  1  0.61916337  -0.00189893  0.00648687  1
  O  O408  1  0.62950164  0.01332138  0.50428060  1
  O  O409  1  0.61888660  0.51201637  0.00919111  1
  O  O410  1  0.61832263  0.50505727  0.50879477  1
  O  O411  1  0.36996437  0.36734567  0.11819756  1
  O  O412  1  0.37831078  0.36254447  0.63664070  1
  O  O413  1  0.37977265  0.86609424  0.11153945  1
  O  O414  1  0.37255560  0.86729339  0.61272311  1
  O  O415  1  0.87574930  0.37215098  0.11328132  1
  O  O416  1  0.86639750  0.36537584  0.62702107  1
  O  O417  1  0.87037626  0.86118872  0.12820861  1
  O  O418  1  0.86587517  0.87015190  0.62024311  1
  O  O419  1  0.13515519  0.12684665  0.38596443  1
  O  O420  1  0.14197981  0.11804374  0.87783342  1
  O  O421  1  0.13296697  0.61569343  0.38241407  1
  O  O422  1  0.13284893  0.62651759  0.88912852  1
  O  O423  1  0.63427214  0.13369315  0.38448030  1
  O  O424  1  0.63634065  0.13342670  0.87289983  1
  O  O425  1  0.62813822  0.62538915  0.38477097  1
  O  O426  1  0.62915517  0.63222939  0.88761154  1
