# generated using pymatgen
data_V85Zn86O256
_symmetry_space_group_name_H-M   'P 1'
_cell_length_a   16.95652033
_cell_length_b   16.94722005
_cell_length_c   16.95186194
_cell_angle_alpha   89.99355778
_cell_angle_beta   90.04280086
_cell_angle_gamma   89.93282367
_symmetry_Int_Tables_number   1
_chemical_formula_structural   V85Zn86O256
_chemical_formula_sum   'V85 Zn86 O256'
_cell_volume   4871.38200622
_cell_formula_units_Z   1
loop_
 _symmetry_equiv_pos_site_id
 _symmetry_equiv_pos_as_xyz
  1  'x, y, z'
loop_
 _atom_site_type_symbol
 _atom_site_label
 _atom_site_symmetry_multiplicity
 _atom_site_fract_x
 _atom_site_fract_y
 _atom_site_fract_z
 _atom_site_occupancy
  V  V0  1  0.62351139  0.49979605  0.61874731  1
  V  V1  1  0.24679326  0.37693524  0.62519982  1
  V  V2  1  0.37281910  0.36360100  0.00324157  1
  V  V3  1  0.00096099  0.37816615  0.37531953  1
  V  V4  1  0.49641748  -0.01113911  0.49176202  1
  V  V5  1  0.36537799  0.50353830  0.36678946  1
  V  V6  1  0.13409922  0.37960663  0.25048113  1
  V  V7  1  0.87465994  0.00290222  0.87294933  1
  V  V8  1  0.25233497  0.62997097  0.87610817  1
  V  V9  1  0.73732552  0.87990143  0.12919193  1
  V  V10  1  0.74083745  0.74991690  -0.00138486  1
  V  V11  1  0.62474289  0.37122213  0.75118254  1
  V  V12  1  0.87425569  0.87444811  0.00255502  1
  V  V13  1  0.00198754  0.00127594  0.50049530  1
  V  V14  1  0.37474372  0.12821988  0.24963310  1
  V  V15  1  0.62676085  0.86462229  0.75163274  1
  V  V16  1  0.12557878  -0.00026325  0.12458449  1
  V  V17  1  0.25011526  -0.01659024  0.74704091  1
  V  V18  1  0.49989238  0.38185791  0.37781203  1
  V  V19  1  -0.00630462  0.13098915  0.12337290  1
  V  V20  1  0.12789705  0.24965922  0.37458780  1
  V  V21  1  -0.00426056  0.25359424  0.24657840  1
  V  V22  1  0.50262042  0.25014515  0.75568102  1
  V  V23  1  0.73856484  0.25075570  0.00081067  1
  V  V24  1  0.61851504  0.76940967  0.36701473  1
  V  V25  1  0.00446216  0.50558964  0.51712274  1
  V  V26  1  0.12905934  0.86933627  0.24853515  1
  V  V27  1  0.87435694  0.49903364  0.87906935  1
  V  V28  1  0.74357083  0.62839808  0.87657540  1
  V  V29  1  0.49417167  0.10732888  0.11891173  1
  V  V30  1  0.00126370  0.62340380  0.12853333  1
  V  V31  1  0.61920629  0.11241138  0.00225911  1
  V  V32  1  0.13834011  0.50253439  0.12673553  1
  V  V33  1  0.25549161  0.12976963  0.87942194  1
  V  V34  1  0.87568609  0.36522753  0.00612779  1
  V  V35  1  0.87754277  0.50553149  0.37541594  1
  V  V36  1  0.38124163  -0.00759861  0.88566323  1
  V  V37  1  0.37517239  0.63725641  0.24087689  1
  V  V38  1  0.87616193  0.62228759  0.74782015  1
  V  V39  1  0.75612357  0.50218317  0.24909431  1
  V  V40  1  0.74791489  0.62751261  0.37114521  1
  V  V41  1  0.25198719  0.50412483  0.74822824  1
  V  V42  1  0.49212093  0.74623879  0.74604715  1
  V  V43  1  0.74226389  0.13040579  0.87568306  1
  V  V44  1  0.37358073  0.12303455  0.74953451  1
  V  V45  1  0.00166826  0.37390798  0.87769501  1
  V  V46  1  0.61792800  0.62339816  0.49423385  1
  V  V47  1  0.75630386  0.87672896  0.62328570  1
  V  V48  1  0.35826997  0.86144349  0.50629597  1
  V  V49  1  0.74940472  0.49775756  0.75076003  1
  V  V50  1  0.49375404  0.25307428  0.23562174  1
  V  V51  1  0.87492127  0.74340005  0.62116511  1
  V  V52  1  0.50516550  0.87125319  0.88470714  1
  V  V53  1  0.24957147  -0.00014423  0.25522743  1
  V  V54  1  0.74983544  0.12817971  0.37207709  1
  V  V55  1  0.00410158  0.87523291  0.87436584  1
  V  V56  1  0.50473885  0.37373935  0.87564182  1
  V  V57  1  0.87496681  0.74423975  0.12544969  1
  V  V58  1  0.37535423  0.50246946  0.87355858  1
  V  V59  1  -0.00037565  0.49933537  0.00124906  1
  V  V60  1  0.62530520  0.37218945  0.24921880  1
  V  V61  1  0.62520950  -0.00023018  0.62551592  1
  V  V62  1  -0.00085728  0.00332849  -0.00082525  1
  V  V63  1  -0.00073480  0.74560154  0.24974380  1
  V  V64  1  0.12798298  0.13054704  -0.00029213  1
  V  V65  1  0.12797378  0.12348738  0.50179597  1
  V  V66  1  0.49912279  0.50468007  0.00526847  1
  V  V67  1  0.75144873  0.00139006  0.75012713  1
  V  V68  1  -0.00640527  0.75320226  0.75222449  1
  V  V69  1  0.75428292  0.36387664  0.12949059  1
  V  V70  1  0.87347530  0.13122026  0.74456278  1
  V  V71  1  0.12969823  0.74905851  0.87538424  1
  V  V72  1  0.50024217  0.12475147  0.62185883  1
  V  V73  1  0.62060897  0.24913828  0.37690268  1
  V  V74  1  -0.00032130  0.87475114  0.37255321  1
  V  V75  1  0.62388789  0.50747287  0.12735450  1
  V  V76  1  0.37918481  0.38037149  0.50034778  1
  V  V77  1  0.75296471  0.25096869  0.50576516  1
  V  V78  1  0.25334016  0.24863073  0.50094186  1
  V  V79  1  0.12558083  0.37605261  0.74803123  1
  V  V80  1  0.87551034  0.00484643  0.37194193  1
  V  V81  1  0.25340159  0.36043878  0.12025379  1
  V  V82  1  0.87616502  0.37326883  0.50832186  1
  V  V83  1  0.13091250  0.25166751  0.87815002  1
  V  V84  1  -0.00265599  0.13532248  0.62272718  1
  Zn  Zn85  1  0.75300157  0.37005374  0.62882161  1
  Zn  Zn86  1  0.24561133  0.74121407  0.51214957  1
  Zn  Zn87  1  0.49491991  0.77351469  0.24870081  1
  Zn  Zn88  1  0.62466504  0.12606269  0.50085937  1
  Zn  Zn89  1  0.74989776  0.75054453  0.49580130  1
  Zn  Zn90  1  -0.00330683  0.25224985  0.74806881  1
  Zn  Zn91  1  0.23895657  0.62505598  0.37909184  1
  Zn  Zn92  1  0.25847073  0.12054784  0.37883066  1
  Zn  Zn93  1  0.87348190  0.87221714  0.49492388  1
  Zn  Zn94  1  0.24677314  0.86185533  0.10044179  1
  Zn  Zn95  1  0.49763772  0.62963926  0.62104699  1
  Zn  Zn96  1  0.37789785  0.25460338  0.62762951  1
  Zn  Zn97  1  0.12850659  0.62666405  0.00024258  1
  Zn  Zn98  1  0.12323810  0.62227375  0.53198208  1
  Zn  Zn99  1  0.75181297  -0.00773562  0.24742296  1
  Zn  Zn100  1  0.37529530  0.75660445  0.10228746  1
  Zn  Zn101  1  0.12053202  0.74075132  0.39102397  1
  Zn  Zn102  1  0.41892608  -0.04523337  0.33624408  1
  Zn  Zn103  1  0.62164596  0.62777174  0.00253137  1
  Zn  Zn104  1  0.13639673  -0.01156914  0.62797348  1
  Zn  Zn105  1  0.87348485  0.13193047  0.24451354  1
  Zn  Zn106  1  0.33133139  0.67847156  0.68250082  1
  Zn  Zn107  1  0.18491476  0.18694916  0.18880890  1
  Zn  Zn108  1  0.18681070  0.18676336  0.68764327  1
  Zn  Zn109  1  0.19743527  0.68542821  0.19247419  1
  Zn  Zn110  1  0.16665606  0.71844624  0.67519709  1
  Zn  Zn111  1  0.64942429  0.13955663  0.21809115  1
  Zn  Zn112  1  0.68591253  0.18890802  0.68751525  1
  Zn  Zn113  1  0.68751515  0.69022272  0.19068112  1
  Zn  Zn114  1  0.69006137  0.68546385  0.68396679  1
  Zn  Zn115  1  0.31348127  0.31210723  0.31205737  1
  Zn  Zn116  1  0.31685101  0.31435357  0.81382644  1
  Zn  Zn117  1  0.30555262  0.80709384  0.32460068  1
  Zn  Zn118  1  0.30992639  0.81214236  0.94015310  1
  Zn  Zn119  1  0.81350166  0.31458578  0.31880813  1
  Zn  Zn120  1  0.81212948  0.31063361  0.81720151  1
  Zn  Zn121  1  0.81458590  0.80953865  0.30956654  1
  Zn  Zn122  1  0.81290694  0.81280601  0.81439464  1
  Zn  Zn123  1  0.18584315  0.44105548  0.44119872  1
  Zn  Zn124  1  0.18935826  0.43992124  0.93956489  1
  Zn  Zn125  1  0.18813847  0.93196817  0.43657127  1
  Zn  Zn126  1  0.18257003  0.94899604  0.92487305  1
  Zn  Zn127  1  0.68894847  0.43712242  0.43733966  1
  Zn  Zn128  1  0.68645282  0.43867710  0.93907569  1
  Zn  Zn129  1  0.68948257  0.94311304  0.44205319  1
  Zn  Zn130  1  0.68664013  0.93716759  0.93758452  1
  Zn  Zn131  1  0.31087213  0.05994991  0.06525515  1
  Zn  Zn132  1  0.31726834  0.05790550  0.56531680  1
  Zn  Zn133  1  0.31575711  0.56747372  0.05876773  1
  Zn  Zn134  1  0.31124892  0.56015586  0.55548102  1
  Zn  Zn135  1  0.81060924  0.06406844  0.06116488  1
  Zn  Zn136  1  0.81679280  0.06450944  0.56062520  1
  Zn  Zn137  1  0.81205555  0.56149363  0.06449169  1
  Zn  Zn138  1  0.80779222  0.56099995  0.55992199  1
  Zn  Zn139  1  0.43565015  0.43802780  0.18722164  1
  Zn  Zn140  1  0.41951515  0.47343951  0.66751826  1
  Zn  Zn141  1  0.42954689  0.92870095  0.16767027  1
  Zn  Zn142  1  0.43695512  0.93444307  0.68838086  1
  Zn  Zn143  1  0.93890025  0.43770720  0.18801650  1
  Zn  Zn144  1  0.93587484  0.43380861  0.69080966  1
  Zn  Zn145  1  0.93662452  0.93814573  0.18742908  1
  Zn  Zn146  1  0.96269395  0.92655143  0.67342139  1
  Zn  Zn147  1  0.06478169  0.06557715  0.31180446  1
  Zn  Zn148  1  0.06480664  0.06357599  0.80831952  1
  Zn  Zn149  1  0.06451123  0.56241853  0.31232741  1
  Zn  Zn150  1  0.08730452  0.58703597  0.75266143  1
  Zn  Zn151  1  0.57906998  -0.04613619  0.29084352  1
  Zn  Zn152  1  0.56345065  0.05905534  0.81308423  1
  Zn  Zn153  1  0.55891627  0.56334551  0.31068440  1
  Zn  Zn154  1  0.56337009  0.56003152  0.81175908  1
  Zn  Zn155  1  0.43799112  0.18757011  0.43330107  1
  Zn  Zn156  1  0.43969227  0.18677414  0.93712062  1
  Zn  Zn157  1  0.43862780  0.69154846  0.43352172  1
  Zn  Zn158  1  0.44618497  0.68442573  0.92463062  1
  Zn  Zn159  1  0.93845569  0.19067153  0.43541101  1
  Zn  Zn160  1  0.93609069  0.19011551  0.93453634  1
  Zn  Zn161  1  0.94047452  0.68362067  0.43880493  1
  Zn  Zn162  1  0.93545375  0.68509673  0.93856481  1
  Zn  Zn163  1  0.06773079  0.31284007  0.06384143  1
  Zn  Zn164  1  0.06399521  0.31493154  0.56131648  1
  Zn  Zn165  1  0.06770404  0.81209684  0.05832793  1
  Zn  Zn166  1  0.06291624  0.81710375  0.56575856  1
  Zn  Zn167  1  0.56633708  0.31797292  0.06138619  1
  Zn  Zn168  1  0.56278877  0.31307058  0.56552922  1
  Zn  Zn169  1  0.55634705  0.80922194  0.06993475  1
  Zn  Zn170  1  0.56587123  0.80978470  0.56137747  1
  O  O171  1  0.11605221  0.11905840  0.12001782  1
  O  O172  1  0.11576589  0.12061626  0.61927738  1
  O  O173  1  0.11932702  0.61767393  0.12446082  1
  O  O174  1  0.11603684  0.62296584  0.64982241  1
  O  O175  1  0.60226230  0.13645018  0.11408301  1
  O  O176  1  0.61707602  0.11862053  0.62560095  1
  O  O177  1  0.63324970  0.61114688  0.12533283  1
  O  O178  1  0.63044044  0.61818397  0.61236091  1
  O  O179  1  0.38140133  0.38018138  0.37916580  1
  O  O180  1  0.38575973  0.38052534  0.88331958  1
  O  O181  1  0.36625804  0.87762141  0.39712897  1
  O  O182  1  0.38899434  0.88538871  0.87759822  1
  O  O183  1  0.87937067  0.38714325  0.38450392  1
  O  O184  1  0.88112758  0.37977581  0.88415069  1
  O  O185  1  0.88454792  0.88320276  0.37058921  1
  O  O186  1  0.87480832  0.88187264  0.88952012  1
  O  O187  1  0.23891539  0.00372917  0.35996640  1
  O  O188  1  0.26325974  0.00974650  0.86464525  1
  O  O189  1  0.26344962  0.49433214  0.37573007  1
  O  O190  1  0.25724870  0.50191555  0.86835498  1
  O  O191  1  0.75962981  0.01166729  0.37669048  1
  O  O192  1  0.75477253  0.01019385  0.87138948  1
  O  O193  1  0.75607598  0.50498544  0.36750935  1
  O  O194  1  0.75627745  0.50387298  0.87070465  1
  O  O195  1  0.23965549  0.49591126  0.11890726  1
  O  O196  1  0.25282120  0.48414287  0.63388714  1
  O  O197  1  0.23465020  1.00176652  0.13321788  1
  O  O198  1  0.25211904  1.00314219  0.64039181  1
  O  O199  1  0.74665906  0.49277028  0.13360542  1
  O  O200  1  0.74282830  0.49641636  0.63418441  1
  O  O201  1  0.76002475  0.98236903  0.12289586  1
  O  O202  1  0.74712658  0.99516829  0.62810819  1
  O  O203  1  0.01015391  0.37055334  0.25349684  1
  O  O204  1  0.00804324  0.37384343  0.75751957  1
  O  O205  1  0.00818771  0.86968511  0.25339314  1
  O  O206  1  -0.02968976  0.86346952  0.76918240  1
  O  O207  1  0.50532062  0.37044404  0.25744215  1
  O  O208  1  0.50754220  0.36668996  0.75755053  1
  O  O209  1  0.48904163  0.89419872  0.25953856  1
  O  O210  1  0.50966195  0.86677114  0.75218817  1
  O  O211  1  0.49131879  0.13622267  0.23080289  1
  O  O212  1  0.49407166  0.12963309  0.74449727  1
  O  O213  1  0.47683920  0.62100353  0.25898660  1
  O  O214  1  0.51477758  0.64324862  0.75125551  1
  O  O215  1  1.00094957  0.13538706  0.24133379  1
  O  O216  1  0.99201993  0.12504743  0.73997933  1
  O  O217  1  1.00099669  0.63083791  0.23671629  1
  O  O218  1  0.98083475  0.63473971  0.76124103  1
  O  O219  1  0.38026579  0.26456454  -0.00391887  1
  O  O220  1  0.36488643  0.25719958  0.49895451  1
  O  O221  1  0.37356655  0.73615273  -0.01157776  1
  O  O222  1  0.37467515  0.75859358  0.50223416  1
  O  O223  1  0.86556634  0.26116178  -0.00355022  1
  O  O224  1  0.86659500  0.26196552  0.49084964  1
  O  O225  1  0.86838171  0.75729843  0.00650308  1
  O  O226  1  0.87294427  0.75007322  0.50739192  1
  O  O227  1  0.13698703  0.24651480  0.49659822  1
  O  O228  1  0.12253468  0.24580453  0.98666070  1
  O  O229  1  0.11850676  0.74187254  0.50998357  1
  O  O230  1  0.11226927  0.74191573  0.97995682  1
  O  O231  1  0.63213996  0.25186318  0.49344383  1
  O  O232  1  0.63577587  0.24869107  0.99943670  1
  O  O233  1  0.62967586  0.74602455  0.48342880  1
  O  O234  1  0.63780482  0.74698222  1.00739066  1
  O  O235  1  0.49918089  0.26278746  0.13526040  1
  O  O236  1  0.50049759  0.24258028  0.63728308  1
  O  O237  1  0.48831955  0.75801219  0.13655457  1
  O  O238  1  0.50897585  0.74840827  0.63933891  1
  O  O239  1  1.00743277  0.24278766  0.13337444  1
  O  O240  1  1.00239190  0.23969779  0.62480515  1
  O  O241  1  0.99622321  0.74220260  0.12768036  1
  O  O242  1  0.98066505  0.75493735  0.63770974  1
  O  O243  1  0.00913567  0.25870587  0.36986493  1
  O  O244  1  0.00903045  0.25703440  0.87313638  1
  O  O245  1  -0.00273014  0.75735353  0.36648151  1
  O  O246  1  -0.00264893  0.75702835  0.87118090  1
  O  O247  1  0.50623905  0.25808706  0.36774134  1
  O  O248  1  0.49874535  0.25649077  0.86370775  1
  O  O249  1  0.51632720  0.75490707  0.37159822  1
  O  O250  1  0.50595251  0.76442030  0.86233806  1
  O  O251  1  0.24852607  0.13157317  0.50118615  1
  O  O252  1  0.24505842  0.11965049  0.98683397  1
  O  O253  1  0.23805634  0.61950028  0.49978664  1
  O  O254  1  0.24461360  0.61383138  0.98021960  1
  O  O255  1  0.75182401  0.13370590  0.48995798  1
  O  O256  1  0.74259512  0.13306731  0.99677481  1
  O  O257  1  0.74275478  0.62606338  0.48542099  1
  O  O258  1  0.75152533  0.63273421  0.99432673  1
  O  O259  1  0.26059767  0.37822761  0.00747137  1
  O  O260  1  0.25407383  0.36816103  0.50748161  1
  O  O261  1  0.22907747  0.87170554  -0.01257158  1
  O  O262  1  0.25469177  0.87405360  0.50889946  1
  O  O263  1  0.75554656  0.36916919  0.00567367  1
  O  O264  1  0.75933835  0.36904716  0.50070981  1
  O  O265  1  0.75586229  0.86845605  0.00712984  1
  O  O266  1  0.75402497  0.87444301  0.50906065  1
  O  O267  1  0.11795163  0.48954450  0.23839353  1
  O  O268  1  0.13754286  0.48252605  0.75925482  1
  O  O269  1  0.12571748  0.99346605  0.24111095  1
  O  O270  1  0.14608651  1.00734602  0.75344251  1
  O  O271  1  0.63420311  0.49329763  0.24649698  1
  O  O272  1  0.63137380  0.48889543  0.74576260  1
  O  O273  1  0.64566189  1.02909828  0.25039643  1
  O  O274  1  0.63236629  0.99349680  0.74170905  1
  O  O275  1  0.36298803  0.00721718  0.24714005  1
  O  O276  1  0.37010786  0.00661568  0.75673164  1
  O  O277  1  0.37522326  0.49887332  0.26468604  1
  O  O278  1  0.36178758  0.47925846  0.76432909  1
  O  O279  1  0.87334673  0.00555001  0.25954768  1
  O  O280  1  0.86806934  0.01332412  0.75516975  1
  O  O281  1  0.86385642  0.49354108  0.25845637  1
  O  O282  1  0.86984018  0.50429966  0.75651306  1
  O  O283  1  0.12250589  0.37214690  0.36725566  1
  O  O284  1  0.12210981  0.36813890  0.87258388  1
  O  O285  1  0.11117305  0.87377758  0.36715821  1
  O  O286  1  0.10759466  0.87171920  0.87249954  1
  O  O287  1  0.61953964  0.36825334  0.37047144  1
  O  O288  1  0.61268831  0.38095394  0.86855768  1
  O  O289  1  0.63233481  0.87261015  0.36890341  1
  O  O290  1  0.61440922  0.88597222  0.86366904  1
  O  O291  1  0.38474729  0.12141954  0.12989353  1
  O  O292  1  0.38415615  0.12802173  0.63397802  1
  O  O293  1  0.37210510  0.62467472  0.13902126  1
  O  O294  1  0.38792290  0.59101595  0.63373478  1
  O  O295  1  0.88929677  0.12189122  0.12445348  1
  O  O296  1  0.87913420  0.12850039  0.63405179  1
  O  O297  1  0.88207249  0.63714237  0.12014688  1
  O  O298  1  0.86420993  0.63158872  0.63500025  1
  O  O299  1  0.24133903  0.26124893  0.12212901  1
  O  O300  1  0.25402356  0.25792873  0.61899120  1
  O  O301  1  0.25848333  0.75117399  0.12828732  1
  O  O302  1  0.26034110  0.74580866  0.62822802  1
  O  O303  1  0.75013084  0.26288492  0.11723389  1
  O  O304  1  0.74581666  0.24967597  0.61021963  1
  O  O305  1  0.75842963  0.75702101  0.12036113  1
  O  O306  1  0.75933888  0.75891722  0.62303591  1
  O  O307  1  0.24523712  0.24831824  0.38396741  1
  O  O308  1  0.24455111  0.24170279  0.87103256  1
  O  O309  1  0.23816046  0.74645274  0.39034722  1
  O  O310  1  0.24052871  0.74102978  0.86478801  1
  O  O311  1  0.74244158  0.24990005  0.38512650  1
  O  O312  1  0.75244949  0.23800081  0.88499840  1
  O  O313  1  0.74295007  0.74320015  0.37191703  1
  O  O314  1  0.75652512  0.74126142  0.88645154  1
  O  O315  1  0.00487073  0.12368370  0.00517439  1
  O  O316  1  0.00660234  0.12305635  0.50265720  1
  O  O317  1  -0.00038522  0.61552412  0.01025959  1
  O  O318  1  -0.00250134  0.60776799  0.50337460  1
  O  O319  1  0.50378448  0.12763453  0.00978657  1
  O  O320  1  0.50028147  0.12639865  0.51265197  1
  O  O321  1  0.50602567  0.60810971  -0.01030101  1
  O  O322  1  0.51458567  0.63115333  0.49952745  1
  O  O323  1  0.49007914  0.36445478  0.49139855  1
  O  O324  1  0.49656875  0.38313884  0.99246405  1
  O  O325  1  0.50399245  0.88762565  0.50028300  1
  O  O326  1  0.51474842  0.87272409  0.98251469  1
  O  O327  1  0.99337501  0.38101011  0.49491903  1
  O  O328  1  0.99274008  0.37907878  1.00115730  1
  O  O329  1  0.99468229  0.88558993  0.48750761  1
  O  O330  1  0.99254131  0.88119484  0.99375577  1
  O  O331  1  0.49391611  0.48527846  0.37325039  1
  O  O332  1  0.49368978  0.49166257  0.87797362  1
  O  O333  1  0.50940764  1.00547252  0.39067119  1
  O  O334  1  0.48841354  0.98918900  0.86695259  1
  O  O335  1  0.99079877  0.49387707  0.37766458  1
  O  O336  1  0.99410607  0.49233283  0.89268545  1
  O  O337  1  0.99562678  0.99703052  0.38015922  1
  O  O338  1  0.99548905  0.99538793  0.87833112  1
  O  O339  1  0.00859508  0.00675857  0.12067565  1
  O  O340  1  -0.01749405  0.01911010  0.60429080  1
  O  O341  1  0.00456204  0.50598553  0.11831929  1
  O  O342  1  -0.00527152  0.49603933  0.61549907  1
  O  O343  1  0.50194030  0.00998248  0.12335853  1
  O  O344  1  0.50700773  0.00797486  0.62022895  1
  O  O345  1  0.51074314  0.49215600  0.11705091  1
  O  O346  1  0.52110347  0.50247475  0.62868945  1
  O  O347  1  0.23923759  0.36966494  0.24215006  1
  O  O348  1  0.24400486  0.37538223  0.74358308  1
  O  O349  1  0.23577015  0.88107734  0.25543658  1
  O  O350  1  0.25311545  0.88867435  0.75486133  1
  O  O351  1  0.74633831  0.37898067  0.24546650  1
  O  O352  1  0.74331137  0.37738484  0.75229309  1
  O  O353  1  0.75628142  0.87282321  0.23275048  1
  O  O354  1  0.74723000  0.88208538  0.74519927  1
  O  O355  1  0.25675353  0.11857681  0.24828015  1
  O  O356  1  0.26427864  0.12887720  0.75735712  1
  O  O357  1  0.26882345  0.62431750  0.26211833  1
  O  O358  1  0.25844101  0.60874590  0.75702406  1
  O  O359  1  0.75781054  0.14215699  0.26653675  1
  O  O360  1  0.75315381  0.12381765  0.75789665  1
  O  O361  1  0.74797749  0.61594973  0.26062985  1
  O  O362  1  0.75687939  0.61971506  0.75826780  1
  O  O363  1  0.37657242  0.12632991  0.35715164  1
  O  O364  1  0.37296452  0.11819733  0.86874051  1
  O  O365  1  0.37566286  0.60798973  0.38120120  1
  O  O366  1  0.37103475  0.60835561  0.87081708  1
  O  O367  1  0.87067141  0.12011082  0.37214195  1
  O  O368  1  0.86669212  0.11978120  0.87116206  1
  O  O369  1  0.86737210  0.61242658  0.37912730  1
  O  O370  1  0.86503522  0.61673404  0.87144713  1
  O  O371  1  0.13269619  0.38259279  0.13047581  1
  O  O372  1  0.13358234  0.36756391  0.63618136  1
  O  O373  1  0.12427100  0.88253612  0.13147188  1
  O  O374  1  0.07169103  0.89741000  0.64000272  1
  O  O375  1  0.63587951  0.38363467  0.13204008  1
  O  O376  1  0.62931875  0.38072489  0.63310582  1
  O  O377  1  0.63926542  0.87486995  0.12293957  1
  O  O378  1  0.63849877  0.87954354  0.63023657  1
  O  O379  1  0.11703849  0.25789620  0.25564079  1
  O  O380  1  0.12374676  0.25803390  0.76085801  1
  O  O381  1  0.11294911  0.75639328  0.24782498  1
  O  O382  1  0.10127769  0.75838214  0.76175645  1
  O  O383  1  0.61449280  0.25175754  0.25872331  1
  O  O384  1  0.62012808  0.26268295  0.74784929  1
  O  O385  1  0.62334392  0.74912836  0.26484979  1
  O  O386  1  0.63257318  0.76303981  0.74889036  1
  O  O387  1  0.38264038  0.24370720  0.25084434  1
  O  O388  1  0.38524725  0.24248637  0.74983638  1
  O  O389  1  0.37815455  0.74135845  0.26247734  1
  O  O390  1  0.39387345  0.74767558  0.75262848  1
  O  O391  1  0.89219533  0.25499602  0.25722458  1
  O  O392  1  0.87726213  0.23648999  0.75807633  1
  O  O393  1  0.89024438  0.75500361  0.23944236  1
  O  O394  1  0.87384447  0.74006367  0.74589985  1
  O  O395  1  0.37455218  0.48440450  0.48826460  1
  O  O396  1  0.38320524  0.49364977  0.99323170  1
  O  O397  1  0.39331690  1.00341350  0.49863456  1
  O  O398  1  0.37324233  1.00662050  0.98288576  1
  O  O399  1  0.88169577  0.49321865  0.49467636  1
  O  O400  1  0.88009759  0.48992050  0.99948861  1
  O  O401  1  0.88173622  1.00043275  0.48512470  1
  O  O402  1  0.88093276  0.99462276  0.99499433  1
  O  O403  1  0.11696024  0.01046127  0.00457487  1
  O  O404  1  0.11747622  0.00453937  0.50223751  1
  O  O405  1  0.11485203  0.50050929  0.00863448  1
  O  O406  1  0.10698898  0.49482718  0.50356326  1
  O  O407  1  0.63190282  0.01375915  0.00268183  1
  O  O408  1  0.61672961  0.00485781  0.50914901  1
  O  O409  1  0.61892610  0.49808138  0.01143642  1
  O  O410  1  0.63280170  0.50885965  0.50662020  1
  O  O411  1  0.36365512  0.38114827  0.11680590  1
  O  O412  1  0.36999980  0.37592589  0.61560154  1
  O  O413  1  0.36055827  0.87536708  0.10476426  1
  O  O414  1  0.38389337  0.88479972  0.60173577  1
  O  O415  1  0.86706510  0.38007345  0.11748881  1
  O  O416  1  0.87295418  0.37563596  0.61317584  1
  O  O417  1  0.87720080  0.86560584  0.11437760  1
  O  O418  1  0.86587590  0.87051716  0.62413328  1
  O  O419  1  0.12730472  0.13310824  0.38372418  1
  O  O420  1  0.13442004  0.13282371  0.87745196  1
  O  O421  1  0.12107358  0.62418784  0.38206067  1
  O  O422  1  0.13522811  0.63393243  0.86165015  1
  O  O423  1  0.63434051  0.14207073  0.38060912  1
  O  O424  1  0.63240741  0.12145705  0.88317497  1
  O  O425  1  0.63189811  0.62519438  0.37854953  1
  O  O426  1  0.64084100  0.61620878  0.87900586  1
