# generated using pymatgen
data_V85Zn86O256
_symmetry_space_group_name_H-M   'P 1'
_cell_length_a   16.93185285
_cell_length_b   16.93633516
_cell_length_c   16.92257619
_cell_angle_alpha   89.93052804
_cell_angle_beta   90.09179790
_cell_angle_gamma   89.95924036
_symmetry_Int_Tables_number   1
_chemical_formula_structural   V85Zn86O256
_chemical_formula_sum   'V85 Zn86 O256'
_cell_volume   4852.76673685
_cell_formula_units_Z   1
loop_
 _symmetry_equiv_pos_site_id
 _symmetry_equiv_pos_as_xyz
  1  'x, y, z'
loop_
 _atom_site_type_symbol
 _atom_site_label
 _atom_site_symmetry_multiplicity
 _atom_site_fract_x
 _atom_site_fract_y
 _atom_site_fract_z
 _atom_site_occupancy
  V  V0  1  0.24303537  0.74674842  -0.00959657  1
  V  V1  1  0.62476084  0.74359645  0.37447569  1
  V  V2  1  -0.00234336  0.62545166  0.62792367  1
  V  V3  1  0.37458842  -0.00240404  0.87307291  1
  V  V4  1  0.25283696  0.86467434  0.12358674  1
  V  V5  1  0.87059657  0.25578075  0.11879741  1
  V  V6  1  0.23996470  0.61919811  0.86696109  1
  V  V7  1  0.49885131  -0.00011294  0.50400485  1
  V  V8  1  0.49911423  0.13764130  0.62864714  1
  V  V9  1  0.38874594  0.37928698  -0.00174057  1
  V  V10  1  0.50023711  0.37189710  0.37677042  1
  V  V11  1  0.37808602  0.13617870  0.74590461  1
  V  V12  1  0.60882497  0.61524727  0.01128380  1
  V  V13  1  0.74820922  0.00049632  0.24947527  1
  V  V14  1  0.63214636  0.61988995  0.49738790  1
  V  V15  1  0.25075477  0.25528124  -0.00372420  1
  V  V16  1  0.60138775  0.41230757  0.23099933  1
  V  V17  1  0.25261656  0.24804631  0.50291442  1
  V  V18  1  0.75052626  0.12802917  0.37583340  1
  V  V19  1  0.87195144  0.63910752  0.25135349  1
  V  V20  1  -0.01601695  0.37656916  0.87446511  1
  V  V21  1  0.74722312  0.25821564  -0.00598093  1
  V  V22  1  0.00315604  0.63157850  0.12631835  1
  V  V23  1  0.11971755  0.87799761  0.25017070  1
  V  V24  1  0.62960801  0.00085372  0.62753085  1
  V  V25  1  0.75047185  0.74632969  0.49929854  1
  V  V26  1  0.50243692  0.49898414  0.49961269  1
  V  V27  1  0.37388351  0.85956615  0.50707444  1
  V  V28  1  0.87149628  0.36930021  0.49731509  1
  V  V29  1  0.12532968  0.87494120  0.75147846  1
  V  V30  1  0.24839242  0.00049917  0.73646481  1
  V  V31  1  0.75872323  0.86452328  0.12864073  1
  V  V32  1  0.25074322  -0.00061425  0.25096366  1
  V  V33  1  0.50013499  0.12196250  0.12247099  1
  V  V34  1  0.37434418  0.50127724  0.37580961  1
  V  V35  1  0.37503284  0.36960101  0.50586930  1
  V  V36  1  0.00214227  0.75012195  0.76465068  1
  V  V37  1  0.75644231  0.74690876  -0.00452376  1
  V  V38  1  0.00014930  0.25978949  0.24826448  1
  V  V39  1  0.62051354  0.24587097  0.85956260  1
  V  V40  1  0.75527247  0.00117601  0.76907273  1
  V  V41  1  0.12360742  0.37977874  0.75055001  1
  V  V42  1  0.87304899  0.50510860  0.37490171  1
  V  V43  1  0.75435285  0.50303078  0.24499672  1
  V  V44  1  0.49824666  0.63115550  0.62527690  1
  V  V45  1  0.87604353  0.12761130  0.24896300  1
  V  V46  1  0.37316220  0.12477602  0.25090646  1
  V  V47  1  0.62971585  0.13092599  0.49928228  1
  V  V48  1  0.87675984  0.00006591  0.37331587  1
  V  V49  1  0.25322680  0.62966226  0.38081652  1
  V  V50  1  0.37476810  0.25109209  0.12363739  1
  V  V51  1  0.25024721  0.37832384  0.62854398  1
  V  V52  1  0.12629525  0.63091435  0.50061849  1
  V  V53  1  0.37456367  0.62896316  0.74716971  1
  V  V54  1  0.12860847  0.75373757  0.37706670  1
  V  V55  1  0.37701352  0.86655984  -0.00015054  1
  V  V56  1  0.76146919  0.49464556  0.75514157  1
  V  V57  1  0.63312394  0.25426234  0.37092023  1
  V  V58  1  0.37682734  0.50131836  0.87093553  1
  V  V59  1  0.24581889  0.50030462  0.24860510  1
  V  V60  1  0.75137132  0.87514629  0.62661784  1
  V  V61  1  0.12567846  0.12485499  -0.00366918  1
  V  V62  1  0.00141346  0.49851336  0.50075198  1
  V  V63  1  0.74652072  0.36853187  0.62359286  1
  V  V64  1  0.49364011  0.75106239  0.23727645  1
  V  V65  1  0.62449042  -0.00480391  0.12378061  1
  V  V66  1  0.24861557  0.85857110  0.62092113  1
  V  V67  1  0.50285138  0.24455701  0.25098655  1
  V  V68  1  0.00289807  -0.00087825  0.50640625  1
  V  V69  1  0.62981290  0.12437082  -0.00506185  1
  V  V70  1  0.12501726  0.12259820  0.50077533  1
  V  V71  1  0.87686536  0.74892528  0.62761324  1
  V  V72  1  0.25117098  0.12506363  0.87127810  1
  V  V73  1  0.00330870  0.12617861  0.62894491  1
  V  V74  1  0.87627547  0.12492024  0.76311369  1
  V  V75  1  0.12603568  0.00139595  0.11766906  1
  V  V76  1  0.87645863  0.87472292  0.50062463  1
  V  V77  1  0.49970197  0.87389521  0.37758715  1
  V  V78  1  0.87683369  0.24629340  0.62257675  1
  V  V79  1  0.37253463  0.63214560  0.23364199  1
  V  V80  1  0.00184743  0.89224237  0.88468902  1
  V  V81  1  0.62523621  0.49611371  0.63697373  1
  V  V82  1  0.11763857  0.25180057  0.86676736  1
  V  V83  1  -0.00027540  0.12726329  0.11814406  1
  V  V84  1  0.50376004  0.37512689  0.85327168  1
  Zn  Zn85  1  0.62046710  0.87235965  0.24925404  1
  Zn  Zn86  1  0.75081376  0.61198886  0.88355842  1
  Zn  Zn87  1  -0.00372761  0.75888053  0.24992380  1
  Zn  Zn88  1  0.12743489  0.37476862  0.24880976  1
  Zn  Zn89  1  0.37394329  -0.00093554  0.37859143  1
  Zn  Zn90  1  0.62446824  0.86987246  0.75378641  1
  Zn  Zn91  1  0.00167894  0.37475951  0.37393497  1
  Zn  Zn92  1  0.74586667  0.38310097  0.11897490  1
  Zn  Zn93  1  0.00236094  0.87767083  0.37714005  1
  Zn  Zn94  1  0.24835656  0.12498213  0.37573904  1
  Zn  Zn95  1  0.87483945  0.88589656  -0.00819077  1
  Zn  Zn96  1  0.87844268  0.62038932  0.76546290  1
  Zn  Zn97  1  0.11987139  0.62470185  -0.00369542  1
  Zn  Zn98  1  0.24855261  0.37799799  0.12352333  1
  Zn  Zn99  1  0.12443138  0.49905624  0.11720392  1
  Zn  Zn100  1  -0.01033369  0.50071255  -0.01062278  1
  Zn  Zn101  1  0.12472734  0.25120527  0.37389237  1
  Zn  Zn102  1  0.62093528  0.74600193  0.87494307  1
  Zn  Zn103  1  0.50059760  0.87082758  0.87033866  1
  Zn  Zn104  1  0.12882220  0.50239693  0.62896440  1
  Zn  Zn105  1  0.50123474  0.75251471  0.74987533  1
  Zn  Zn106  1  0.49905256  -0.00255598  -0.00299351  1
  Zn  Zn107  1  0.18744506  0.19055610  0.18514279  1
  Zn  Zn108  1  0.18910938  0.19184746  0.68502215  1
  Zn  Zn109  1  0.18547454  0.68833950  0.18928577  1
  Zn  Zn110  1  0.18399221  0.68735053  0.69240545  1
  Zn  Zn111  1  0.68794035  0.18689788  0.18384910  1
  Zn  Zn112  1  0.69525401  0.18342329  0.68610695  1
  Zn  Zn113  1  0.68315792  0.68239828  0.18740690  1
  Zn  Zn114  1  0.68828263  0.68213858  0.69120172  1
  Zn  Zn115  1  0.31109842  0.31189172  0.31669365  1
  Zn  Zn116  1  0.31047584  0.31571981  0.81228090  1
  Zn  Zn117  1  0.31235468  0.81307547  0.31540346  1
  Zn  Zn118  1  0.31358443  0.80805827  0.81110226  1
  Zn  Zn119  1  0.81192683  0.32034955  0.30602246  1
  Zn  Zn120  1  0.80435691  0.30539036  0.80645569  1
  Zn  Zn121  1  0.80583915  0.81737872  0.31654650  1
  Zn  Zn122  1  0.81832609  0.81475064  0.81471231  1
  Zn  Zn123  1  0.18531358  0.43697141  0.43454239  1
  Zn  Zn124  1  0.18284131  0.44129523  0.93810004  1
  Zn  Zn125  1  0.18964945  0.94020614  0.44147351  1
  Zn  Zn126  1  0.18755082  0.93556078  0.93279557  1
  Zn  Zn127  1  0.68976078  0.43733567  0.43289372  1
  Zn  Zn128  1  0.67596358  0.43700808  0.93637945  1
  Zn  Zn129  1  0.68674464  0.93683738  0.43878537  1
  Zn  Zn130  1  0.68382330  0.93042873  0.94104141  1
  Zn  Zn131  1  0.31118287  0.06043833  0.06042247  1
  Zn  Zn132  1  0.31600425  0.06222157  0.56415330  1
  Zn  Zn133  1  0.31166770  0.56050307  0.05602281  1
  Zn  Zn134  1  0.31296347  0.56087389  0.56225427  1
  Zn  Zn135  1  0.80939831  0.06344271  0.05433113  1
  Zn  Zn136  1  0.81387859  0.06330754  0.56210446  1
  Zn  Zn137  1  0.81937119  0.56813287  0.06335417  1
  Zn  Zn138  1  0.81332736  0.55892630  0.56585056  1
  Zn  Zn139  1  0.42992018  0.44042587  0.18870900  1
  Zn  Zn140  1  0.43271518  0.44439816  0.68594237  1
  Zn  Zn141  1  0.43618824  0.93472510  0.18549755  1
  Zn  Zn142  1  0.43576928  0.93833147  0.68754071  1
  Zn  Zn143  1  0.92301689  0.45553775  0.15490684  1
  Zn  Zn144  1  0.94188458  0.43007078  0.68789721  1
  Zn  Zn145  1  0.92139327  0.95888892  0.15234937  1
  Zn  Zn146  1  0.93798234  0.93928779  0.69106376  1
  Zn  Zn147  1  0.06164470  0.06631320  0.31221103  1
  Zn  Zn148  1  0.06524797  0.06145067  0.80796407  1
  Zn  Zn149  1  0.05796108  0.56513252  0.31071925  1
  Zn  Zn150  1  0.05841524  0.55506743  0.81200640  1
  Zn  Zn151  1  0.56256217  0.06088745  0.31386336  1
  Zn  Zn152  1  0.56105453  0.06002713  0.81052789  1
  Zn  Zn153  1  0.55431880  0.56508335  0.30178097  1
  Zn  Zn154  1  0.56445482  0.56630026  0.82003414  1
  Zn  Zn155  1  0.43882405  0.18680679  0.43864233  1
  Zn  Zn156  1  0.44091772  0.18799504  0.93368716  1
  Zn  Zn157  1  0.44191027  0.68563443  0.43571572  1
  Zn  Zn158  1  0.43648698  0.68744287  0.93744045  1
  Zn  Zn159  1  0.93898696  0.18882580  0.43703809  1
  Zn  Zn160  1  0.93843787  0.19347634  0.93904639  1
  Zn  Zn161  1  0.94126769  0.68904799  0.43418004  1
  Zn  Zn162  1  0.92770029  0.68859405  0.94229949  1
  Zn  Zn163  1  0.06413271  0.31721541  0.06006679  1
  Zn  Zn164  1  0.06225908  0.30961807  0.56462371  1
  Zn  Zn165  1  0.06368734  0.80877896  0.06238191  1
  Zn  Zn166  1  0.06575692  0.81237832  0.56770165  1
  Zn  Zn167  1  0.56351871  0.30966351  0.06071661  1
  Zn  Zn168  1  0.56635031  0.31189458  0.56115163  1
  Zn  Zn169  1  0.56631065  0.80910619  0.05490097  1
  Zn  Zn170  1  0.56562399  0.81205809  0.56544173  1
  O  O171  1  0.12141057  0.12131983  0.11702492  1
  O  O172  1  0.11060061  0.13115730  0.62122411  1
  O  O173  1  0.11694343  0.62656109  0.12298532  1
  O  O174  1  0.11638136  0.62453209  0.61866575  1
  O  O175  1  0.62107647  0.11394849  0.11762753  1
  O  O176  1  0.62299579  0.11999883  0.61714821  1
  O  O177  1  0.62070375  0.62825025  0.11191414  1
  O  O178  1  0.61876070  0.61366648  0.61616033  1
  O  O179  1  0.38080105  0.37913952  0.38502713  1
  O  O180  1  0.38518045  0.37858390  0.87747575  1
  O  O181  1  0.38434162  0.87676907  0.38510922  1
  O  O182  1  0.37138665  0.88227610  0.88136543  1
  O  O183  1  0.87913259  0.38122976  0.38209503  1
  O  O184  1  0.88671782  0.35950833  0.86624215  1
  O  O185  1  0.87739840  0.88270437  0.38194417  1
  O  O186  1  0.89554849  0.87718820  0.87480017  1
  O  O187  1  0.25393299  0.00222903  0.36560423  1
  O  O188  1  0.25795067  0.00529322  0.86522096  1
  O  O189  1  0.25629882  0.50873938  0.37149335  1
  O  O190  1  0.25777426  0.51263128  0.87804989  1
  O  O191  1  0.75487144  0.00424574  0.36854557  1
  O  O192  1  0.75069527  -0.00330988  0.86737460  1
  O  O193  1  0.76883244  0.49680741  0.37259107  1
  O  O194  1  0.74532992  0.48834356  0.85690882  1
  O  O195  1  0.24790402  0.50061062  0.13375990  1
  O  O196  1  0.24481093  0.48356578  0.61395780  1
  O  O197  1  0.24176415  0.99519630  0.13205488  1
  O  O198  1  0.25224466  0.99489344  0.63454795  1
  O  O199  1  0.75071888  0.50301656  0.14190255  1
  O  O200  1  0.74411742  0.48971678  0.62989742  1
  O  O201  1  0.74129973  0.99093716  0.13181022  1
  O  O202  1  0.73993995  0.99664336  0.62361403  1
  O  O203  1  -0.00415632  0.36290674  0.24507560  1
  O  O204  1  0.01030212  0.37141963  0.76006065  1
  O  O205  1  0.01521668  0.88110210  0.25053086  1
  O  O206  1  0.00766416  0.87134881  0.75572096  1
  O  O207  1  0.49988056  0.35934594  0.25797973  1
  O  O208  1  0.49469345  0.37207843  0.75499065  1
  O  O209  1  0.49810073  0.87103788  0.26164838  1
  O  O210  1  0.50290408  0.87288246  0.74789492  1
  O  O211  1  0.49171319  0.12560622  0.24452794  1
  O  O212  1  0.49102158  0.11952379  0.73971889  1
  O  O213  1  0.48280353  0.64076772  0.25679369  1
  O  O214  1  0.49323492  0.62056535  0.74084142  1
  O  O215  1  0.99554263  0.13373808  0.23935564  1
  O  O216  1  0.98658726  0.11453817  0.74089749  1
  O  O217  1  0.98977258  0.63638202  0.25026228  1
  O  O218  1  1.00019954  0.63162163  0.74420745  1
  O  O219  1  0.36980485  0.25581468  0.00254704  1
  O  O220  1  0.36812570  0.25808993  0.49624320  1
  O  O221  1  0.36283570  0.76140821  -0.00392898  1
  O  O222  1  0.38109993  0.76067422  0.49930322  1
  O  O223  1  0.86041812  0.24288277  0.00642492  1
  O  O224  1  0.87753652  0.25879263  0.50598850  1
  O  O225  1  0.85992358  0.76200215  0.00514015  1
  O  O226  1  0.87188590  0.75465299  0.50447859  1
  O  O227  1  0.13073490  0.23856946  0.50001247  1
  O  O228  1  0.13468914  0.24494968  0.99181586  1
  O  O229  1  0.12069582  0.73816909  0.49499259  1
  O  O230  1  0.13916970  0.74735935  0.99942339  1
  O  O231  1  0.62262822  0.24084309  0.48693981  1
  O  O232  1  0.62911675  0.24145615  0.99327742  1
  O  O233  1  0.62904727  0.74030230  0.49576888  1
  O  O234  1  0.63786854  0.74162691  0.99828654  1
  O  O235  1  0.49399771  0.24172205  0.13048093  1
  O  O236  1  0.50564593  0.23658076  0.62017356  1
  O  O237  1  0.50131578  0.76343883  0.13915051  1
  O  O238  1  0.50427922  0.73377583  0.62353225  1
  O  O239  1  0.99255848  0.24510506  0.12751554  1
  O  O240  1  0.98649616  0.24144121  0.62276905  1
  O  O241  1  1.00723095  0.73972537  0.13408263  1
  O  O242  1  0.99520500  0.74299981  0.63178967  1
  O  O243  1  -0.00030779  0.25082884  0.36246470  1
  O  O244  1  0.01333001  0.25353939  0.87380590  1
  O  O245  1  0.01487329  0.75693454  0.37365253  1
  O  O246  1  -0.00217617  0.75112190  0.86593179  1
  O  O247  1  0.50970278  0.25197246  0.37103083  1
  O  O248  1  0.50962911  0.26083999  0.87459069  1
  O  O249  1  0.50787305  0.75876550  0.37259619  1
  O  O250  1  0.49979513  0.75157658  0.86996956  1
  O  O251  1  0.24364833  0.12959502  0.50304894  1
  O  O252  1  0.24804829  0.13614654  0.99300163  1
  O  O253  1  0.24140913  0.61957885  0.48974297  1
  O  O254  1  0.24951109  0.63086128  0.98641822  1
  O  O255  1  0.73745601  0.11930874  0.49274639  1
  O  O256  1  0.73567830  0.13221238  1.00152099  1
  O  O257  1  0.73941157  0.62769789  0.50527043  1
  O  O258  1  0.75162953  0.64001611  1.00822142  1
  O  O259  1  0.25825277  0.36441764  -0.00488672  1
  O  O260  1  0.25659019  0.36755091  0.50262297  1
  O  O261  1  0.25308417  0.86816821  0.00457089  1
  O  O262  1  0.25782735  0.87886983  0.51290731  1
  O  O263  1  0.73856721  0.36276164  0.00230750  1
  O  O264  1  0.76443150  0.38193566  0.50688386  1
  O  O265  1  0.75146988  0.86892755  0.01497899  1
  O  O266  1  0.75552352  0.86872319  0.50683939  1
  O  O267  1  0.14019900  0.50359805  0.25694035  1
  O  O268  1  0.12426923  0.48555792  0.74737349  1
  O  O269  1  0.13633901  0.99760807  0.24613913  1
  O  O270  1  0.13551375  0.98782997  0.75177336  1
  O  O271  1  0.65186396  0.50675138  0.27643908  1
  O  O272  1  0.63179723  0.50238594  0.73890153  1
  O  O273  1  0.62968799  0.99956663  0.24200893  1
  O  O274  1  0.64025609  1.00352439  0.74349877  1
  O  O275  1  0.36488253  0.00576242  0.24921838  1
  O  O276  1  0.36571013  0.00623016  0.75595581  1
  O  O277  1  0.36365972  0.51109980  0.25681857  1
  O  O278  1  0.37439115  0.50792974  0.76228808  1
  O  O279  1  0.86959846  0.00863732  0.25135849  1
  O  O280  1  0.86312464  0.00954251  0.74650512  1
  O  O281  1  0.86759033  0.50822817  0.25569187  1
  O  O282  1  0.86406555  0.49782233  0.74188207  1
  O  O283  1  0.11971266  0.37095428  0.36908139  1
  O  O284  1  0.12585768  0.36743463  0.86603856  1
  O  O285  1  0.12880202  0.87086385  0.36951143  1
  O  O286  1  0.11489398  0.87620492  0.86471624  1
  O  O287  1  0.61820988  0.36992829  0.36439689  1
  O  O288  1  0.60989210  0.36436829  0.87201265  1
  O  O289  1  0.61223529  0.86896782  0.37758672  1
  O  O290  1  0.61979410  0.87090648  0.87254097  1
  O  O291  1  0.37798456  0.12799571  0.13386189  1
  O  O292  1  0.38671290  0.12106771  0.63291736  1
  O  O293  1  0.36993347  0.62260200  0.13470275  1
  O  O294  1  0.38589315  0.61299862  0.63280101  1
  O  O295  1  0.88309959  0.13378264  0.12980887  1
  O  O296  1  0.88294383  0.13042774  0.62562300  1
  O  O297  1  0.88678294  0.63048864  0.14415454  1
  O  O298  1  0.88764922  0.62900121  0.62503633  1
  O  O299  1  0.25839175  0.25179280  0.11477767  1
  O  O300  1  0.24767061  0.26072773  0.61092916  1
  O  O301  1  0.24670450  0.76132082  0.11941462  1
  O  O302  1  0.24872026  0.75992724  0.62594727  1
  O  O303  1  0.75487096  0.24929193  0.11497579  1
  O  O304  1  0.75924284  0.25787885  0.62469099  1
  O  O305  1  0.74010357  0.76254486  0.12180477  1
  O  O306  1  0.75796694  0.75288322  0.61998091  1
  O  O307  1  0.24838090  0.24596814  0.38815167  1
  O  O308  1  0.24409588  0.24447088  0.88055344  1
  O  O309  1  0.23941978  0.74378833  0.37528858  1
  O  O310  1  0.25393555  0.73359765  0.87871316  1
  O  O311  1  0.73916168  0.24899418  0.36658435  1
  O  O312  1  0.73084639  0.25436124  0.87951928  1
  O  O313  1  0.73313072  0.75617236  0.38363353  1
  O  O314  1  0.75093977  0.75662743  0.89058910  1
  O  O315  1  0.00749566  0.13191110  0.01148422  1
  O  O316  1  0.00640048  0.11978927  0.50680907  1
  O  O317  1  -0.00256393  0.62874808  0.01580643  1
  O  O318  1  0.00602936  0.61923161  0.50686719  1
  O  O319  1  0.50845106  0.12295160  0.00624129  1
  O  O320  1  0.50898770  0.11719628  0.50448880  1
  O  O321  1  0.50841774  0.62375252  -0.00075197  1
  O  O322  1  0.50745737  0.61693525  0.50616021  1
  O  O323  1  0.49365383  0.37798466  0.49659662  1
  O  O324  1  0.49077831  0.37035472  0.99444847  1
  O  O325  1  0.49487680  0.88091531  0.49910326  1
  O  O326  1  0.48857311  0.87721849  0.99910023  1
  O  O327  1  0.99141162  0.38349262  0.50254483  1
  O  O328  1  1.00254626  0.36837813  0.97756401  1
  O  O329  1  0.99780537  0.88389036  0.50194734  1
  O  O330  1  1.00587453  0.87234542  0.98661834  1
  O  O331  1  0.49409412  0.49318254  0.38010329  1
  O  O332  1  0.49455268  0.48355664  0.86881207  1
  O  O333  1  0.50028577  0.99178171  0.38484160  1
  O  O334  1  0.48471810  0.99937670  0.87500865  1
  O  O335  1  0.99178668  0.49872057  0.38251972  1
  O  O336  1  0.99218246  0.48291689  0.87159326  1
  O  O337  1  0.99451196  1.00149441  0.38610375  1
  O  O338  1  1.00559730  0.99121905  0.87748682  1
  O  O339  1  0.02053322  0.01377761  0.13576073  1
  O  O340  1  -0.00595577  0.00833220  0.61314620  1
  O  O341  1  0.01284245  0.52554988  0.14946781  1
  O  O342  1  0.00191255  0.50739960  0.61807819  1
  O  O343  1  0.50739952  0.00447045  0.12380897  1
  O  O344  1  0.51288465  0.00605358  0.61958960  1
  O  O345  1  0.53173207  0.48928037  0.19964623  1
  O  O346  1  0.50953943  0.50243173  0.61770377  1
  O  O347  1  0.25442903  0.38656273  0.24919172  1
  O  O348  1  0.24315892  0.37081495  0.73798778  1
  O  O349  1  0.24549733  0.88213991  0.24272835  1
  O  O350  1  0.24592580  0.87789550  0.74112197  1
  O  O351  1  0.74124555  0.39228280  0.24643726  1
  O  O352  1  0.75282688  0.38266628  0.73536079  1
  O  O353  1  0.74053545  0.88011232  0.24334050  1
  O  O354  1  0.75424813  0.88887289  0.74479554  1
  O  O355  1  0.25679167  0.11837403  0.24925097  1
  O  O356  1  0.25432071  0.11739572  0.75049559  1
  O  O357  1  0.25569648  0.62356226  0.26154893  1
  O  O358  1  0.25500862  0.62548640  0.75930133  1
  O  O359  1  0.75558704  0.12008204  0.25542149  1
  O  O360  1  0.76272127  0.11058205  0.74782909  1
  O  O361  1  0.76325990  0.62070336  0.24882179  1
  O  O362  1  0.75509323  0.60445862  0.74529023  1
  O  O363  1  0.37582058  0.12218973  0.36205626  1
  O  O364  1  0.36987205  0.11830834  0.86905552  1
  O  O365  1  0.36643685  0.62125418  0.37535333  1
  O  O366  1  0.36935562  0.61623654  0.86810387  1
  O  O367  1  0.86882393  0.12067815  0.37051870  1
  O  O368  1  0.88166071  0.12817541  0.86172127  1
  O  O369  1  0.88156462  0.61775701  0.36429130  1
  O  O370  1  0.86428776  0.62336059  0.87793375  1
  O  O371  1  0.12943241  0.37940256  0.12946832  1
  O  O372  1  0.13079070  0.37414914  0.63198264  1
  O  O373  1  0.13213618  0.88387586  0.13056965  1
  O  O374  1  0.14047470  0.87509231  0.62996817  1
  O  O375  1  0.62448649  0.36942522  0.13914044  1
  O  O376  1  0.63651127  0.38263294  0.61546218  1
  O  O377  1  0.62859565  0.88608305  0.12435122  1
  O  O378  1  0.63345455  0.88455155  0.62635558  1
  O  O379  1  0.11454714  0.24961365  0.24990354  1
  O  O380  1  0.13160345  0.25935742  0.75850644  1
  O  O381  1  0.12807221  0.76299741  0.25927345  1
  O  O382  1  0.11485523  0.76376502  0.74438475  1
  O  O383  1  0.61578049  0.24058792  0.25757068  1
  O  O384  1  0.62773388  0.24017979  0.76091900  1
  O  O385  1  0.61542277  0.74873481  0.25942314  1
  O  O386  1  0.62428838  0.74993759  0.75204557  1
  O  O387  1  0.37912105  0.24191268  0.24547403  1
  O  O388  1  0.36849282  0.23494298  0.75459073  1
  O  O389  1  0.37974050  0.74423977  0.25295769  1
  O  O390  1  0.37657737  0.73300504  0.74930422  1
  O  O391  1  0.87939055  0.24294739  0.24453866  1
  O  O392  1  0.86733392  0.23103452  0.74018989  1
  O  O393  1  0.87376292  0.74124430  0.26376752  1
  O  O394  1  0.88359166  0.74859908  0.74231348  1
  O  O395  1  0.38192130  0.49162495  0.49383004  1
  O  O396  1  0.37174478  0.48955676  0.98645113  1
  O  O397  1  0.38913343  0.99596208  0.50104378  1
  O  O398  1  0.37139734  0.99105750  0.98958604  1
  O  O399  1  0.88510081  0.49655751  0.49472159  1
  O  O400  1  0.89240267  0.48783751  1.04515500  1
  O  O401  1  0.88239104  0.99487203  0.49456697  1
  O  O402  1  0.88600304  0.98623626  1.04303363  1
  O  O403  1  0.13646834  0.00993191  0.00776731  1
  O  O404  1  0.11804185  0.01258408  0.49888037  1
  O  O405  1  0.11152661  0.50527494  -0.00035263  1
  O  O406  1  0.11359414  0.51025928  0.49801415  1
  O  O407  1  0.62349543  0.00678959  0.00649475  1
  O  O408  1  0.61684485  0.00613459  0.50623160  1
  O  O409  1  0.63018673  0.51526985  0.00264729  1
  O  O410  1  0.62240494  0.50471839  0.50245580  1
  O  O411  1  0.37508747  0.37171385  0.11562143  1
  O  O412  1  0.36847469  0.37975293  0.61319534  1
  O  O413  1  0.36258065  0.88357804  0.11336062  1
  O  O414  1  0.36062309  0.87884998  0.61918290  1
  O  O415  1  0.86662786  0.35705234  0.13579292  1
  O  O416  1  0.87098184  0.36488518  0.61843915  1
  O  O417  1  0.85768547  0.86272045  0.14398200  1
  O  O418  1  0.87128811  0.86987735  0.62008158  1
  O  O419  1  0.12691352  0.12803873  0.38591105  1
  O  O420  1  0.13047537  0.13203197  0.87593814  1
  O  O421  1  0.13067449  0.63353923  0.38123927  1
  O  O422  1  0.13686206  0.61959120  0.87069931  1
  O  O423  1  0.62983820  0.13138193  0.38111983  1
  O  O424  1  0.61445820  0.13639775  0.88157465  1
  O  O425  1  0.61423220  0.63324853  0.38585538  1
  O  O426  1  0.63423398  0.62560715  0.88789361  1
