# generated using pymatgen
data_V85Zn86O256
_symmetry_space_group_name_H-M   'P 1'
_cell_length_a   16.94886327
_cell_length_b   16.94910436
_cell_length_c   16.96155518
_cell_angle_alpha   89.95153224
_cell_angle_beta   90.01873671
_cell_angle_gamma   90.08342545
_symmetry_Int_Tables_number   1
_chemical_formula_structural   V85Zn86O256
_chemical_formula_sum   'V85 Zn86 O256'
_cell_volume   4872.50575196
_cell_formula_units_Z   1
loop_
 _symmetry_equiv_pos_site_id
 _symmetry_equiv_pos_as_xyz
  1  'x, y, z'
loop_
 _atom_site_type_symbol
 _atom_site_label
 _atom_site_symmetry_multiplicity
 _atom_site_fract_x
 _atom_site_fract_y
 _atom_site_fract_z
 _atom_site_occupancy
  V  V0  1  0.12049905  0.49726044  0.13316497  1
  V  V1  1  0.49722518  0.87753009  0.86846416  1
  V  V2  1  0.87065155  0.75209514  0.12641231  1
  V  V3  1  0.61854267  0.75219680  0.87270231  1
  V  V4  1  0.74999651  0.24660877  0.50594173  1
  V  V5  1  0.74121766  0.37824971  0.62256050  1
  V  V6  1  -0.00193047  0.50257511  0.49885230  1
  V  V7  1  0.49845197  0.12434875  0.12745798  1
  V  V8  1  0.50633636  0.37556451  0.37179129  1
  V  V9  1  0.12720388  0.87936124  0.75517599  1
  V  V10  1  0.87432661  0.87627539  -0.00144552  1
  V  V11  1  0.25526301  0.50128567  0.75619015  1
  V  V12  1  0.12864955  0.25273744  0.88832596  1
  V  V13  1  0.61725106  0.86890414  0.25181116  1
  V  V14  1  0.62610814  0.12562118  -0.00207210  1
  V  V15  1  0.49141986  0.49813952  -0.00047318  1
  V  V16  1  0.01701101  0.64037383  0.10442064  1
  V  V17  1  0.24623213  0.00880879  0.74182804  1
  V  V18  1  0.86656086  0.49836644  0.87122082  1
  V  V19  1  0.02553074  0.51367960  -0.02443241  1
  V  V20  1  0.39687471  0.63821576  0.74385128  1
  V  V21  1  0.74585950  0.12503448  0.37900048  1
  V  V22  1  0.87474255  -0.00049027  0.86223820  1
  V  V23  1  0.74863718  -0.00051819  0.25040609  1
  V  V24  1  0.74707281  0.25006366  -0.00058818  1
  V  V25  1  0.62469198  0.24826851  0.37700378  1
  V  V26  1  0.74742931  0.62351313  0.87542541  1
  V  V27  1  0.50234885  0.25212152  0.24966725  1
  V  V28  1  0.87489569  0.25075795  0.12435952  1
  V  V29  1  0.24556490  0.11920187  0.38000162  1
  V  V30  1  0.25372351  0.87324694  0.62418628  1
  V  V31  1  0.75027747  0.50115533  0.25321000  1
  V  V32  1  0.87383389  0.62568448  0.25271347  1
  V  V33  1  0.25403342  0.86563000  0.10897158  1
  V  V34  1  0.50368636  0.50252474  0.51223454  1
  V  V35  1  0.01438643  0.13466357  0.62211373  1
  V  V36  1  0.01198176  0.74936889  0.75154916  1
  V  V37  1  0.87415515  0.38011336  -0.00088413  1
  V  V38  1  0.24517728  0.13002702  0.88958204  1
  V  V39  1  0.50517006  0.12669411  0.63052560  1
  V  V40  1  0.38062054  0.24995141  0.63200291  1
  V  V41  1  0.49572001  0.37369162  0.87036495  1
  V  V42  1  0.87300688  0.62453823  0.74939253  1
  V  V43  1  0.26304683  0.75077721  0.50407672  1
  V  V44  1  -0.00603623  0.36307945  0.86567840  1
  V  V45  1  0.87694761  -0.00062345  0.37780687  1
  V  V46  1  0.36982276  0.36461056  0.00314814  1
  V  V47  1  0.75258314  0.75027496  0.49527341  1
  V  V48  1  0.49576575  0.00374447  0.50428017  1
  V  V49  1  0.62382889  -0.00103814  0.12502550  1
  V  V50  1  0.49629795  -0.00342725  -0.00194729  1
  V  V51  1  -0.00075177  0.74908537  0.25198421  1
  V  V52  1  0.24786758  0.37524979  0.62187209  1
  V  V53  1  0.25316680  0.62409222  0.37407205  1
  V  V54  1  0.00024509  0.87616202  0.38143108  1
  V  V55  1  0.25413713  -0.00314090  0.24888739  1
  V  V56  1  0.87050744  0.75889842  0.62624106  1
  V  V57  1  0.74858380  0.75037665  -0.00162672  1
  V  V58  1  0.00787483  0.12602472  0.12147465  1
  V  V59  1  0.73481468  0.50087810  0.74361618  1
  V  V60  1  0.38774683  0.74968896  0.12174769  1
  V  V61  1  0.37084890  0.00292356  0.87598347  1
  V  V62  1  0.37653179  0.37321216  0.49639580  1
  V  V63  1  0.87593791  0.12667184  0.24872009  1
  V  V64  1  0.62636179  0.73397925  0.37005636  1
  V  V65  1  0.87347447  0.37363176  0.50558120  1
  V  V66  1  -0.00039065  0.37465034  0.37434840  1
  V  V67  1  0.74723461  0.87640263  0.12494267  1
  V  V68  1  0.64320403  0.00319315  0.61923297  1
  V  V69  1  0.63125492  0.61885287  0.51427417  1
  V  V70  1  0.88166309  0.14546524  0.74271741  1
  V  V71  1  0.12700334  0.63123489  0.50138889  1
  V  V72  1  0.61955088  0.24952120  0.86232216  1
  V  V73  1  0.64166165  0.88466151  0.74739553  1
  V  V74  1  0.62468518  0.49555876  0.12831006  1
  V  V75  1  0.61888443  0.62311686  0.00050648  1
  V  V76  1  0.49754633  0.86973867  0.38105108  1
  V  V77  1  0.00489125  0.00359044  -0.00265771  1
  V  V78  1  0.75100253  0.12180421  0.86704493  1
  V  V79  1  0.24352273  0.24350979  0.49899648  1
  V  V80  1  0.25336975  0.49562294  0.25019473  1
  V  V81  1  0.74709775  0.37431838  0.13081721  1
  V  V82  1  0.11907058  0.36582693  0.74568624  1
  V  V83  1  0.12571356  0.87642980  0.24696452  1
  V  V84  1  -0.00066663  0.63001013  0.62421409  1
  Zn  Zn85  1  0.37472524  -0.00649965  0.37988742  1
  Zn  Zn86  1  0.13242074  0.00379946  0.11618748  1
  Zn  Zn87  1  -0.00003621  0.25307563  0.25032086  1
  Zn  Zn88  1  0.12468415  0.49909870  0.62359987  1
  Zn  Zn89  1  0.12922411  0.75041046  0.37276968  1
  Zn  Zn90  1  0.25840876  0.64011052  0.87991637  1
  Zn  Zn91  1  0.38006521  0.50133045  0.37276897  1
  Zn  Zn92  1  0.86711241  0.88152665  0.50712748  1
  Zn  Zn93  1  0.11719744  0.23813784  0.37968368  1
  Zn  Zn94  1  0.86912096  0.50546798  0.37744941  1
  Zn  Zn95  1  0.50819968  0.75799896  0.72206887  1
  Zn  Zn96  1  0.00395207  0.87090748  0.87612202  1
  Zn  Zn97  1  0.24169841  0.36701899  0.12120179  1
  Zn  Zn98  1  0.36575461  0.24579500  0.12768261  1
  Zn  Zn99  1  0.01959644  0.01678657  0.50400216  1
  Zn  Zn100  1  0.61298221  0.37474644  0.74005643  1
  Zn  Zn101  1  0.38377115  0.63073719  0.25201720  1
  Zn  Zn102  1  0.42428574  0.81576136  0.56579283  1
  Zn  Zn103  1  0.37668528  0.12194866  0.25563979  1
  Zn  Zn104  1  0.37747889  0.13403834  0.75567433  1
  Zn  Zn105  1  0.12709456  0.36757673  0.25664515  1
  Zn  Zn106  1  0.50606634  0.62870485  0.13772022  1
  Zn  Zn107  1  0.18632934  0.19005267  0.19440093  1
  Zn  Zn108  1  0.19025199  0.19057784  0.69130177  1
  Zn  Zn109  1  0.19210472  0.68775109  0.18697335  1
  Zn  Zn110  1  0.19317600  0.68595807  0.68720006  1
  Zn  Zn111  1  0.68468593  0.18848278  0.19060690  1
  Zn  Zn112  1  0.69154513  0.18405488  0.68551119  1
  Zn  Zn113  1  0.68645109  0.68471161  0.18809614  1
  Zn  Zn114  1  0.68700896  0.69380187  0.68756213  1
  Zn  Zn115  1  0.31441481  0.30734273  0.31181772  1
  Zn  Zn116  1  0.30822784  0.31886388  0.81617358  1
  Zn  Zn117  1  0.31505004  0.80948493  0.31000301  1
  Zn  Zn118  1  0.31636853  0.81563236  0.80158649  1
  Zn  Zn119  1  0.81619678  0.31461529  0.31581180  1
  Zn  Zn120  1  0.80219004  0.31321488  0.81023663  1
  Zn  Zn121  1  0.80756211  0.81255456  0.31461738  1
  Zn  Zn122  1  0.81752675  0.80853508  0.81537668  1
  Zn  Zn123  1  0.18550848  0.44027131  0.43776458  1
  Zn  Zn124  1  0.21570232  0.48110995  0.95850203  1
  Zn  Zn125  1  0.18924616  0.93512935  0.43743072  1
  Zn  Zn126  1  0.18627706  0.93741094  0.93074937  1
  Zn  Zn127  1  0.68478136  0.43748280  0.43597063  1
  Zn  Zn128  1  0.68206610  0.43394718  0.93843633  1
  Zn  Zn129  1  0.68574992  0.93505428  0.43820380  1
  Zn  Zn130  1  0.68710565  0.94019840  0.93461727  1
  Zn  Zn131  1  0.31449047  0.05994574  0.06353910  1
  Zn  Zn132  1  0.31630691  0.06339382  0.56435656  1
  Zn  Zn133  1  0.31347787  0.57129322  0.06493274  1
  Zn  Zn134  1  0.31588048  0.56087073  0.56506656  1
  Zn  Zn135  1  0.81516617  0.06173670  0.05898673  1
  Zn  Zn136  1  0.82480645  0.06761637  0.56156821  1
  Zn  Zn137  1  0.81647820  0.56602985  0.06422327  1
  Zn  Zn138  1  0.81085005  0.56425065  0.56366008  1
  Zn  Zn139  1  0.43648739  0.43792458  0.18710495  1
  Zn  Zn140  1  0.43310240  0.43709648  0.68705029  1
  Zn  Zn141  1  0.43434581  0.93335829  0.18827880  1
  Zn  Zn142  1  0.43847234  0.94558631  0.69352232  1
  Zn  Zn143  1  0.94026787  0.44313747  0.18460320  1
  Zn  Zn144  1  0.93205936  0.43645946  0.68430282  1
  Zn  Zn145  1  0.93876390  0.93977523  0.18757184  1
  Zn  Zn146  1  0.94606784  0.94243146  0.68421734  1
  Zn  Zn147  1  0.06412323  0.06051113  0.30997271  1
  Zn  Zn148  1  0.06163947  0.06828141  0.81018511  1
  Zn  Zn149  1  0.06316566  0.56459282  0.31208261  1
  Zn  Zn150  1  0.06083986  0.54902421  0.80079640  1
  Zn  Zn151  1  0.56242522  0.05958345  0.31485344  1
  Zn  Zn152  1  0.56485511  0.06118076  0.80705485  1
  Zn  Zn153  1  0.56254661  0.55729354  0.31222150  1
  Zn  Zn154  1  0.55489440  0.56270064  0.81604490  1
  Zn  Zn155  1  0.43326351  0.18258277  0.44063632  1
  Zn  Zn156  1  0.43802735  0.18758175  0.93783400  1
  Zn  Zn157  1  0.44513044  0.68115520  0.43444657  1
  Zn  Zn158  1  0.39700033  0.71810888  0.91416462  1
  Zn  Zn159  1  0.93464144  0.18922602  0.44238495  1
  Zn  Zn160  1  0.93554240  0.18685106  0.93765905  1
  Zn  Zn161  1  0.93648292  0.69000960  0.43630446  1
  Zn  Zn162  1  1.04034912  0.68241723  0.93114005  1
  Zn  Zn163  1  0.05801053  0.32212824  0.06230170  1
  Zn  Zn164  1  0.05871004  0.30685908  0.56305043  1
  Zn  Zn165  1  0.06120671  0.81840691  0.06550640  1
  Zn  Zn166  1  0.08182691  0.84120359  0.54965341  1
  Zn  Zn167  1  0.56099747  0.31201312  0.06055434  1
  Zn  Zn168  1  0.56369314  0.30901590  0.55775425  1
  Zn  Zn169  1  0.55867038  0.81303643  0.05811785  1
  Zn  Zn170  1  0.58748810  0.82007782  0.55716933  1
  O  O171  1  0.11017887  0.12236906  0.13200971  1
  O  O172  1  0.11405441  0.12921029  0.63185812  1
  O  O173  1  0.11817480  0.61207786  0.13651602  1
  O  O174  1  0.11678396  0.62426364  0.61813250  1
  O  O175  1  0.61639071  0.11916922  0.12124826  1
  O  O176  1  0.62124224  0.11129314  0.62977794  1
  O  O177  1  0.62645285  0.61639521  0.11628687  1
  O  O178  1  0.62912992  0.62552033  0.61227478  1
  O  O179  1  0.38416919  0.37197859  0.38639677  1
  O  O180  1  0.38447358  0.36681227  0.88895005  1
  O  O181  1  0.39325005  0.87252266  0.36894059  1
  O  O182  1  0.38993861  0.88940457  0.86534070  1
  O  O183  1  0.88301786  0.38129224  0.38652766  1
  O  O184  1  0.87353597  0.37639265  0.87943180  1
  O  O185  1  0.88075727  0.88636058  0.36898575  1
  O  O186  1  0.87630503  0.88281411  0.88259244  1
  O  O187  1  0.25307379  -0.00017743  0.36995013  1
  O  O188  1  0.25608538  0.00800258  0.86895066  1
  O  O189  1  0.25243044  0.50794968  0.37122600  1
  O  O190  1  0.25195959  0.47318965  0.85097178  1
  O  O191  1  0.75499591  0.00675752  0.37182354  1
  O  O192  1  0.76017067  0.01251049  0.88201828  1
  O  O193  1  0.74962805  0.49140091  0.35728701  1
  O  O194  1  0.75270345  0.49886461  0.86695756  1
  O  O195  1  0.24018329  0.49555634  0.13564264  1
  O  O196  1  0.24757981  0.48653982  0.62757468  1
  O  O197  1  0.25126627  0.99053288  0.13263333  1
  O  O198  1  0.25377467  0.99764687  0.63709908  1
  O  O199  1  0.74628726  0.49230669  0.13026667  1
  O  O200  1  0.75163071  0.49232721  0.63297439  1
  O  O201  1  0.74438670  0.99624665  0.12921098  1
  O  O202  1  0.74153564  1.00605199  0.61475828  1
  O  O203  1  -0.00560613  0.37678134  0.26245345  1
  O  O204  1  0.00398576  0.37922798  0.75453246  1
  O  O205  1  0.00474988  0.87046768  0.25666595  1
  O  O206  1  0.00984295  0.86769259  0.74798786  1
  O  O207  1  0.49549946  0.36585596  0.26051911  1
  O  O208  1  0.49735302  0.38191039  0.76429349  1
  O  O209  1  0.51327961  0.88227963  0.25772886  1
  O  O210  1  0.51325741  0.88001553  0.75595736  1
  O  O211  1  0.50136659  0.12811919  0.24279842  1
  O  O212  1  0.49752611  0.12168687  0.73577528  1
  O  O213  1  0.49814776  0.62231230  0.25085633  1
  O  O214  1  0.50043215  0.62884006  0.74095091  1
  O  O215  1  0.98737881  0.12229067  0.24347640  1
  O  O216  1  0.98721151  0.12601522  0.74219999  1
  O  O217  1  0.99719836  0.63521067  0.23965413  1
  O  O218  1  0.99695151  0.62831503  0.74131107  1
  O  O219  1  0.37999353  0.26111177  0.00591280  1
  O  O220  1  0.36791771  0.25707566  0.50788313  1
  O  O221  1  0.38020413  0.75359984  0.02165254  1
  O  O222  1  0.36642890  0.74266091  0.49642107  1
  O  O223  1  0.86826089  0.26106037  0.00339328  1
  O  O224  1  0.86130820  0.26261223  0.49298495  1
  O  O225  1  0.86634367  0.76731347  0.00600556  1
  O  O226  1  0.86555389  0.74386692  0.50804875  1
  O  O227  1  0.14042114  0.25668343  0.49680792  1
  O  O228  1  0.12051865  0.26055795  0.98659206  1
  O  O229  1  0.13125503  0.74074910  0.49951063  1
  O  O230  1  0.07489988  0.71097710  1.03485151  1
  O  O231  1  0.63389638  0.24945817  0.48548275  1
  O  O232  1  0.62915491  0.24216792  0.99296651  1
  O  O233  1  0.63617362  0.73631877  0.49168978  1
  O  O234  1  0.62813115  0.74245843  0.99412503  1
  O  O235  1  0.50407996  0.24049606  0.13419465  1
  O  O236  1  0.49347318  0.24000449  0.61651077  1
  O  O237  1  0.49263866  0.75348853  0.12888869  1
  O  O238  1  0.50937640  0.75920784  0.60980739  1
  O  O239  1  0.99132925  0.24381083  0.12347930  1
  O  O240  1  0.99617379  0.23607531  0.62469370  1
  O  O241  1  0.98665647  0.75579665  0.14075586  1
  O  O242  1  0.99281528  0.73895721  0.63203342  1
  O  O243  1  -0.00242150  0.26061804  0.37715990  1
  O  O244  1  0.00413281  0.25835581  0.87877776  1
  O  O245  1  0.00146242  0.75377070  0.36252821  1
  O  O246  1  -0.00773874  0.75192558  0.85830226  1
  O  O247  1  0.50683638  0.25111871  0.37250434  1
  O  O248  1  0.50993543  0.25715188  0.87935565  1
  O  O249  1  0.51456558  0.75776798  0.38428988  1
  O  O250  1  0.50367323  0.76522800  0.87777695  1
  O  O251  1  0.25447325  0.13207385  0.49506795  1
  O  O252  1  0.24811049  0.11707566  0.98863134  1
  O  O253  1  0.24404055  0.62845331  0.49625295  1
  O  O254  1  0.24688304  0.58813617  0.97894692  1
  O  O255  1  0.75953812  0.13470346  0.48944638  1
  O  O256  1  0.74671603  0.13110292  0.99157569  1
  O  O257  1  0.73795995  0.62705388  0.49883731  1
  O  O258  1  0.74187553  0.62883195  0.99498471  1
  O  O259  1  0.26837360  0.38380389  0.00140595  1
  O  O260  1  0.25843774  0.37115316  0.50283630  1
  O  O261  1  0.24665018  0.88247976  0.01207553  1
  O  O262  1  0.25090032  0.86265808  0.51002940  1
  O  O263  1  0.75457981  0.36875307  0.00844160  1
  O  O264  1  0.75405040  0.37153268  0.50369803  1
  O  O265  1  0.75360333  0.87314969  0.00450912  1
  O  O266  1  0.75155023  0.85861497  0.49473858  1
  O  O267  1  0.13040467  0.49553854  0.24704000  1
  O  O268  1  0.13203358  0.48350204  0.74145366  1
  O  O269  1  0.12990287  0.98801397  0.24519965  1
  O  O270  1  0.13465212  0.99390269  0.75731311  1
  O  O271  1  0.63468601  0.50214510  0.23607706  1
  O  O272  1  0.63287737  0.49814327  0.75428725  1
  O  O273  1  0.63059260  0.99308744  0.24422989  1
  O  O274  1  0.62987864  0.99262462  0.73898138  1
  O  O275  1  0.36711379  -0.00048268  0.25467914  1
  O  O276  1  0.36694930  0.00857324  0.76174672  1
  O  O277  1  0.36640222  0.50265816  0.25230234  1
  O  O278  1  0.35799486  0.50235324  0.74277182  1
  O  O279  1  0.86934352  0.00673116  0.25825014  1
  O  O280  1  0.87847449  0.00273963  0.76108709  1
  O  O281  1  0.86843531  0.50928068  0.24767333  1
  O  O282  1  0.86374469  0.50394094  0.75456692  1
  O  O283  1  0.10820237  0.37767112  0.37963380  1
  O  O284  1  0.11046086  0.36427485  0.86467830  1
  O  O285  1  0.11611960  0.87015761  0.36253403  1
  O  O286  1  0.12396776  0.87029831  0.86222936  1
  O  O287  1  0.61426324  0.36483046  0.37774420  1
  O  O288  1  0.61720561  0.36383490  0.87323105  1
  O  O289  1  0.61827765  0.86710823  0.36853904  1
  O  O290  1  0.61837732  0.87705724  0.86445955  1
  O  O291  1  0.38919270  0.12407924  0.12638378  1
  O  O292  1  0.38479095  0.13416023  0.62733611  1
  O  O293  1  0.38105106  0.63682844  0.12632809  1
  O  O294  1  0.36045659  0.62139968  0.64959679  1
  O  O295  1  0.87796037  0.13011481  0.13227498  1
  O  O296  1  0.86863704  0.13332484  0.64238587  1
  O  O297  1  0.88450444  0.63549058  0.13181819  1
  O  O298  1  0.88192599  0.63110859  0.63077900  1
  O  O299  1  0.25332869  0.25546549  0.13602961  1
  O  O300  1  0.25678424  0.25824974  0.61758087  1
  O  O301  1  0.24776947  0.76248473  0.11949215  1
  O  O302  1  0.25120737  0.75723972  0.61688654  1
  O  O303  1  0.75358703  0.25604798  0.12193341  1
  O  O304  1  0.74382916  0.25654685  0.61172623  1
  O  O305  1  0.75198327  0.75632692  0.11855841  1
  O  O306  1  0.76038231  0.74467282  0.61457136  1
  O  O307  1  0.25096743  0.23803217  0.38294547  1
  O  O308  1  0.23679947  0.24690582  0.87593589  1
  O  O309  1  0.24896613  0.74276911  0.38313358  1
  O  O310  1  0.28650669  0.74856066  0.88365822  1
  O  O311  1  0.74381988  0.24438821  0.37842275  1
  O  O312  1  0.74046742  0.24302864  0.88103675  1
  O  O313  1  0.74090905  0.74848230  0.38220962  1
  O  O314  1  0.74195970  0.74443597  0.88097351  1
  O  O315  1  -0.01070430  0.11595476  0.01017524  1
  O  O316  1  -0.00012075  0.12915438  0.51257510  1
  O  O317  1  -0.02733218  0.60381093  0.00646943  1
  O  O318  1  0.00569123  0.62260809  0.50451564  1
  O  O319  1  0.50637973  0.11597666  0.00608332  1
  O  O320  1  0.50047498  0.11120774  0.50816051  1
  O  O321  1  0.51406825  0.61424372  0.00401110  1
  O  O322  1  0.51180935  0.60912094  0.49676221  1
  O  O323  1  0.49541044  0.38129140  0.49343120  1
  O  O324  1  0.49459050  0.37994244  0.99329295  1
  O  O325  1  0.50303515  0.88489247  0.49592435  1
  O  O326  1  0.50904935  0.89113427  0.98869063  1
  O  O327  1  0.99182613  0.38400596  0.49933252  1
  O  O328  1  0.98917375  0.38852526  0.98826467  1
  O  O329  1  0.98436718  0.85232952  0.48084912  1
  O  O330  1  0.99028192  0.88254188  0.99865973  1
  O  O331  1  0.50110351  0.48792696  0.38390143  1
  O  O332  1  0.50925886  0.48775624  0.88956775  1
  O  O333  1  0.50453835  0.99337161  0.39015627  1
  O  O334  1  0.49443842  1.00050594  0.87992147  1
  O  O335  1  0.99814611  0.49826931  0.38729849  1
  O  O336  1  0.97935631  0.48418848  0.87175629  1
  O  O337  1  0.99364042  0.99314820  0.37748374  1
  O  O338  1  0.99161343  1.00080870  0.88128885  1
  O  O339  1  -0.00164666  0.00840785  0.11569020  1
  O  O340  1  -0.01424174  0.02531598  0.61973049  1
  O  O341  1  0.00990106  0.51145231  0.11809288  1
  O  O342  1  -0.00263289  0.51104029  0.61455936  1
  O  O343  1  0.50258901  0.00332591  0.11747447  1
  O  O344  1  0.50652727  0.00590790  0.61744750  1
  O  O345  1  0.51148706  0.49687199  0.11807828  1
  O  O346  1  0.50187075  0.49031449  0.61054284  1
  O  O347  1  0.24954050  0.38671212  0.25804691  1
  O  O348  1  0.24330660  0.37700222  0.73637842  1
  O  O349  1  0.24150241  0.88196621  0.24776235  1
  O  O350  1  0.24590813  0.88642635  0.74647458  1
  O  O351  1  0.76024764  0.38066186  0.23623331  1
  O  O352  1  0.74550847  0.38331951  0.73919811  1
  O  O353  1  0.74011234  0.88158499  0.24556809  1
  O  O354  1  0.73950211  0.87500749  0.75991643  1
  O  O355  1  0.24968187  0.10882233  0.25728695  1
  O  O356  1  0.25165812  0.12017959  0.75962145  1
  O  O357  1  0.24859870  0.61398243  0.25946930  1
  O  O358  1  0.23116504  0.60681452  0.76455507  1
  O  O359  1  0.75938336  0.12071479  0.25489544  1
  O  O360  1  0.76186302  0.13043750  0.76110842  1
  O  O361  1  0.76131634  0.61407028  0.24065329  1
  O  O362  1  0.75022203  0.61860749  0.75507987  1
  O  O363  1  0.36282720  0.11746753  0.37519250  1
  O  O364  1  0.36589045  0.12299054  0.87489901  1
  O  O365  1  0.36356066  0.62287121  0.37539038  1
  O  O366  1  0.37987650  0.62049900  0.84723764  1
  O  O367  1  0.86843363  0.11956071  0.36701653  1
  O  O368  1  0.86991031  0.12007160  0.86628954  1
  O  O369  1  0.88231777  0.62392033  0.35757125  1
  O  O370  1  0.86345414  0.61053860  0.86624027  1
  O  O371  1  0.12093430  0.38287859  0.13678852  1
  O  O372  1  0.13135606  0.37319236  0.62697497  1
  O  O373  1  0.13560121  0.87834606  0.12989964  1
  O  O374  1  0.14240488  0.86761137  0.64459142  1
  O  O375  1  0.63643424  0.38140073  0.11892059  1
  O  O376  1  0.63546588  0.37136571  0.62317001  1
  O  O377  1  0.62797283  0.87878361  0.13173296  1
  O  O378  1  0.63309109  0.88967332  0.63791742  1
  O  O379  1  0.11636024  0.25050042  0.26248946  1
  O  O380  1  0.12902935  0.26267260  0.75744947  1
  O  O381  1  0.11680892  0.75982615  0.24698689  1
  O  O382  1  0.11609306  0.75168989  0.74823285  1
  O  O383  1  0.61406340  0.24555719  0.26232278  1
  O  O384  1  0.62987673  0.25150122  0.75946509  1
  O  O385  1  0.63305987  0.75789163  0.25835263  1
  O  O386  1  0.62442478  0.76461041  0.75495558  1
  O  O387  1  0.39049304  0.24328985  0.25112117  1
  O  O388  1  0.36869927  0.25463973  0.73507007  1
  O  O389  1  0.36086681  0.74579393  0.22950416  1
  O  O390  1  0.39150658  0.74355622  0.74383585  1
  O  O391  1  0.87607149  0.24175048  0.24462883  1
  O  O392  1  0.87631551  0.24328567  0.75728475  1
  O  O393  1  0.87794499  0.74564431  0.24723353  1
  O  O394  1  0.87940462  0.74277193  0.74257117  1
  O  O395  1  0.38706435  0.49341128  0.49868280  1
  O  O396  1  0.38966609  0.49118479  1.00842192  1
  O  O397  1  0.39124499  0.99817096  0.50123927  1
  O  O398  1  0.38384366  1.00396947  0.98720008  1
  O  O399  1  0.88096877  0.49713100  0.49734331  1
  O  O400  1  0.86227016  0.48785262  0.98930601  1
  O  O401  1  0.87690932  0.99794878  0.48662568  1
  O  O402  1  0.88080397  0.99105608  0.99267674  1
  O  O403  1  0.10899385  -0.00482165  -0.00211460  1
  O  O404  1  0.10619154  -0.05165427  0.50833572  1
  O  O405  1  0.11676928  0.47795395  0.01724910  1
  O  O406  1  0.11700225  0.51348227  0.50251953  1
  O  O407  1  0.61973607  0.00729506  0.00551831  1
  O  O408  1  0.61764194  -0.00652820  0.51453971  1
  O  O409  1  0.62373006  0.50530758  0.01002097  1
  O  O410  1  0.61913696  0.51022245  0.49754080  1
  O  O411  1  0.37960638  0.37038074  0.11195254  1
  O  O412  1  0.36977803  0.36942226  0.61355966  1
  O  O413  1  0.36141273  0.86662781  0.12890836  1
  O  O414  1  0.36158395  0.88196680  0.63338536  1
  O  O415  1  0.87108864  0.37247977  0.11546825  1
  O  O416  1  0.86255148  0.37866586  0.61210910  1
  O  O417  1  0.86649076  0.87421000  0.11984043  1
  O  O418  1  0.88222993  0.86241527  0.62464573  1
  O  O419  1  0.13856534  0.11839417  0.37604969  1
  O  O420  1  0.12829959  0.14415888  0.87124126  1
  O  O421  1  0.13480281  0.62769684  0.38253429  1
  O  O422  1  0.08678756  0.58101158  0.90544346  1
  O  O423  1  0.63953812  0.12891436  0.36990632  1
  O  O424  1  0.63253232  0.12901383  0.87601613  1
  O  O425  1  0.62348689  0.63219408  0.38096071  1
  O  O426  1  0.62788417  0.63034943  0.88184023  1
