# generated using pymatgen
data_V85Zn86O256
_symmetry_space_group_name_H-M   'P 1'
_cell_length_a   16.96802622
_cell_length_b   16.98066204
_cell_length_c   16.97049774
_cell_angle_alpha   89.98863282
_cell_angle_beta   90.00623848
_cell_angle_gamma   90.03135756
_symmetry_Int_Tables_number   1
_chemical_formula_structural   V85Zn86O256
_chemical_formula_sum   'V85 Zn86 O256'
_cell_volume   4889.68012259
_cell_formula_units_Z   1
loop_
 _symmetry_equiv_pos_site_id
 _symmetry_equiv_pos_as_xyz
  1  'x, y, z'
loop_
 _atom_site_type_symbol
 _atom_site_label
 _atom_site_symmetry_multiplicity
 _atom_site_fract_x
 _atom_site_fract_y
 _atom_site_fract_z
 _atom_site_occupancy
  V  V0  1  0.49543780  0.24773479  0.25155491  1
  V  V1  1  0.49734441  0.87879214  0.87575155  1
  V  V2  1  0.12579235  0.87368362  0.75119390  1
  V  V3  1  0.74997050  0.87126220  0.11926707  1
  V  V4  1  0.12625807  0.00065467  0.62167202  1
  V  V5  1  0.25602217  0.12767704  0.36889611  1
  V  V6  1  0.24828622  0.37649471  0.62462700  1
  V  V7  1  0.37519905  0.37787183  0.49758330  1
  V  V8  1  0.63559772  0.37365667  0.74767875  1
  V  V9  1  0.49929467  0.62058496  0.63472998  1
  V  V10  1  0.49858311  0.00232327  0.49660631  1
  V  V11  1  0.24841821  0.39295693  0.13591423  1
  V  V12  1  0.36499034  0.24642356  0.12621529  1
  V  V13  1  0.12361773  0.00234238  0.12104902  1
  V  V14  1  0.75074454  0.61316132  0.37084925  1
  V  V15  1  0.36479301  0.37191099  0.00209533  1
  V  V16  1  0.00719824  0.61659660  0.12752257  1
  V  V17  1  0.63749808  0.49565374  0.62521823  1
  V  V18  1  0.11785817  0.38571377  0.25056952  1
  V  V19  1  0.11864602  0.49884037  0.61504586  1
  V  V20  1  0.12416152  0.87522595  0.24785662  1
  V  V21  1  0.89388167  0.49606271  0.37391976  1
  V  V22  1  0.75701163  0.12388445  0.37936693  1
  V  V23  1  0.87392474  0.87421436  0.48957268  1
  V  V24  1  0.62978112  0.00764832  0.12541551  1
  V  V25  1  0.63967410  0.37580104  0.25217044  1
  V  V26  1  0.37476013  0.61172433  0.25328863  1
  V  V27  1  0.62636376  0.87468039  0.74648697  1
  V  V28  1  0.64828652  0.49843478  0.13610010  1
  V  V29  1  0.12214078  0.12507277  0.49531976  1
  V  V30  1  -0.00111664  0.87779069  0.37117954  1
  V  V31  1  0.37266737  0.24324902  0.62266347  1
  V  V32  1  0.75737192  0.00096980  0.25219031  1
  V  V33  1  0.25266219  0.61246947  0.36998172  1
  V  V34  1  0.74755289  0.26239171  0.50417821  1
  V  V35  1  0.01351674  0.49046216  -0.00833010  1
  V  V36  1  0.49560906  0.74723073  0.75032623  1
  V  V37  1  0.25737438  0.00330754  0.24774497  1
  V  V38  1  0.37754901  0.74895686  0.12509181  1
  V  V39  1  0.76449371  0.89038285  0.63389695  1
  V  V40  1  0.25079754  0.87495424  0.12325953  1
  V  V41  1  0.50243297  0.00573180  -0.00172156  1
  V  V42  1  0.37670417  0.50937746  0.86964432  1
  V  V43  1  0.62567039  0.25027149  0.37322564  1
  V  V44  1  0.87498382  0.74759490  0.12318800  1
  V  V45  1  0.50490234  0.62091965  0.12493507  1
  V  V46  1  0.25149608  0.75032970  -0.00172645  1
  V  V47  1  0.25002259  0.87390470  0.62239856  1
  V  V48  1  0.87545148  0.74565941  0.62990560  1
  V  V49  1  0.62760468  0.74996891  0.37448554  1
  V  V50  1  0.24363572  0.62578743  0.87214355  1
  V  V51  1  0.88188092  0.12848694  0.25064007  1
  V  V52  1  0.24760173  0.25056742  0.49618291  1
  V  V53  1  -0.01095235  0.00324007  0.49494215  1
  V  V54  1  0.11164244  0.25152510  0.36404616  1
  V  V55  1  -0.00135735  0.13412887  0.12223039  1
  V  V56  1  -0.00091303  0.62385417  0.61934804  1
  V  V57  1  0.31908885  0.17311756  0.80281739  1
  V  V58  1  -0.00383874  0.87950814  0.87583499  1
  V  V59  1  0.24740764  0.74976807  0.49324431  1
  V  V60  1  0.49444990  0.50203125  0.49813737  1
  V  V61  1  0.62507250  0.75055834  0.88465216  1
  V  V62  1  0.37527902  0.87544089  0.49662411  1
  V  V63  1  0.50054979  0.23995977  0.75452939  1
  V  V64  1  0.49969721  0.12760860  0.12976563  1
  V  V65  1  0.25825552  -0.00131566  0.75376658  1
  V  V66  1  0.37388846  0.74388048  0.62509123  1
  V  V67  1  0.89094529  0.38104900  0.50429773  1
  V  V68  1  0.62409701  0.62565874  0.50197725  1
  V  V69  1  0.49495860  0.38052383  0.37272110  1
  V  V70  1  0.49512000  0.37329255  0.86782149  1
  V  V71  1  0.49421994  0.49455221  0.00691112  1
  V  V72  1  0.64273367  0.58204062  -0.03169308  1
  V  V73  1  -0.00717265  0.26078659  0.75589326  1
  V  V74  1  0.62514686  0.12706402  0.49945119  1
  V  V75  1  0.50138121  0.87482906  0.37297897  1
  V  V76  1  0.75098559  0.75275619  0.49957415  1
  V  V77  1  0.87793155  0.37786425  -0.01789098  1
  V  V78  1  0.24897599  0.51058810  0.74424247  1
  V  V79  1  0.13561135  0.13043810  -0.00745144  1
  V  V80  1  -0.00748536  0.12569408  0.63422178  1
  V  V81  1  0.87191463  0.26426796  0.13000098  1
  V  V82  1  0.62581307  0.00150554  0.62442242  1
  V  V83  1  -0.01116650  0.00648460  -0.00361050  1
  V  V84  1  0.50025011  0.74865926  0.25029491  1
  Zn  Zn85  1  -0.00341806  0.74878365  0.75257349  1
  Zn  Zn86  1  0.49399535  0.12151413  0.62883647  1
  Zn  Zn87  1  0.37893775  0.00525526  0.36747359  1
  Zn  Zn88  1  0.12513713  0.74951066  0.37217651  1
  Zn  Zn89  1  0.86628219  0.25219529  0.62605327  1
  Zn  Zn90  1  0.62764445  0.87576616  0.25022816  1
  Zn  Zn91  1  0.11751292  0.25121102  0.87898581  1
  Zn  Zn92  1  -0.00227179  0.74911403  0.24816605  1
  Zn  Zn93  1  0.37526342  0.00454345  0.87290846  1
  Zn  Zn94  1  0.86929707  0.61763101  0.24201866  1
  Zn  Zn95  1  0.87041694  0.87523897  -0.00493590  1
  Zn  Zn96  1  0.37553853  0.87754713  -0.00101985  1
  Zn  Zn97  1  0.13163426  0.61952850  0.00973713  1
  Zn  Zn98  1  0.62138244  0.16479491  -0.02127315  1
  Zn  Zn99  1  0.83571822  -0.00435857  0.83246919  1
  Zn  Zn100  1  0.12304348  0.75131045  0.87721781  1
  Zn  Zn101  1  0.12079690  0.61750512  0.49069218  1
  Zn  Zn102  1  0.74871053  0.12820690  0.86686323  1
  Zn  Zn103  1  0.78385558  0.70657134  -0.04365837  1
  Zn  Zn104  1  0.11969033  0.37838444  0.75640870  1
  Zn  Zn105  1  0.75226417  0.25105029  0.00162179  1
  Zn  Zn106  1  0.84244133  0.58789048  0.80666375  1
  Zn  Zn107  1  0.18388038  0.18694632  0.18737131  1
  Zn  Zn108  1  0.17543423  0.19175501  0.68482944  1
  Zn  Zn109  1  0.18929308  0.68878571  0.19038610  1
  Zn  Zn110  1  0.18059471  0.68520053  0.68454949  1
  Zn  Zn111  1  0.69135436  0.18958354  0.18692705  1
  Zn  Zn112  1  0.67973945  0.18858407  0.69149912  1
  Zn  Zn113  1  0.68859171  0.68632592  0.18618390  1
  Zn  Zn114  1  0.69189105  0.69145640  0.68862321  1
  Zn  Zn115  1  0.31226977  0.31312824  0.31068350  1
  Zn  Zn116  1  0.27439429  0.34406679  0.83699595  1
  Zn  Zn117  1  0.31446830  0.81187102  0.31061850  1
  Zn  Zn118  1  0.31453054  0.81311695  0.81127578  1
  Zn  Zn119  1  0.82270473  0.31119515  0.31784003  1
  Zn  Zn120  1  0.81499983  0.30970781  0.81257470  1
  Zn  Zn121  1  0.81243751  0.80917549  0.30654162  1
  Zn  Zn122  1  0.81363771  0.81603600  0.80974851  1
  Zn  Zn123  1  0.18441015  0.43398026  0.43269568  1
  Zn  Zn124  1  0.18216706  0.43940009  0.94328932  1
  Zn  Zn125  1  0.18554355  0.93972036  0.43385399  1
  Zn  Zn126  1  0.18569373  0.94095608  0.93641654  1
  Zn  Zn127  1  0.68088562  0.43738667  0.43859560  1
  Zn  Zn128  1  0.67253748  0.39659869  0.94990451  1
  Zn  Zn129  1  0.68929899  0.93975974  0.43727662  1
  Zn  Zn130  1  0.68577929  0.94182851  0.94096907  1
  Zn  Zn131  1  0.31627216  0.06349332  0.06283173  1
  Zn  Zn132  1  0.30971878  0.06179466  0.55834088  1
  Zn  Zn133  1  0.31437722  0.56530976  0.06310514  1
  Zn  Zn134  1  0.31085201  0.56477023  0.55725130  1
  Zn  Zn135  1  0.80988425  0.07213673  0.05330490  1
  Zn  Zn136  1  0.80926207  0.06776216  0.67483145  1
  Zn  Zn137  1  0.82513652  0.56560316  0.03552752  1
  Zn  Zn138  1  0.81555181  0.56347445  0.55715249  1
  Zn  Zn139  1  0.43710681  0.43266174  0.19027749  1
  Zn  Zn140  1  0.43433570  0.43744373  0.68778528  1
  Zn  Zn141  1  0.43871251  0.93668242  0.18527565  1
  Zn  Zn142  1  0.43842275  0.93522727  0.68499124  1
  Zn  Zn143  1  0.93986580  0.44264869  0.19351043  1
  Zn  Zn144  1  0.92769832  0.44146123  0.68536452  1
  Zn  Zn145  1  0.93557597  0.94080786  0.18204475  1
  Zn  Zn146  1  0.94436001  0.93161151  0.67962527  1
  Zn  Zn147  1  0.06396700  0.06115419  0.31032878  1
  Zn  Zn148  1  0.06544703  0.06094704  0.81384555  1
  Zn  Zn149  1  0.06474468  0.56566312  0.30794312  1
  Zn  Zn150  1  0.02612464  0.54160606  0.78730446  1
  Zn  Zn151  1  0.56653681  0.06426136  0.31021168  1
  Zn  Zn152  1  0.60372463  0.05237457  0.82372906  1
  Zn  Zn153  1  0.56466722  0.56171707  0.31130529  1
  Zn  Zn154  1  0.66969389  0.55906078  0.80246180  1
  Zn  Zn155  1  0.43639788  0.18892080  0.43668052  1
  Zn  Zn156  1  0.44026326  0.19144309  0.94498554  1
  Zn  Zn157  1  0.43519526  0.68583411  0.43678948  1
  Zn  Zn158  1  0.44355178  0.68212298  0.93962926  1
  Zn  Zn159  1  0.93301967  0.18950029  0.44109277  1
  Zn  Zn160  1  0.90407797  0.19023176  0.91686403  1
  Zn  Zn161  1  0.93778832  0.68718881  0.43583777  1
  Zn  Zn162  1  0.94900847  0.68482327  0.94203987  1
  Zn  Zn163  1  0.06584439  0.31099431  0.06746333  1
  Zn  Zn164  1  0.06414332  0.30851321  0.56401987  1
  Zn  Zn165  1  0.06110972  0.81148698  0.06040004  1
  Zn  Zn166  1  0.06114359  0.81099570  0.55968648  1
  Zn  Zn167  1  0.56095277  0.31889050  0.07014054  1
  Zn  Zn168  1  0.56041592  0.31301836  0.56642888  1
  Zn  Zn169  1  0.56220156  0.81913672  0.06513022  1
  Zn  Zn170  1  0.56345284  0.81419148  0.56258685  1
  O  O171  1  0.11728181  0.12077363  0.11904600  1
  O  O172  1  0.11569305  0.11973230  0.61507324  1
  O  O173  1  0.11127702  0.63251135  0.12821044  1
  O  O174  1  0.12335786  0.61519047  0.61421889  1
  O  O175  1  0.61451702  0.12050408  0.13001011  1
  O  O176  1  0.61685664  0.11769226  0.61597255  1
  O  O177  1  0.61830219  0.60654996  0.13803399  1
  O  O178  1  0.61671569  0.61956250  0.61951509  1
  O  O179  1  0.38726923  0.36999888  0.38038690  1
  O  O180  1  0.36979323  0.38674827  0.88635667  1
  O  O181  1  0.38275856  0.87809563  0.38006775  1
  O  O182  1  0.38800011  0.87909642  0.87413794  1
  O  O183  1  0.87570267  0.38878954  0.38480980  1
  O  O184  1  0.88372502  0.37713766  0.88418750  1
  O  O185  1  0.88110534  0.87059028  0.38185326  1
  O  O186  1  0.88019554  0.88504072  0.87385593  1
  O  O187  1  0.25016959  0.00851351  0.36504815  1
  O  O188  1  0.25484211  -0.00468949  0.86193663  1
  O  O189  1  0.25144605  0.51430286  0.38037242  1
  O  O190  1  0.25438238  0.50898793  0.86629097  1
  O  O191  1  0.74408265  0.01133003  0.36501399  1
  O  O192  1  0.71935101  0.00278693  0.85670657  1
  O  O193  1  0.74750865  0.51247441  0.38254677  1
  O  O194  1  0.69298545  0.51133625  0.90460334  1
  O  O195  1  0.25499954  0.49126314  0.13005712  1
  O  O196  1  0.24720250  0.49696094  0.62823276  1
  O  O197  1  0.24539857  0.99539222  0.12978268  1
  O  O198  1  0.24521970  0.99290698  0.62714308  1
  O  O199  1  0.74433299  0.50534315  0.12327255  1
  O  O200  1  0.73622254  0.50449523  0.61614956  1
  O  O201  1  0.74309752  0.99770153  0.13146895  1
  O  O202  1  0.73106331  1.00067180  0.61054576  1
  O  O203  1  0.01907265  0.37560442  0.24356623  1
  O  O204  1  0.00233881  0.36271187  0.74415875  1
  O  O205  1  0.00643403  0.87921362  0.25451010  1
  O  O206  1  0.01012887  0.87538482  0.75604856  1
  O  O207  1  0.50593346  0.36886346  0.25860234  1
  O  O208  1  0.49275657  0.36596095  0.75652146  1
  O  O209  1  0.50166836  0.86798617  0.25601873  1
  O  O210  1  0.50504785  0.86734178  0.75460143  1
  O  O211  1  0.50250731  0.13555999  0.24400961  1
  O  O212  1  0.50386347  0.13957440  0.74760512  1
  O  O213  1  0.49361212  0.63121627  0.24834996  1
  O  O214  1  0.50036631  0.63341425  0.73562941  1
  O  O215  1  0.98812165  0.11424098  0.24156328  1
  O  O216  1  1.00322615  0.12262208  0.73659252  1
  O  O217  1  0.99563772  0.62761086  0.23905196  1
  O  O218  1  1.01821887  0.63887009  0.72558204  1
  O  O219  1  0.37842308  0.26115806  0.01292338  1
  O  O220  1  0.36806335  0.25683969  0.50536342  1
  O  O221  1  0.36881300  0.74878395  0.00611268  1
  O  O222  1  0.36622855  0.75520902  0.50443138  1
  O  O223  1  0.88959775  0.26801803  0.01732633  1
  O  O224  1  0.86477177  0.26471676  0.49843387  1
  O  O225  1  0.87415219  0.75661237  0.01053197  1
  O  O226  1  0.86732588  0.75638926  0.50152084  1
  O  O227  1  0.13060956  0.24624093  0.48827944  1
  O  O228  1  0.12201128  0.23506105  0.99884231  1
  O  O229  1  0.14006520  0.75320299  0.49777655  1
  O  O230  1  0.14107522  0.74986032  0.99874498  1
  O  O231  1  0.63055306  0.24896810  0.49473687  1
  O  O232  1  0.63702401  0.28314651  0.99711013  1
  O  O233  1  0.63094395  0.74610505  0.49542889  1
  O  O234  1  0.61541317  0.75545873  0.98391644  1
  O  O235  1  0.49446432  0.24588124  0.13332979  1
  O  O236  1  0.48625194  0.25065993  0.63279590  1
  O  O237  1  0.49922447  0.74257932  0.12959667  1
  O  O238  1  0.49372657  0.74507977  0.62930149  1
  O  O239  1  0.99566774  0.23803015  0.12806858  1
  O  O240  1  1.00236800  0.23640886  0.63267422  1
  O  O241  1  0.99199386  0.74173437  0.12327906  1
  O  O242  1  0.99011856  0.74823305  0.62400042  1
  O  O243  1  0.01403046  0.24388482  0.37665056  1
  O  O244  1  -0.00538343  0.24097330  0.85760846  1
  O  O245  1  0.00268680  0.76315891  0.37104175  1
  O  O246  1  0.00173177  0.76253980  0.87365276  1
  O  O247  1  0.50468764  0.25565957  0.36867826  1
  O  O248  1  0.48504525  0.26379965  0.86698568  1
  O  O249  1  0.50589835  0.75384911  0.37048933  1
  O  O250  1  0.50202851  0.75602468  0.86771483  1
  O  O251  1  0.24100203  0.12919900  0.49026549  1
  O  O252  1  0.23371005  0.11870568  1.00555950  1
  O  O253  1  0.25070831  0.63379725  0.48591751  1
  O  O254  1  0.25045401  0.63266016  0.99383187  1
  O  O255  1  0.74224120  0.13573025  0.48542125  1
  O  O256  1  0.73151125  0.13214979  1.00464951  1
  O  O257  1  0.74304405  0.63279104  0.49184579  1
  O  O258  1  0.72270822  0.62707842  1.01632186  1
  O  O259  1  0.25894019  0.38047160  0.01681829  1
  O  O260  1  0.25503233  0.37156164  0.50677670  1
  O  O261  1  0.25396666  0.86932768  0.00429488  1
  O  O262  1  0.25545609  0.87074986  0.50232838  1
  O  O263  1  0.77553485  0.37678168  -0.00217630  1
  O  O264  1  0.75030790  0.36399175  0.49302611  1
  O  O265  1  0.74970012  0.88188801  0.01444297  1
  O  O266  1  0.75983933  0.87449010  0.50456492  1
  O  O267  1  0.12829017  0.48464985  0.25829954  1
  O  O268  1  0.13112826  0.49674681  0.73584869  1
  O  O269  1  0.13349393  0.99127810  0.24224474  1
  O  O270  1  0.13503195  0.99120451  0.74362863  1
  O  O271  1  0.62764475  0.49158905  0.24407586  1
  O  O272  1  0.61636377  0.48381395  0.73694299  1
  O  O273  1  0.63494355  1.00092660  0.23979544  1
  O  O274  1  0.60785960  0.98601729  0.73293689  1
  O  O275  1  0.36143977  -0.00440786  0.24838632  1
  O  O276  1  0.36332872  -0.00272011  0.74611574  1
  O  O277  1  0.38183714  0.51280575  0.25075025  1
  O  O278  1  0.36413150  0.49840823  0.75862395  1
  O  O279  1  0.86268488  0.00946404  0.24338905  1
  O  O280  1  0.84473376  -0.03304907  0.71763481  1
  O  O281  1  0.87603876  0.50130415  0.26898487  1
  O  O282  1  0.91424281  0.51681693  0.76433343  1
  O  O283  1  0.13143762  0.36114997  0.36274439  1
  O  O284  1  0.16007854  0.36087947  0.86658685  1
  O  O285  1  0.11814092  0.87493002  0.36417119  1
  O  O286  1  0.11871670  0.87412343  0.86638943  1
  O  O287  1  0.61285046  0.36958617  0.37090435  1
  O  O288  1  0.60651115  0.37709303  0.85530950  1
  O  O289  1  0.61954612  0.86878186  0.37331873  1
  O  O290  1  0.61171214  0.86654366  0.86694810  1
  O  O291  1  0.38962661  0.13314377  0.11945973  1
  O  O292  1  0.37397913  0.13880601  0.61484353  1
  O  O293  1  0.38291779  0.63137197  0.13208083  1
  O  O294  1  0.38220880  0.63765842  0.61678344  1
  O  O295  1  0.88223498  0.13341524  0.13096414  1
  O  O296  1  0.89091223  0.12819999  0.61566630  1
  O  O297  1  0.88355941  0.63080344  0.12020241  1
  O  O298  1  0.88318696  0.63563594  0.61507042  1
  O  O299  1  0.26370547  0.24993143  0.13342432  1
  O  O300  1  0.25219412  0.25788418  0.61930040  1
  O  O301  1  0.25662696  0.75428870  0.11780876  1
  O  O302  1  0.25722772  0.75315671  0.61759595  1
  O  O303  1  0.76887663  0.24902888  0.12481209  1
  O  O304  1  0.74788530  0.24435863  0.60572133  1
  O  O305  1  0.75620957  0.75993616  0.12947542  1
  O  O306  1  0.75833529  0.75991203  0.61776412  1
  O  O307  1  0.24516067  0.24332516  0.37789637  1
  O  O308  1  0.26329155  0.23123392  0.86105500  1
  O  O309  1  0.24967772  0.74676396  0.38136697  1
  O  O310  1  0.25585577  0.74350470  0.88183517  1
  O  O311  1  0.74501184  0.24378152  0.38135912  1
  O  O312  1  0.79422649  0.23599789  0.89248456  1
  O  O313  1  0.74555246  0.74498898  0.38100283  1
  O  O314  1  0.73043815  0.76203673  0.87347100  1
  O  O315  1  0.00672442  0.11768283  0.00824838  1
  O  O316  1  0.00318540  0.11866339  0.50369336  1
  O  O317  1  0.00898300  0.61308256  0.01114988  1
  O  O318  1  0.00746060  0.63663337  0.51119197  1
  O  O319  1  0.51040031  0.12303063  0.00785208  1
  O  O320  1  0.50525866  0.11734913  0.49807506  1
  O  O321  1  0.51881945  0.60646089  -0.00045825  1
  O  O322  1  0.50440162  0.61915529  0.50526352  1
  O  O323  1  0.49600223  0.38241931  0.49365299  1
  O  O324  1  0.48566306  0.38160546  0.99677249  1
  O  O325  1  0.49619380  0.88216839  0.49276292  1
  O  O326  1  0.49759678  0.88463327  0.99227709  1
  O  O327  1  0.98892174  0.36946822  0.50067143  1
  O  O328  1  1.00158141  0.38518181  1.00785789  1
  O  O329  1  0.99594683  0.88059215  0.48985484  1
  O  O330  1  0.99980742  0.88398783  0.99088413  1
  O  O331  1  0.50553703  0.49195475  0.38463884  1
  O  O332  1  0.48718471  0.48632083  0.88545811  1
  O  O333  1  0.49985351  0.99571271  0.37881548  1
  O  O334  1  0.50618021  0.99413032  0.88317886  1
  O  O335  1  0.99157952  0.50791416  0.37889137  1
  O  O336  1  1.02242790  0.49845226  0.89371024  1
  O  O337  1  1.00590025  0.98847387  0.38170583  1
  O  O338  1  1.00618601  0.98901594  0.88240178  1
  O  O339  1  0.00785472  0.00829398  0.11841122  1
  O  O340  1  0.00589800  0.00961592  0.61643914  1
  O  O341  1  -0.00089629  0.51449349  0.12373459  1
  O  O342  1  0.00836753  0.50890118  0.62212165  1
  O  O343  1  0.50519687  0.00961853  0.12216544  1
  O  O344  1  0.50421102  -0.00023323  0.61264129  1
  O  O345  1  0.49175815  0.50532266  0.11801753  1
  O  O346  1  0.50161991  0.50753951  0.61885086  1
  O  O347  1  0.24712911  0.37483391  0.24006815  1
  O  O348  1  0.25284945  0.38868144  0.73229110  1
  O  O349  1  0.24312414  0.88091375  0.24395422  1
  O  O350  1  0.24632598  0.88084537  0.74186751  1
  O  O351  1  0.73788130  0.36726158  0.26221052  1
  O  O352  1  0.73449652  0.36997187  0.75716894  1
  O  O353  1  0.75002184  0.88539059  0.24239820  1
  O  O354  1  0.73042261  0.86253533  0.74377754  1
  O  O355  1  0.24376863  0.11481781  0.25674285  1
  O  O356  1  0.25119920  0.11869466  0.74416899  1
  O  O357  1  0.25905317  0.63026050  0.26175150  1
  O  O358  1  0.24745164  0.61741680  0.75405074  1
  O  O359  1  0.75848311  0.12103315  0.25806999  1
  O  O360  1  0.75582436  0.13283488  0.74607592  1
  O  O361  1  0.75200728  0.63048308  0.26759236  1
  O  O362  1  0.74869458  0.62085241  0.75409958  1
  O  O363  1  0.36052145  0.12424003  0.37825389  1
  O  O364  1  0.37938476  0.12303649  0.86984228  1
  O  O365  1  0.36302880  0.62970248  0.36660871  1
  O  O366  1  0.36853482  0.61338202  0.88213539  1
  O  O367  1  0.86773570  0.13103034  0.36576676  1
  O  O368  1  0.86384655  0.08870107  0.88938098  1
  O  O369  1  0.86575373  0.61177545  0.38018932  1
  O  O370  1  0.85540570  0.62464779  0.91479003  1
  O  O371  1  0.14163424  0.36711048  0.13828049  1
  O  O372  1  0.13357585  0.37997179  0.62393218  1
  O  O373  1  0.12999205  0.88176546  0.12894935  1
  O  O374  1  0.12929691  0.88092812  0.62978507  1
  O  O375  1  0.62213946  0.38975491  0.14151841  1
  O  O376  1  0.62005343  0.38384549  0.63499593  1
  O  O377  1  0.63226451  0.88416691  0.12995883  1
  O  O378  1  0.63137937  0.88192706  0.62921561  1
  O  O379  1  0.12707017  0.25447504  0.26126014  1
  O  O380  1  0.10996901  0.25176672  0.75447632  1
  O  O381  1  0.12315499  0.76588550  0.24815642  1
  O  O382  1  0.12993990  0.76588432  0.75041428  1
  O  O383  1  0.61659287  0.25678396  0.25323322  1
  O  O384  1  0.61006743  0.26737269  0.73662917  1
  O  O385  1  0.61636451  0.75016175  0.25618147  1
  O  O386  1  0.61062490  0.75621734  0.75339471  1
  O  O387  1  0.38875497  0.25561494  0.24332966  1
  O  O388  1  0.37450567  0.24032392  0.74313770  1
  O  O389  1  0.38415923  0.74484341  0.24352393  1
  O  O390  1  0.38647572  0.75522720  0.73988542  1
  O  O391  1  0.87567234  0.24139719  0.24144284  1
  O  O392  1  0.88858290  0.25512255  0.73941485  1
  O  O393  1  0.87745678  0.74450680  0.23678970  1
  O  O394  1  0.87604011  0.75572263  0.73481588  1
  O  O395  1  0.38708188  0.49512524  0.50485655  1
  O  O396  1  0.37932983  0.49528262  0.99580224  1
  O  O397  1  0.38558212  0.99576605  0.49692845  1
  O  O398  1  0.39014585  1.00165772  0.99781177  1
  O  O399  1  0.87227544  0.48744364  0.49037192  1
  O  O400  1  0.89661636  0.48292135  1.00685957  1
  O  O401  1  0.88884072  0.98893993  0.50081120  1
  O  O402  1  0.88880801  0.99369248  1.01846473  1
  O  O403  1  0.11713328  0.00818601  0.00513389  1
  O  O404  1  0.11716612  0.00528686  0.50314687  1
  O  O405  1  0.11841029  0.49969359  0.01346849  1
  O  O406  1  0.13187943  0.49806909  0.51049572  1
  O  O407  1  0.61261101  -0.00457919  0.01574109  1
  O  O408  1  0.61288531  0.00341944  0.50241546  1
  O  O409  1  0.61265693  0.48595071  0.02498534  1
  O  O410  1  0.61231100  0.50355177  0.50792018  1
  O  O411  1  0.36452498  0.36915408  0.12325125  1
  O  O412  1  0.36776546  0.36537192  0.61774856  1
  O  O413  1  0.36942213  0.86701549  0.12261473  1
  O  O414  1  0.37137709  0.86369009  0.61630756  1
  O  O415  1  0.88002488  0.36365718  0.13654668  1
  O  O416  1  0.87396231  0.37547070  0.60880231  1
  O  O417  1  0.86655767  0.86654959  0.12564438  1
  O  O418  1  0.87853467  0.86344998  0.60562453  1
  O  O419  1  0.13150560  0.13442900  0.37528456  1
  O  O420  1  0.12386157  0.12610918  0.88892168  1
  O  O421  1  0.13797478  0.62976363  0.37242697  1
  O  O422  1  0.14112116  0.63048241  0.87855261  1
  O  O423  1  0.63132046  0.13294430  0.37906196  1
  O  O424  1  0.62919480  0.14890379  0.86680367  1
  O  O425  1  0.63365668  0.62905965  0.38088357  1
  O  O426  1  0.61635091  0.64313731  0.87484382  1
