# generated using pymatgen
data_V85Zn86O256
_symmetry_space_group_name_H-M   'P 1'
_cell_length_a   16.93078580
_cell_length_b   16.94286049
_cell_length_c   16.93894523
_cell_angle_alpha   89.89676906
_cell_angle_beta   89.95416513
_cell_angle_gamma   90.09057655
_symmetry_Int_Tables_number   1
_chemical_formula_structural   V85Zn86O256
_chemical_formula_sum   'V85 Zn86 O256'
_cell_volume   4859.02156157
_cell_formula_units_Z   1
loop_
 _symmetry_equiv_pos_site_id
 _symmetry_equiv_pos_as_xyz
  1  'x, y, z'
loop_
 _atom_site_type_symbol
 _atom_site_label
 _atom_site_symmetry_multiplicity
 _atom_site_fract_x
 _atom_site_fract_y
 _atom_site_fract_z
 _atom_site_occupancy
  V  V0  1  0.05617535  0.17524984  0.06758143  1
  V  V1  1  0.00153622  0.25074192  0.75159627  1
  V  V2  1  0.75020813  0.75083466  0.51047374  1
  V  V3  1  -0.00375599  0.37593319  0.37441892  1
  V  V4  1  0.12858612  0.87854654  0.75167014  1
  V  V5  1  0.62302659  0.61688257  0.50260565  1
  V  V6  1  0.25401747  0.75200508  0.00445703  1
  V  V7  1  0.25095929  0.37247202  0.12119635  1
  V  V8  1  0.25053935  0.25234814  0.50113501  1
  V  V9  1  0.61701868  0.74835350  0.37103111  1
  V  V10  1  0.50037615  0.76217179  0.75233111  1
  V  V11  1  0.38634002  0.87642766  0.49980644  1
  V  V12  1  0.51505411  0.00287431  -0.00190260  1
  V  V13  1  0.12738960  0.00096209  0.62375865  1
  V  V14  1  0.37443059  0.62492905  0.75069180  1
  V  V15  1  0.12753878  0.61381453  0.00527749  1
  V  V16  1  0.74605767  -0.00001989  0.24541163  1
  V  V17  1  0.12508632  0.12554571  0.49774811  1
  V  V18  1  0.87023209  0.87207005  0.51308846  1
  V  V19  1  0.12401561  0.75173106  0.37432573  1
  V  V20  1  0.24896518  0.12879228  0.89422206  1
  V  V21  1  0.12451856  -0.00046403  0.12506409  1
  V  V22  1  0.00078871  0.62316316  0.12684668  1
  V  V23  1  -0.00417240  0.24555921  0.24891455  1
  V  V24  1  0.38074871  0.38001100  0.50286908  1
  V  V25  1  0.62413564  0.37113832  0.24527917  1
  V  V26  1  0.12268993  0.49737007  0.62726476  1
  V  V27  1  0.87363728  0.00070061  0.87339013  1
  V  V28  1  0.74857555  0.62417772  0.36809944  1
  V  V29  1  0.12305516  0.25143563  0.37452173  1
  V  V30  1  0.64398796  0.87865484  0.74488461  1
  V  V31  1  0.74972211  0.74292688  -0.00243727  1
  V  V32  1  0.50396857  0.37488542  0.87169737  1
  V  V33  1  0.75838928  0.24564036  0.00683581  1
  V  V34  1  -0.00944631  0.37455925  0.87614242  1
  V  V35  1  0.37678650  0.24014538  0.63053586  1
  V  V36  1  -0.01024394  0.49948241  0.00155844  1
  V  V37  1  0.38423812  0.87519512  -0.00709950  1
  V  V38  1  0.25141269  0.62404242  0.87587282  1
  V  V39  1  0.50041549  0.61997663  0.62386349  1
  V  V40  1  0.87175987  0.25041608  0.62411534  1
  V  V41  1  0.87132019  0.74944371  0.12711899  1
  V  V42  1  0.87326495  -0.00191017  0.37396377  1
  V  V43  1  0.50326722  0.38082563  0.37803578  1
  V  V44  1  0.37327656  0.35496641  0.00471138  1
  V  V45  1  -0.00184205  -0.00190706  0.49865082  1
  V  V46  1  0.48032558  0.24930871  0.24435096  1
  V  V47  1  0.12536380  0.62456476  0.49833026  1
  V  V48  1  0.62326885  0.50559642  0.12556904  1
  V  V49  1  0.62392485  0.75325332  0.86878035  1
  V  V50  1  0.74162631  0.12009226  0.88000696  1
  V  V51  1  0.63734871  0.00159778  0.61877883  1
  V  V52  1  0.86728822  0.12231138  0.75004168  1
  V  V53  1  0.12393075  0.38743578  0.24519535  1
  V  V54  1  0.61440162  0.87195031  0.24567251  1
  V  V55  1  0.12545965  0.75039796  0.87868269  1
  V  V56  1  0.00220175  0.87605487  0.87434025  1
  V  V57  1  0.62073847  0.24027732  0.37585564  1
  V  V58  1  0.25106033  0.49943653  0.75186056  1
  V  V59  1  0.37475963  0.49779784  0.87971172  1
  V  V60  1  0.37459808  0.75012742  0.62685247  1
  V  V61  1  0.00536430  -0.00066101  0.00210242  1
  V  V62  1  0.49780096  0.50212544  0.00516214  1
  V  V63  1  0.25256832  0.37545569  0.62704312  1
  V  V64  1  0.74748160  0.51465192  0.75124304  1
  V  V65  1  0.25486468  0.01353453  0.74824343  1
  V  V66  1  0.38185828  0.00903583  0.37124007  1
  V  V67  1  0.38200069  0.00047477  0.86859242  1
  V  V68  1  0.39030747  0.75022775  0.13158241  1
  V  V69  1  0.76023049  0.37354511  0.12015327  1
  V  V70  1  0.25271992  0.62649823  0.36997923  1
  V  V71  1  0.74466020  0.37290950  0.63547301  1
  V  V72  1  0.25293092  0.87254607  0.62433563  1
  V  V73  1  0.61885959  0.49412805  0.63130891  1
  V  V74  1  0.12554568  0.87592687  0.24942175  1
  V  V75  1  0.50177763  0.24038129  0.75370940  1
  V  V76  1  0.74286438  0.24535592  0.50059868  1
  V  V77  1  0.62574414  0.25184743  0.88137176  1
  V  V78  1  0.62311924  0.62455652  -0.00854431  1
  V  V79  1  0.74719608  0.87560684  0.12469001  1
  V  V80  1  0.86921851  0.51447270  0.87029128  1
  V  V81  1  0.87668505  0.12410081  0.23630470  1
  V  V82  1  -0.00217574  0.12412482  0.62599991  1
  V  V83  1  -0.00387407  0.50060775  0.50205441  1
  V  V84  1  0.37640840  0.50218774  0.37588608  1
  Zn  Zn85  1  0.25405662  0.87790922  0.12429850  1
  Zn  Zn86  1  0.75119396  0.49605361  0.25250302  1
  Zn  Zn87  1  0.12717396  0.24752088  0.88768377  1
  Zn  Zn88  1  0.39111955  0.62718500  0.24779424  1
  Zn  Zn89  1  0.87151867  0.37267938  0.49973092  1
  Zn  Zn90  1  0.25545103  0.12689160  0.37135804  1
  Zn  Zn91  1  0.87454217  0.87402441  0.00099914  1
  Zn  Zn92  1  -0.00308521  0.87251656  0.37472756  1
  Zn  Zn93  1  0.50743716  0.12371859  0.62179534  1
  Zn  Zn94  1  -0.02036206  0.63127310  0.63003231  1
  Zn  Zn95  1  0.25036646  0.50454549  0.24209334  1
  Zn  Zn96  1  0.12714718  0.37238563  0.75803078  1
  Zn  Zn97  1  0.87179368  0.50113401  0.37444334  1
  Zn  Zn98  1  0.49787557  0.87590406  0.36727379  1
  Zn  Zn99  1  -0.00262049  0.75058418  0.25024258  1
  Zn  Zn100  1  0.87358954  0.62471470  0.25219703  1
  Zn  Zn101  1  0.49781096  0.13067058  0.12013121  1
  Zn  Zn102  1  0.25126323  0.75309188  0.49786769  1
  Zn  Zn103  1  -0.01832639  0.74428956  0.74671338  1
  Zn  Zn104  1  0.25507111  0.00872976  0.24793641  1
  Zn  Zn105  1  0.51188623  0.01912472  0.49343582  1
  Zn  Zn106  1  0.74765838  0.12317845  0.37576879  1
  Zn  Zn107  1  0.19611590  0.19507345  0.19364689  1
  Zn  Zn108  1  0.18589779  0.18969935  0.68724215  1
  Zn  Zn109  1  0.18923531  0.68924634  0.18713761  1
  Zn  Zn110  1  0.12968318  0.68652687  0.68929122  1
  Zn  Zn111  1  0.68102448  0.18325719  0.18279796  1
  Zn  Zn112  1  0.68323011  0.18723539  0.69451153  1
  Zn  Zn113  1  0.56820475  0.68776548  0.18479391  1
  Zn  Zn114  1  0.80849527  0.68973521  0.68769288  1
  Zn  Zn115  1  0.30653147  0.31934774  0.31597751  1
  Zn  Zn116  1  0.31476556  0.30829351  0.81511731  1
  Zn  Zn117  1  0.31129823  0.81950009  0.31053976  1
  Zn  Zn118  1  0.31020813  0.81496788  0.81114582  1
  Zn  Zn119  1  0.81122205  0.30918973  0.30986739  1
  Zn  Zn120  1  0.81159219  0.31282169  0.81487592  1
  Zn  Zn121  1  0.80743384  0.81036454  0.31396680  1
  Zn  Zn122  1  0.81072296  0.81351275  0.82069061  1
  Zn  Zn123  1  0.18755491  0.43891684  0.43562806  1
  Zn  Zn124  1  0.18625750  0.43196578  0.93911283  1
  Zn  Zn125  1  0.19312976  0.93797109  0.43607147  1
  Zn  Zn126  1  0.19222747  0.94131068  0.93969669  1
  Zn  Zn127  1  0.68739557  0.43378129  0.44214374  1
  Zn  Zn128  1  0.68981288  0.43526398  0.93829809  1
  Zn  Zn129  1  0.68717710  0.93320800  0.43395993  1
  Zn  Zn130  1  0.69115162  0.92814575  0.93018152  1
  Zn  Zn131  1  0.32030964  0.06259480  0.06497298  1
  Zn  Zn132  1  0.31535340  0.06104043  0.55490376  1
  Zn  Zn133  1  0.31505473  0.56293449  0.06751095  1
  Zn  Zn134  1  0.31027401  0.56359798  0.55993873  1
  Zn  Zn135  1  0.81200049  0.05956512  0.05934480  1
  Zn  Zn136  1  0.80766619  0.06161061  0.56105454  1
  Zn  Zn137  1  0.81132720  0.56259016  0.06311968  1
  Zn  Zn138  1  0.80621536  0.55762535  0.55757845  1
  Zn  Zn139  1  0.43496980  0.43675358  0.18811168  1
  Zn  Zn140  1  0.43825070  0.43354142  0.69203298  1
  Zn  Zn141  1  0.43217687  0.96284726  0.17207421  1
  Zn  Zn142  1  0.44265968  0.94499545  0.68256130  1
  Zn  Zn143  1  0.93420205  0.44157882  0.19030684  1
  Zn  Zn144  1  0.93275828  0.43799865  0.68970548  1
  Zn  Zn145  1  0.93872223  0.93639655  0.18737766  1
  Zn  Zn146  1  0.93712394  0.93621808  0.69141632  1
  Zn  Zn147  1  0.06267547  0.06263290  0.31110344  1
  Zn  Zn148  1  0.06659277  0.06642599  0.81507828  1
  Zn  Zn149  1  0.05902132  0.56537698  0.31465696  1
  Zn  Zn150  1  0.06183130  0.56017324  0.81519224  1
  Zn  Zn151  1  0.56985205  0.07580640  0.27550911  1
  Zn  Zn152  1  0.56593469  0.05903833  0.80677255  1
  Zn  Zn153  1  0.56446663  0.55776891  0.31475957  1
  Zn  Zn154  1  0.56363533  0.56403295  0.80981005  1
  Zn  Zn155  1  0.44109623  0.19112886  0.43875907  1
  Zn  Zn156  1  0.43909756  0.17724336  0.93469581  1
  Zn  Zn157  1  0.43796393  0.68802075  0.44092829  1
  Zn  Zn158  1  0.44094863  0.68667668  0.93849716  1
  Zn  Zn159  1  0.93219265  0.18490100  0.43551362  1
  Zn  Zn160  1  0.92973659  0.19064402  0.93301957  1
  Zn  Zn161  1  0.93493206  0.68693508  0.44209873  1
  Zn  Zn162  1  0.93839136  0.68813153  0.93797668  1
  Zn  Zn163  1  0.05902251  0.33614693  0.06719903  1
  Zn  Zn164  1  0.06079592  0.31397479  0.56379875  1
  Zn  Zn165  1  0.06241043  0.81204290  0.06312413  1
  Zn  Zn166  1  0.06190530  0.81441076  0.55945470  1
  Zn  Zn167  1  0.56317101  0.31102698  0.06158605  1
  Zn  Zn168  1  0.56093137  0.30870030  0.56291473  1
  Zn  Zn169  1  0.56313259  0.82556028  0.05438426  1
  Zn  Zn170  1  0.56793861  0.80976784  0.56706101  1
  O  O171  1  0.12196895  0.12087805  0.12474308  1
  O  O172  1  0.12016993  0.12168863  0.61461433  1
  O  O173  1  0.11625332  0.63303340  0.11468844  1
  O  O174  1  0.14263675  0.60449763  0.61157617  1
  O  O175  1  0.60078814  0.10995740  0.16646672  1
  O  O176  1  0.62869055  0.10584836  0.63606971  1
  O  O177  1  0.62470194  0.61052775  0.11383674  1
  O  O178  1  0.61452663  0.61102276  0.61865119  1
  O  O179  1  0.38001603  0.38304696  0.38397220  1
  O  O180  1  0.37928969  0.37839641  0.88798363  1
  O  O181  1  0.37770596  0.87620682  0.38601871  1
  O  O182  1  0.36459677  0.89112778  0.87869266  1
  O  O183  1  0.88643704  0.37382045  0.37469031  1
  O  O184  1  0.88620348  0.38135711  0.87198869  1
  O  O185  1  0.87456569  0.88504400  0.37952503  1
  O  O186  1  0.88468239  0.88462370  0.87822037  1
  O  O187  1  0.26555447  0.00266403  0.37802790  1
  O  O188  1  0.25522913  0.01091564  0.86758381  1
  O  O189  1  0.25718169  0.50877706  0.37206185  1
  O  O190  1  0.25453727  0.50320164  0.87300101  1
  O  O191  1  0.75748590  0.00085789  0.36782911  1
  O  O192  1  0.76237517  0.00764544  0.88362990  1
  O  O193  1  0.74959319  0.50794640  0.37881676  1
  O  O194  1  0.76172304  0.49390428  0.86841745  1
  O  O195  1  0.25828655  0.48667540  0.12812948  1
  O  O196  1  0.24766043  0.49075371  0.62992504  1
  O  O197  1  0.23468093  0.99805701  0.12144850  1
  O  O198  1  0.24921692  0.99458989  0.62992259  1
  O  O199  1  0.74197537  0.48771577  0.12246473  1
  O  O200  1  0.74102281  0.49099513  0.63326723  1
  O  O201  1  0.75604458  0.98789832  0.13151669  1
  O  O202  1  0.73792845  0.99723534  0.62394988  1
  O  O203  1  0.00362068  0.37016323  0.25454581  1
  O  O204  1  0.00038912  0.36685295  0.75661574  1
  O  O205  1  0.01104791  0.87182905  0.25308572  1
  O  O206  1  0.00912755  0.87513412  0.76219838  1
  O  O207  1  0.50634429  0.37173848  0.25740905  1
  O  O208  1  0.49412891  0.36641796  0.76768922  1
  O  O209  1  0.51387689  0.88680729  0.24253809  1
  O  O210  1  0.49396290  0.86279766  0.74759531  1
  O  O211  1  0.48245895  0.15061611  0.26595593  1
  O  O212  1  0.50068355  0.13693773  0.74885783  1
  O  O213  1  0.50402859  0.62203915  0.24824068  1
  O  O214  1  0.49328803  0.63159295  0.74126534  1
  O  O215  1  0.99291098  0.13504166  0.25373627  1
  O  O216  1  0.99208746  0.13116995  0.74705247  1
  O  O217  1  1.00108845  0.62731698  0.23684982  1
  O  O218  1  1.02836216  0.63485513  0.74032604  1
  O  O219  1  0.38045007  0.25693691  -0.00144346  1
  O  O220  1  0.36798662  0.26112104  0.50673039  1
  O  O221  1  0.37152411  0.75521091  0.00387908  1
  O  O222  1  0.37150884  0.75667128  0.50954360  1
  O  O223  1  0.85781384  0.25024929  -0.00022517  1
  O  O224  1  0.86799869  0.25067164  0.50785215  1
  O  O225  1  0.86623094  0.75026851  0.00281947  1
  O  O226  1  0.86077273  0.75755119  0.49615550  1
  O  O227  1  0.12826113  0.24386024  0.49783472  1
  O  O228  1  0.10865659  0.24119745  1.00976978  1
  O  O229  1  0.13051631  0.74562256  0.49012240  1
  O  O230  1  0.13337826  0.74628152  0.99308234  1
  O  O231  1  0.63133049  0.25744975  0.48842111  1
  O  O232  1  0.63156759  0.24876355  0.98903414  1
  O  O233  1  0.63264016  0.74144482  0.49515466  1
  O  O234  1  0.62784989  0.74382211  0.99287820  1
  O  O235  1  0.50057834  0.25142969  0.13943091  1
  O  O236  1  0.49365499  0.25183086  0.63705889  1
  O  O237  1  0.49373207  0.75411152  0.11885614  1
  O  O238  1  0.49447465  0.74136012  0.63374278  1
  O  O239  1  1.00556823  0.24382187  0.12774423  1
  O  O240  1  0.99351071  0.24453102  0.63193229  1
  O  O241  1  0.98813247  0.74274383  0.12098442  1
  O  O242  1  1.03162289  0.74037931  0.63682025  1
  O  O243  1  0.00243321  0.25677777  0.36863358  1
  O  O244  1  -0.00022200  0.25578224  0.86872210  1
  O  O245  1  0.01266203  0.74789288  0.37499135  1
  O  O246  1  0.01038399  0.75839343  0.87625659  1
  O  O247  1  0.50368154  0.26506242  0.36853767  1
  O  O248  1  0.50573768  0.25254348  0.87282935  1
  O  O249  1  0.51291548  0.75194266  0.38097481  1
  O  O250  1  0.51256461  0.74188242  0.86531307  1
  O  O251  1  0.24029076  0.13279705  0.49805990  1
  O  O252  1  0.25289828  0.12133390  0.99307054  1
  O  O253  1  0.24544530  0.62729425  0.48567904  1
  O  O254  1  0.24385907  0.63010381  0.99755883  1
  O  O255  1  0.75313392  0.14041763  0.49672951  1
  O  O256  1  0.75090687  0.13504360  0.99516423  1
  O  O257  1  0.74039198  0.63259771  0.49273629  1
  O  O258  1  0.74040229  0.63598870  1.00551872  1
  O  O259  1  0.26476691  0.37651646  0.00399730  1
  O  O260  1  0.25745118  0.37233152  0.50628538  1
  O  O261  1  0.26041750  0.86699531  -0.00082109  1
  O  O262  1  0.26069663  0.87583427  0.50984012  1
  O  O263  1  0.74517037  0.36265065  0.01255624  1
  O  O264  1  0.75156162  0.36417974  0.51180036  1
  O  O265  1  0.75092338  0.86448890  0.00685882  1
  O  O266  1  0.75503816  0.85880402  0.49508290  1
  O  O267  1  0.12395320  0.48975598  0.25746013  1
  O  O268  1  0.13209945  0.49475319  0.74278392  1
  O  O269  1  0.12172587  0.99263183  0.24142627  1
  O  O270  1  0.13255577  0.99721333  0.74374780  1
  O  O271  1  0.62850422  0.48789907  0.24134925  1
  O  O272  1  0.63213728  0.49919349  0.74294956  1
  O  O273  1  0.64233792  0.98616436  0.26096624  1
  O  O274  1  0.62213072  0.98341641  0.74290485  1
  O  O275  1  0.37183735  -0.01501107  0.27038574  1
  O  O276  1  0.36870185  -0.00365917  0.75946441  1
  O  O277  1  0.37457181  0.50098086  0.26410008  1
  O  O278  1  0.37090593  0.50333336  0.75966724  1
  O  O279  1  0.86909781  0.00282582  0.25590353  1
  O  O280  1  0.88278563  0.00874565  0.76367909  1
  O  O281  1  0.86862016  0.50622469  0.25542534  1
  O  O282  1  0.86589793  0.49797346  0.76201640  1
  O  O283  1  0.11336819  0.37078819  0.37045915  1
  O  O284  1  0.11211556  0.36759659  0.87753458  1
  O  O285  1  0.12493142  0.86799601  0.36934558  1
  O  O286  1  0.12061629  0.87151812  0.87518469  1
  O  O287  1  0.61793476  0.37266247  0.36784064  1
  O  O288  1  0.61466844  0.36679648  0.88270125  1
  O  O289  1  0.62229551  0.86474456  0.36518216  1
  O  O290  1  0.62613455  0.86592777  0.85828551  1
  O  O291  1  0.40099289  0.07171772  0.13799829  1
  O  O292  1  0.37246565  0.13869498  0.62104263  1
  O  O293  1  0.37326499  0.64602412  0.12559628  1
  O  O294  1  0.37857034  0.62929288  0.62936978  1
  O  O295  1  0.87613375  0.11702683  0.13687067  1
  O  O296  1  0.87699459  0.12799661  0.63328626  1
  O  O297  1  0.88164824  0.63221978  0.12548183  1
  O  O298  1  0.86949777  0.62049940  0.62301201  1
  O  O299  1  0.24719864  0.27055872  0.12754681  1
  O  O300  1  0.25661600  0.25809791  0.62287374  1
  O  O301  1  0.25567704  0.75314655  0.11339157  1
  O  O302  1  0.25322754  0.76587281  0.62804724  1
  O  O303  1  0.74118994  0.25584712  0.11413943  1
  O  O304  1  0.74884224  0.25421805  0.62132090  1
  O  O305  1  0.76378483  0.75664468  0.11577962  1
  O  O306  1  0.74068306  0.74535392  0.60836211  1
  O  O307  1  0.24054821  0.25261383  0.38393593  1
  O  O308  1  0.24941370  0.23351385  0.87374425  1
  O  O309  1  0.24098088  0.74468302  0.37290163  1
  O  O310  1  0.24872774  0.74462667  0.88769270  1
  O  O311  1  0.73945586  0.25146397  0.38240647  1
  O  O312  1  0.74504737  0.24530939  0.88595584  1
  O  O313  1  0.73741747  0.74141273  0.38156495  1
  O  O314  1  0.73620718  0.75310169  0.88578619  1
  O  O315  1  -0.00343822  0.12062321  0.00180904  1
  O  O316  1  0.00426356  0.12002617  0.50672784  1
  O  O317  1  0.00675712  0.61854970  0.00631440  1
  O  O318  1  0.00685703  0.61593076  0.50381357  1
  O  O319  1  0.50205274  0.10855060  0.00190262  1
  O  O320  1  0.50418526  0.13291991  0.50755906  1
  O  O321  1  0.50807668  0.61273510  -0.00224312  1
  O  O322  1  0.50685881  0.62928682  0.51483174  1
  O  O323  1  0.48820271  0.37118632  0.49397614  1
  O  O324  1  0.48904453  0.37847391  0.99351923  1
  O  O325  1  0.49053264  0.87091598  0.50195488  1
  O  O326  1  0.48828965  0.87524572  0.98190754  1
  O  O327  1  0.99869706  0.38108044  0.49138403  1
  O  O328  1  0.99690145  0.39116795  0.99286605  1
  O  O329  1  0.99116440  0.88056058  0.49704111  1
  O  O330  1  1.00007059  0.88187130  0.98958031  1
  O  O331  1  0.49396187  0.48816249  0.37706554  1
  O  O332  1  0.49668324  0.49161713  0.88260442  1
  O  O333  1  0.49034053  0.99699842  0.37666347  1
  O  O334  1  0.48536258  1.00713479  0.87388371  1
  O  O335  1  0.99850307  0.49304927  0.38404316  1
  O  O336  1  0.98911040  0.49510195  0.87832443  1
  O  O337  1  0.99222090  0.99855525  0.38264648  1
  O  O338  1  0.99825462  0.99536334  0.88078686  1
  O  O339  1  0.01078314  -0.00383787  0.11569286  1
  O  O340  1  0.00615712  0.00589189  0.62039055  1
  O  O341  1  -0.00850491  0.50949011  0.11398682  1
  O  O342  1  0.00833919  0.49768320  0.61976286  1
  O  O343  1  0.51916855  -0.02969682  0.09399109  1
  O  O344  1  0.51288843  0.00391622  0.61911475  1
  O  O345  1  0.50805710  0.48976671  0.11259836  1
  O  O346  1  0.50534691  0.50651501  0.63369951  1
  O  O347  1  0.23900461  0.37979766  0.24502361  1
  O  O348  1  0.24982125  0.37979424  0.74593991  1
  O  O349  1  0.23659930  0.88085710  0.24592517  1
  O  O350  1  0.24661301  0.88786972  0.74275644  1
  O  O351  1  0.74204297  0.37111686  0.23746968  1
  O  O352  1  0.75101727  0.37559271  0.73873368  1
  O  O353  1  0.74641796  0.87987441  0.24137467  1
  O  O354  1  0.74197398  0.87645512  0.74953196  1
  O  O355  1  0.23973115  0.12076842  0.25971188  1
  O  O356  1  0.24799813  0.11502832  0.74785959  1
  O  O357  1  0.25327520  0.62492731  0.25993050  1
  O  O358  1  0.25609377  0.61623477  0.75944383  1
  O  O359  1  0.75889812  0.11669574  0.25083835  1
  O  O360  1  0.76282478  0.13116834  0.76043554  1
  O  O361  1  0.74476331  0.62236994  0.26632440  1
  O  O362  1  0.74293127  0.61319609  0.74890893  1
  O  O363  1  0.37446424  0.11217397  0.38278567  1
  O  O364  1  0.36203128  0.11196626  0.87639273  1
  O  O365  1  0.36990535  0.62050777  0.37426946  1
  O  O366  1  0.37097679  0.61826792  0.87177221  1
  O  O367  1  0.87290902  0.11076508  0.36830455  1
  O  O368  1  0.86600252  0.11921572  0.86918083  1
  O  O369  1  0.86348242  0.62517641  0.37597881  1
  O  O370  1  0.87979046  0.61323938  0.87178226  1
  O  O371  1  0.13412285  0.38236882  0.13429096  1
  O  O372  1  0.13235220  0.38399696  0.62580603  1
  O  O373  1  0.12595725  0.88123889  0.13148107  1
  O  O374  1  0.13487622  0.88441851  0.62760047  1
  O  O375  1  0.62977052  0.38239450  0.12991581  1
  O  O376  1  0.62854322  0.38606615  0.61952701  1
  O  O377  1  0.64045603  0.86289228  0.13145332  1
  O  O378  1  0.62269776  0.88163946  0.63837263  1
  O  O379  1  0.11205106  0.26077930  0.25546189  1
  O  O380  1  0.11043715  0.25046473  0.74921556  1
  O  O381  1  0.12331919  0.75768040  0.25603638  1
  O  O382  1  0.14376823  0.76324298  0.77212811  1
  O  O383  1  0.61886376  0.26205851  0.25779579  1
  O  O384  1  0.61617308  0.25069116  0.76557780  1
  O  O385  1  0.62522815  0.75861310  0.25812320  1
  O  O386  1  0.61629702  0.76238114  0.75483647  1
  O  O387  1  0.38281932  0.26762289  0.24968884  1
  O  O388  1  0.38537087  0.25543163  0.74109123  1
  O  O389  1  0.37379423  0.75624230  0.23340504  1
  O  O390  1  0.37858310  0.74446686  0.74660473  1
  O  O391  1  0.88647594  0.24069673  0.25327566  1
  O  O392  1  0.88357613  0.24221766  0.74648387  1
  O  O393  1  0.87616596  0.74682389  0.24167499  1
  O  O394  1  0.87182070  0.75447923  0.75158444  1
  O  O395  1  0.37013062  0.49264577  0.48847961  1
  O  O396  1  0.38425388  0.50035317  0.99466505  1
  O  O397  1  0.38114154  0.99126465  0.49148777  1
  O  O398  1  0.38282790  0.99103392  0.98574412  1
  O  O399  1  0.88673230  0.49421042  0.49863265  1
  O  O400  1  0.87901978  0.50597091  0.98583981  1
  O  O401  1  0.87631644  0.99361029  0.49304078  1
  O  O402  1  0.88826907  0.99982415  0.99038791  1
  O  O403  1  0.11375293  -0.00173460  0.00525645  1
  O  O404  1  0.12095075  0.00714115  0.50329914  1
  O  O405  1  0.11551681  0.51069976  -0.00652675  1
  O  O406  1  0.11448341  0.50082878  0.50482787  1
  O  O407  1  0.61143006  -0.00423059  -0.02557832  1
  O  O408  1  0.62699470  -0.00987348  0.51349168  1
  O  O409  1  0.61988860  0.50550264  0.00328719  1
  O  O410  1  0.62881926  0.51093921  0.50902181  1
  O  O411  1  0.37176540  0.37662665  0.10953390  1
  O  O412  1  0.37121544  0.37092345  0.61849492  1
  O  O413  1  0.37516354  0.86646103  0.11205287  1
  O  O414  1  0.37029870  0.87235728  0.61978161  1
  O  O415  1  0.85896390  0.37637238  0.12839813  1
  O  O416  1  0.86515441  0.36668816  0.62506569  1
  O  O417  1  0.86916850  0.86777539  0.12255391  1
  O  O418  1  0.87803265  0.88004643  0.61245818  1
  O  O419  1  0.11906732  0.13157980  0.38818973  1
  O  O420  1  0.14241788  0.12744290  0.87545933  1
  O  O421  1  0.13205389  0.63146863  0.37840671  1
  O  O422  1  0.13066493  0.63308040  0.88582504  1
  O  O423  1  0.62500184  0.13838815  0.36502087  1
  O  O424  1  0.63829299  0.12977610  0.86706741  1
  O  O425  1  0.62836414  0.62793980  0.38525680  1
  O  O426  1  0.62347386  0.62984233  0.88541110  1
