# generated using pymatgen
data_V85Zn86O256
_symmetry_space_group_name_H-M   'P 1'
_cell_length_a   16.95845071
_cell_length_b   16.95536212
_cell_length_c   16.95728615
_cell_angle_alpha   89.91995814
_cell_angle_beta   89.90016576
_cell_angle_gamma   89.96931789
_symmetry_Int_Tables_number   1
_chemical_formula_structural   V85Zn86O256
_chemical_formula_sum   'V85 Zn86 O256'
_cell_volume   4875.82878844
_cell_formula_units_Z   1
loop_
 _symmetry_equiv_pos_site_id
 _symmetry_equiv_pos_as_xyz
  1  'x, y, z'
loop_
 _atom_site_type_symbol
 _atom_site_label
 _atom_site_symmetry_multiplicity
 _atom_site_fract_x
 _atom_site_fract_y
 _atom_site_fract_z
 _atom_site_occupancy
  V  V0  1  0.50243072  0.49483850  0.49000759  1
  V  V1  1  0.50626309  0.01024768  0.49747740  1
  V  V2  1  0.87713872  0.87845691  -0.00261207  1
  V  V3  1  -0.00522307  0.12775253  0.62542977  1
  V  V4  1  0.87559578  0.37192022  0.50055485  1
  V  V5  1  0.17795250  0.45664319  0.18093756  1
  V  V6  1  0.74486439  0.74570766  -0.00163324  1
  V  V7  1  0.48291677  0.25421042  0.25000892  1
  V  V8  1  0.62866640  0.00725700  0.62035458  1
  V  V9  1  0.87446951  0.75114095  0.12445744  1
  V  V10  1  0.36440178  0.49096765  0.37854473  1
  V  V11  1  0.62580049  0.62840077  0.50315579  1
  V  V12  1  0.63252618  0.88463187  0.75645879  1
  V  V13  1  0.00803787  0.37687798  0.37691037  1
  V  V14  1  0.00144232  -0.00235585  0.00766399  1
  V  V15  1  0.24871905  0.74800428  0.00074763  1
  V  V16  1  -0.00361718  0.87329647  0.37783172  1
  V  V17  1  0.37792450  0.00281386  0.36679100  1
  V  V18  1  0.13325074  0.74076157  0.37256406  1
  V  V19  1  0.62034253  0.24355998  0.37500518  1
  V  V20  1  0.25749638  0.00177996  0.24776539  1
  V  V21  1  0.50696267  0.87676817  0.36985354  1
  V  V22  1  0.49829530  0.37791308  0.87912372  1
  V  V23  1  0.87939910  0.62613626  0.73694870  1
  V  V24  1  0.24712195  0.00939760  0.75012916  1
  V  V25  1  0.24843870  0.86814491  0.12578627  1
  V  V26  1  0.51150643  0.49740374  0.00490770  1
  V  V27  1  0.12675845  0.61976699  -0.00043193  1
  V  V28  1  0.75551590  0.75913994  0.50565101  1
  V  V29  1  0.50647943  0.75280863  0.24844157  1
  V  V30  1  0.12685615  0.87160785  0.74755003  1
  V  V31  1  0.62722387  0.75413342  0.37399181  1
  V  V32  1  -0.00004945  0.49816551  0.00172063  1
  V  V33  1  0.12640525  0.37413901  0.74948736  1
  V  V34  1  -0.00086165  0.61907569  0.12399365  1
  V  V35  1  0.25429031  0.50017899  0.74914667  1
  V  V36  1  0.26035264  0.36704674  0.62439217  1
  V  V37  1  0.37288847  0.62273404  0.26305701  1
  V  V38  1  0.37167491  0.74173327  0.12553925  1
  V  V39  1  0.49643844  0.76466786  0.75102980  1
  V  V40  1  0.73807235  0.37773979  0.12529362  1
  V  V41  1  0.25306062  0.13125529  0.36974562  1
  V  V42  1  0.87423739  0.12499921  0.25379842  1
  V  V43  1  0.75036249  0.62406700  0.37597239  1
  V  V44  1  -0.00622063  0.24871492  0.75000647  1
  V  V45  1  0.62486809  0.37313475  0.75198915  1
  V  V46  1  0.74795781  0.50118212  0.75139554  1
  V  V47  1  0.87393808  0.62305854  0.25084890  1
  V  V48  1  0.62297844  0.00209319  0.12891494  1
  V  V49  1  0.00308947  0.12781323  0.12346649  1
  V  V50  1  0.62194583  0.37352788  0.25660926  1
  V  V51  1  0.48610331  0.13149903  0.12764518  1
  V  V52  1  0.51696498  0.62567535  0.11797415  1
  V  V53  1  0.62576061  0.24636931  0.87327100  1
  V  V54  1  0.74227695  0.24307180  0.49975773  1
  V  V55  1  0.87277229  0.50299572  0.87429125  1
  V  V56  1  0.25358379  0.62799022  0.87208907  1
  V  V57  1  0.47980217  0.24665007  0.75142711  1
  V  V58  1  0.11810584  0.62429997  0.50828480  1
  V  V59  1  0.76195632  0.11141290  0.86317756  1
  V  V60  1  -0.00531664  -0.00189767  0.49652785  1
  V  V61  1  0.74416028  0.49959657  0.24782360  1
  V  V62  1  0.00139960  0.74777426  0.24991029  1
  V  V63  1  0.62058988  0.50080577  0.62653241  1
  V  V64  1  0.12480449  0.24184515  0.88642729  1
  V  V65  1  0.74924702  -0.00256548  0.25070441  1
  V  V66  1  0.87402553  0.25213886  0.12731256  1
  V  V67  1  0.61993798  0.74857153  0.87566234  1
  V  V68  1  0.25551144  0.74095177  0.49670996  1
  V  V69  1  0.62551635  0.12545248  0.00075268  1
  V  V70  1  -0.00108687  0.37276499  0.87507938  1
  V  V71  1  0.37610560  0.87628291  0.49905235  1
  V  V72  1  0.87289878  0.37599363  0.00276739  1
  V  V73  1  0.12641146  0.12817083  0.49600100  1
  V  V74  1  -0.01804736  0.90926029  0.84703487  1
  V  V75  1  0.12656819  0.00013775  0.62184094  1
  V  V76  1  0.12680205  0.86986571  0.25078771  1
  V  V77  1  0.74875698  0.24901916  -0.00083262  1
  V  V78  1  0.12802844  0.00152305  0.12490394  1
  V  V79  1  0.74874120  0.37169888  0.62514039  1
  V  V80  1  0.38097261  -0.00532608  0.87373171  1
  V  V81  1  0.00801155  0.25447767  0.25303605  1
  V  V82  1  0.11431258  0.75177042  0.87408717  1
  V  V83  1  0.24516500  0.12099890  0.88930833  1
  V  V84  1  0.74513423  0.87682201  0.12637991  1
  Zn  Zn85  1  0.38697940  0.35947640  0.49819799  1
  Zn  Zn86  1  0.75661409  0.88510299  0.62945375  1
  Zn  Zn87  1  0.88794313  0.76267286  0.61465647  1
  Zn  Zn88  1  0.00825299  0.73705087  0.73436092  1
  Zn  Zn89  1  0.13236572  0.25708916  0.37298738  1
  Zn  Zn90  1  -0.00522320  0.50340380  0.50593962  1
  Zn  Zn91  1  0.38080094  0.86997282  -0.00323659  1
  Zn  Zn92  1  0.48797314  0.14047292  0.61855302  1
  Zn  Zn93  1  0.26018645  0.24407032  0.50716174  1
  Zn  Zn94  1  0.50114792  -0.00295236  -0.00339306  1
  Zn  Zn95  1  0.37949812  0.62762564  0.74773450  1
  Zn  Zn96  1  0.25159836  0.87586173  0.62059012  1
  Zn  Zn97  1  0.74617183  0.12130258  0.37892181  1
  Zn  Zn98  1  0.74609169  0.62423266  0.87841508  1
  Zn  Zn99  1  0.27482581  0.27603050  0.02369636  1
  Zn  Zn100  1  0.37751403  0.75072089  0.62399704  1
  Zn  Zn101  1  0.87533632  0.49735099  0.37545133  1
  Zn  Zn102  1  0.12142788  0.50247052  0.62826736  1
  Zn  Zn103  1  0.87250605  -0.00459360  0.37686673  1
  Zn  Zn104  1  0.86836598  0.24483066  0.63064793  1
  Zn  Zn105  1  0.37580831  0.50195757  0.88250737  1
  Zn  Zn106  1  0.49834378  0.62916139  0.62871454  1
  Zn  Zn107  1  0.18931235  0.18478177  0.18368796  1
  Zn  Zn108  1  0.18131662  0.19004460  0.69058570  1
  Zn  Zn109  1  0.18188893  0.65759457  0.19445175  1
  Zn  Zn110  1  0.19490890  0.69040801  0.68324694  1
  Zn  Zn111  1  0.68526721  0.18856555  0.18803797  1
  Zn  Zn112  1  0.68415485  0.18182657  0.68932915  1
  Zn  Zn113  1  0.68955535  0.69232807  0.19058779  1
  Zn  Zn114  1  0.68817917  0.68953254  0.69099228  1
  Zn  Zn115  1  0.30558636  0.32977382  0.19409258  1
  Zn  Zn116  1  0.30305477  0.32000923  0.84462034  1
  Zn  Zn117  1  0.31693816  0.81217617  0.31189397  1
  Zn  Zn118  1  0.31019459  0.81702750  0.81286163  1
  Zn  Zn119  1  0.81295100  0.31185965  0.31635021  1
  Zn  Zn120  1  0.81066758  0.31079777  0.81453810  1
  Zn  Zn121  1  0.81265685  0.81256225  0.31327864  1
  Zn  Zn122  1  0.81217015  0.80979230  0.81079142  1
  Zn  Zn123  1  0.19291633  0.43816231  0.43895190  1
  Zn  Zn124  1  0.18724940  0.43844225  0.93962214  1
  Zn  Zn125  1  0.18788572  0.93551836  0.43449570  1
  Zn  Zn126  1  0.18339449  0.93302340  0.93744597  1
  Zn  Zn127  1  0.68718412  0.43451499  0.43640387  1
  Zn  Zn128  1  0.68191755  0.43876798  0.94098804  1
  Zn  Zn129  1  0.68633186  0.93948688  0.43675636  1
  Zn  Zn130  1  0.68683327  0.93688078  0.93826796  1
  Zn  Zn131  1  0.31136327  0.06173677  0.05773879  1
  Zn  Zn132  1  0.31582120  0.06660306  0.55778594  1
  Zn  Zn133  1  0.32360435  0.55441868  0.06565939  1
  Zn  Zn134  1  0.31430977  0.56200529  0.56504917  1
  Zn  Zn135  1  0.81378684  0.06364195  0.06057597  1
  Zn  Zn136  1  0.81418583  0.06260035  0.56276936  1
  Zn  Zn137  1  0.80952604  0.56188955  0.06470458  1
  Zn  Zn138  1  0.80868708  0.55842765  0.56139324  1
  Zn  Zn139  1  0.44436945  0.44579119  0.19230592  1
  Zn  Zn140  1  0.43848418  0.43718187  0.69200978  1
  Zn  Zn141  1  0.44134498  0.93083572  0.17461390  1
  Zn  Zn142  1  0.42217637  0.97407101  0.67048128  1
  Zn  Zn143  1  0.93621960  0.43596312  0.19103246  1
  Zn  Zn144  1  0.93888540  0.43816551  0.68390650  1
  Zn  Zn145  1  0.93583485  0.93588120  0.18980156  1
  Zn  Zn146  1  0.93908477  0.93630516  0.68167312  1
  Zn  Zn147  1  0.06563613  0.06233119  0.30973545  1
  Zn  Zn148  1  0.05453109  0.06256515  0.80914735  1
  Zn  Zn149  1  0.06498290  0.55947468  0.31674690  1
  Zn  Zn150  1  0.06293142  0.55998440  0.81331275  1
  Zn  Zn151  1  0.56131852  0.06828869  0.30587483  1
  Zn  Zn152  1  0.56272367  0.06615599  0.80885600  1
  Zn  Zn153  1  0.56352970  0.56605981  0.31054961  1
  Zn  Zn154  1  0.56037187  0.56927057  0.81320620  1
  Zn  Zn155  1  0.43282844  0.18954225  0.42966773  1
  Zn  Zn156  1  0.43598463  0.17760894  0.92955365  1
  Zn  Zn157  1  0.44360762  0.68800667  0.44041674  1
  Zn  Zn158  1  0.44019764  0.68841095  0.93697305  1
  Zn  Zn159  1  0.93601594  0.19023075  0.43768727  1
  Zn  Zn160  1  0.93697303  0.18571299  0.93974972  1
  Zn  Zn161  1  0.93853046  0.68791863  0.43635496  1
  Zn  Zn162  1  0.93358199  0.68694551  0.93631169  1
  Zn  Zn163  1  0.06949526  0.31694643  0.06881373  1
  Zn  Zn164  1  0.06584395  0.31391645  0.56374555  1
  Zn  Zn165  1  0.06244107  0.80991645  0.06275662  1
  Zn  Zn166  1  0.06334199  0.81073325  0.56092793  1
  Zn  Zn167  1  0.44207631  0.31599392  0.05991251  1
  Zn  Zn168  1  0.56100719  0.31086661  0.56568091  1
  Zn  Zn169  1  0.56291685  0.81471968  0.06185083  1
  Zn  Zn170  1  0.56440069  0.82217881  0.56776555  1
  O  O171  1  0.11471434  0.11321973  0.13088181  1
  O  O172  1  0.11864922  0.11891062  0.61601884  1
  O  O173  1  0.11240042  0.63545433  0.10597006  1
  O  O174  1  0.13041626  0.62637586  0.61084394  1
  O  O175  1  0.62127209  0.12017478  0.11731467  1
  O  O176  1  0.61065065  0.10941109  0.63467472  1
  O  O177  1  0.61488506  0.63202145  0.12871586  1
  O  O178  1  0.62677420  0.61778057  0.61924230  1
  O  O179  1  0.37435825  0.39236519  0.38180167  1
  O  O180  1  0.39672905  0.38334909  0.86991934  1
  O  O181  1  0.38655310  0.88196171  0.37856450  1
  O  O182  1  0.36662212  0.88944042  0.88111050  1
  O  O183  1  0.88352137  0.37420656  0.38481808  1
  O  O184  1  0.87788880  0.38493694  0.88019288  1
  O  O185  1  0.89193665  0.87506317  0.36900558  1
  O  O186  1  0.88733265  0.86823463  0.88148536  1
  O  O187  1  0.25890839  0.00193468  0.36557837  1
  O  O188  1  0.24422692  0.00720495  0.86962332  1
  O  O189  1  0.26580579  0.50505066  0.38220754  1
  O  O190  1  0.25177693  0.51376663  0.86851715  1
  O  O191  1  0.75263268  0.00126990  0.36647108  1
  O  O192  1  0.74816254  0.01253217  0.87864093  1
  O  O193  1  0.75068168  0.50712109  0.36826170  1
  O  O194  1  0.75595078  0.50017976  0.87112106  1
  O  O195  1  0.23943448  0.49711669  0.10971657  1
  O  O196  1  0.24526783  0.49074933  0.63401419  1
  O  O197  1  0.24573592  0.99391319  0.13049186  1
  O  O198  1  0.23801698  0.99820001  0.62926507  1
  O  O199  1  0.75314507  0.49116993  0.13492905  1
  O  O200  1  0.73765662  0.49320257  0.62956744  1
  O  O201  1  0.74551013  0.99524386  0.12997797  1
  O  O202  1  0.73458765  1.00390966  0.61853587  1
  O  O203  1  -0.00787831  0.36538127  0.26269262  1
  O  O204  1  0.00685677  0.36980486  0.75526357  1
  O  O205  1  0.00733568  0.86689859  0.25346394  1
  O  O206  1  0.01331714  0.85949631  0.74947318  1
  O  O207  1  0.51107057  0.36244157  0.24483440  1
  O  O208  1  0.50886660  0.36865255  0.75800090  1
  O  O209  1  0.49572502  0.86115485  0.25377630  1
  O  O210  1  0.51344431  0.86561848  0.74724563  1
  O  O211  1  0.50079301  0.13936700  0.23662668  1
  O  O212  1  0.49633286  0.14506324  0.75807271  1
  O  O213  1  0.49737885  0.63471307  0.24164193  1
  O  O214  1  0.50005416  0.64278550  0.74866871  1
  O  O215  1  0.99259738  0.12868153  0.24206132  1
  O  O216  1  1.00894399  0.13779979  0.73653616  1
  O  O217  1  0.99402464  0.62910439  0.24293357  1
  O  O218  1  0.98370897  0.62056039  0.75484594  1
  O  O219  1  0.38129100  0.24695793  -0.00402179  1
  O  O220  1  0.37416301  0.24701114  0.50320284  1
  O  O221  1  0.36787535  0.74729698  0.00911002  1
  O  O222  1  0.37126924  0.75809330  0.49696158  1
  O  O223  1  0.86967482  0.25711790  0.00679353  1
  O  O224  1  0.86627843  0.25916437  0.50285552  1
  O  O225  1  0.87029755  0.76049961  0.00455464  1
  O  O226  1  0.85859597  0.74246091  0.49846005  1
  O  O227  1  0.13116939  0.23691489  0.49858885  1
  O  O228  1  0.11969503  0.25556591  0.98660759  1
  O  O229  1  0.13455209  0.74180791  0.49225157  1
  O  O230  1  0.12844964  0.74439813  0.99079318  1
  O  O231  1  0.62993587  0.25619048  0.48971898  1
  O  O232  1  0.63079125  0.23989555  0.98666180  1
  O  O233  1  0.63173945  0.74477439  0.49618535  1
  O  O234  1  0.63369333  0.76117512  0.98957988  1
  O  O235  1  0.49967595  0.23907622  0.13503876  1
  O  O236  1  0.50028723  0.25335344  0.64499995  1
  O  O237  1  0.49584798  0.74178016  0.13144565  1
  O  O238  1  0.50089722  0.75351354  0.63781212  1
  O  O239  1  0.99659321  0.24413618  0.13165858  1
  O  O240  1  1.00003535  0.24357548  0.63145592  1
  O  O241  1  0.99395334  0.74081279  0.12952467  1
  O  O242  1  0.99895750  0.74473098  0.62122859  1
  O  O243  1  0.00225959  0.25683876  0.36858921  1
  O  O244  1  0.00412388  0.25171548  0.86965704  1
  O  O245  1  0.00828433  0.75559035  0.36945033  1
  O  O246  1  0.01135712  0.74418893  0.87168841  1
  O  O247  1  0.50556910  0.24420503  0.35749202  1
  O  O248  1  0.50883826  0.25675566  0.86925521  1
  O  O249  1  0.50680551  0.75770421  0.36825396  1
  O  O250  1  0.50636505  0.75265345  0.86455461  1
  O  O251  1  0.24344086  0.12059803  0.48962673  1
  O  O252  1  0.24324032  0.12498176  0.98959440  1
  O  O253  1  0.24487316  0.63758330  0.50183096  1
  O  O254  1  0.24235532  0.62852380  0.99273956  1
  O  O255  1  0.75601940  0.13942749  0.49851264  1
  O  O256  1  0.74008338  0.12941705  0.99824207  1
  O  O257  1  0.74000215  0.63001724  0.49628493  1
  O  O258  1  0.75626825  0.64210140  1.00174173  1
  O  O259  1  0.25702008  0.35609836  -0.05305337  1
  O  O260  1  0.24853751  0.37160775  0.51783014  1
  O  O261  1  0.24828732  0.86369956  0.00857032  1
  O  O262  1  0.26030301  0.86814443  0.49549638  1
  O  O263  1  0.75259790  0.37149535  0.00806865  1
  O  O264  1  0.75459261  0.36519439  0.50508578  1
  O  O265  1  0.75831730  0.86966685  0.00652165  1
  O  O266  1  0.74626780  0.86052411  0.49760063  1
  O  O267  1  0.13752928  0.53972865  0.23254269  1
  O  O268  1  0.13586133  0.49237640  0.75318574  1
  O  O269  1  0.13224989  0.99076824  0.24163832  1
  O  O270  1  0.12644739  0.99133036  0.74046417  1
  O  O271  1  0.63580090  0.49210288  0.25625802  1
  O  O272  1  0.62826164  0.49630704  0.74444918  1
  O  O273  1  0.63498180  1.00660225  0.23781567  1
  O  O274  1  0.61683138  0.98892967  0.74166528  1
  O  O275  1  0.36707899  -0.01126579  0.25292698  1
  O  O276  1  0.35828420  -0.01239677  0.76544626  1
  O  O277  1  0.38952221  0.51355671  0.26863158  1
  O  O278  1  0.36466515  0.50273796  0.75571776  1
  O  O279  1  0.86881325  0.00832276  0.25053576  1
  O  O280  1  0.95019097  -0.01145090  0.78157064  1
  O  O281  1  0.86299585  0.50595890  0.25239244  1
  O  O282  1  0.86901002  0.50576204  0.75627548  1
  O  O283  1  0.11326802  0.37406048  0.38535852  1
  O  O284  1  0.11472480  0.36832788  0.86364166  1
  O  O285  1  0.11790247  0.86516557  0.36801541  1
  O  O286  1  0.11118633  0.87079711  0.86513299  1
  O  O287  1  0.63011436  0.36461093  0.36338176  1
  O  O288  1  0.62033381  0.36617429  0.87153569  1
  O  O289  1  0.61343598  0.87262614  0.37542777  1
  O  O290  1  0.62678510  0.87087250  0.86316759  1
  O  O291  1  0.38830433  0.11862061  0.12133352  1
  O  O292  1  0.39305538  0.08206161  0.63310742  1
  O  O293  1  0.38506997  0.63122829  0.13512818  1
  O  O294  1  0.37896768  0.63073444  0.62883967  1
  O  O295  1  0.88043913  0.13088840  0.13492915  1
  O  O296  1  0.89026299  0.12558949  0.62213608  1
  O  O297  1  0.87990495  0.63267094  0.12928038  1
  O  O298  1  0.86995425  0.62131052  0.63644298  1
  O  O299  1  0.23990123  0.26349850  0.12783550  1
  O  O300  1  0.24809234  0.26370401  0.63113693  1
  O  O301  1  0.25597966  0.74421018  0.12148619  1
  O  O302  1  0.25611930  0.75786176  0.61270066  1
  O  O303  1  0.75438318  0.25654702  0.11919208  1
  O  O304  1  0.74604933  0.25299461  0.61933028  1
  O  O305  1  0.75338420  0.75982687  0.12041020  1
  O  O306  1  0.74988513  0.74963830  0.61055218  1
  O  O307  1  0.24980906  0.23278466  0.37281543  1
  O  O308  1  0.23755048  0.22483865  0.86047256  1
  O  O309  1  0.24271808  0.75648119  0.38136879  1
  O  O310  1  0.23953989  0.74601669  0.87959304  1
  O  O311  1  0.74123455  0.24786191  0.38255964  1
  O  O312  1  0.74384940  0.24396196  0.88187541  1
  O  O313  1  0.74581446  0.74545963  0.38264518  1
  O  O314  1  0.74311162  0.75106312  0.88401326  1
  O  O315  1  -0.00801588  0.11717844  0.01713899  1
  O  O316  1  0.00855373  0.12049498  0.50240598  1
  O  O317  1  0.00335101  0.61977135  0.00500684  1
  O  O318  1  0.01499678  0.62456480  0.49447075  1
  O  O319  1  0.51088207  0.12096585  0.00931349  1
  O  O320  1  0.49773533  0.11226556  0.49627556  1
  O  O321  1  0.50443320  0.62820099  0.01399886  1
  O  O322  1  0.51472303  0.62060445  0.50465695  1
  O  O323  1  0.50073736  0.39006416  0.50821916  1
  O  O324  1  0.50980833  0.38960851  0.99542886  1
  O  O325  1  0.49490688  0.87928585  0.48747732  1
  O  O326  1  0.48857151  0.88895128  1.02935842  1
  O  O327  1  0.99110814  0.37072352  0.49396319  1
  O  O328  1  0.99266342  0.37989257  0.99589021  1
  O  O329  1  1.01126265  0.88607842  0.48848903  1
  O  O330  1  0.99124193  0.88155956  1.00426909  1
  O  O331  1  0.50136677  0.50643957  0.38739288  1
  O  O332  1  0.50604181  0.49483659  0.88323648  1
  O  O333  1  0.49737146  0.99539374  0.37361366  1
  O  O334  1  0.48379347  1.00717323  0.87390268  1
  O  O335  1  0.99699003  0.49175661  0.37974716  1
  O  O336  1  0.99034472  0.49344079  0.87971339  1
  O  O337  1  1.00279223  0.99179582  0.37966293  1
  O  O338  1  1.02338992  1.00003492  0.90425450  1
  O  O339  1  0.00680411  0.00485012  0.12385460  1
  O  O340  1  0.01093185  0.00723546  0.61465538  1
  O  O341  1  -0.01218022  0.51406300  0.12070148  1
  O  O342  1  0.00901835  0.49236332  0.61788998  1
  O  O343  1  0.50973686  0.01541190  0.13361919  1
  O  O344  1  0.51766776  -0.01637468  0.60736972  1
  O  O345  1  0.50501650  0.51580966  0.11740496  1
  O  O346  1  0.51158466  0.50218339  0.62344297  1
  O  O347  1  0.23117127  0.40016302  0.24580692  1
  O  O348  1  0.24452371  0.38140036  0.74849354  1
  O  O349  1  0.24514846  0.88078122  0.24585799  1
  O  O350  1  0.23674043  0.88240284  0.74912149  1
  O  O351  1  0.74769138  0.38229085  0.24625830  1
  O  O352  1  0.74446188  0.38090226  0.74581463  1
  O  O353  1  0.75806214  0.88805911  0.24164760  1
  O  O354  1  0.73635390  0.87337480  0.75128106  1
  O  O355  1  0.24463113  0.10907903  0.25507499  1
  O  O356  1  0.23974365  0.11084311  0.75104708  1
  O  O357  1  0.27498252  0.62989653  0.25196084  1
  O  O358  1  0.24994773  0.61871643  0.75641375  1
  O  O359  1  0.75829543  0.11486889  0.24826019  1
  O  O360  1  0.75082322  0.12617550  0.76367629  1
  O  O361  1  0.75300741  0.61840485  0.25407606  1
  O  O362  1  0.75958719  0.61754605  0.75279506  1
  O  O363  1  0.36882291  0.10944084  0.37115828  1
  O  O364  1  0.35513084  0.10879776  0.87456427  1
  O  O365  1  0.38464393  0.62414117  0.36624256  1
  O  O366  1  0.36225792  0.63146543  0.87109209  1
  O  O367  1  0.87451463  0.12404731  0.36235754  1
  O  O368  1  0.86019275  0.12663099  0.88174406  1
  O  O369  1  0.86828200  0.62339533  0.36835608  1
  O  O370  1  0.87101086  0.61257943  0.87141493  1
  O  O371  1  0.10717340  0.39860095  0.13505338  1
  O  O372  1  0.13434797  0.37335128  0.63864239  1
  O  O373  1  0.12986581  0.87595904  0.13354484  1
  O  O374  1  0.12680794  0.88368995  0.62957785  1
  O  O375  1  0.63876149  0.37179048  0.13961386  1
  O  O376  1  0.63012069  0.38198753  0.63203940  1
  O  O377  1  0.63900689  0.88439682  0.12361040  1
  O  O378  1  0.63497055  0.88452582  0.63645276  1
  O  O379  1  0.10984068  0.24162018  0.25397729  1
  O  O380  1  0.11420724  0.25773420  0.75851056  1
  O  O381  1  0.12219605  0.74688562  0.25596225  1
  O  O382  1  0.12923668  0.75462704  0.75669185  1
  O  O383  1  0.62379431  0.25768835  0.25737009  1
  O  O384  1  0.62668245  0.25473569  0.76237880  1
  O  O385  1  0.61841543  0.74884849  0.26034476  1
  O  O386  1  0.62000115  0.76154894  0.75597485  1
  O  O387  1  0.38541671  0.25952243  0.25417758  1
  O  O388  1  0.38344429  0.25967364  0.76433023  1
  O  O389  1  0.38544623  0.74048683  0.24685576  1
  O  O390  1  0.38713683  0.75852059  0.74944984  1
  O  O391  1  0.88095161  0.24256362  0.24598898  1
  O  O392  1  0.88919200  0.25732311  0.74964167  1
  O  O393  1  0.87933319  0.74343250  0.24413487  1
  O  O394  1  0.87469485  0.73244561  0.74993491  1
  O  O395  1  0.38628179  0.50653050  0.48980401  1
  O  O396  1  0.40182585  0.51520149  0.99449018  1
  O  O397  1  0.38317270  0.99151719  0.48425067  1
  O  O398  1  0.37247105  0.99734457  0.98541955  1
  O  O399  1  0.87174270  0.48527648  0.49834846  1
  O  O400  1  0.87772993  0.49584863  0.99284569  1
  O  O401  1  0.89052498  1.00553484  0.49548900  1
  O  O402  1  0.88441725  0.98710088  1.00761172  1
  O  O403  1  0.12124086  -0.01153240  0.02011908  1
  O  O404  1  0.12055509  0.00809906  0.50413636  1
  O  O405  1  0.11404705  0.51024757  -0.01128874  1
  O  O406  1  0.13016098  0.51907071  0.49771012  1
  O  O407  1  0.62545235  0.00664823  0.01182165  1
  O  O408  1  0.62020942  -0.00026537  0.50831417  1
  O  O409  1  0.61222752  0.51065702  -0.00357500  1
  O  O410  1  0.62192851  0.50656587  0.50665325  1
  O  O411  1  0.38115347  0.38268742  0.12753377  1
  O  O412  1  0.36201913  0.38201711  0.62471514  1
  O  O413  1  0.36442409  0.85484883  0.13100433  1
  O  O414  1  0.37498738  0.88079364  0.60740929  1
  O  O415  1  0.86738751  0.36925010  0.12142747  1
  O  O416  1  0.86483114  0.37079643  0.61889865  1
  O  O417  1  0.86664368  0.87029582  0.11883173  1
  O  O418  1  0.86778133  0.87486982  0.62848376  1
  O  O419  1  0.13386081  0.12221860  0.38167193  1
  O  O420  1  0.13086122  0.12897389  0.87308651  1
  O  O421  1  0.12378916  0.63723448  0.38360487  1
  O  O422  1  0.13144041  0.63231900  0.88104488  1
  O  O423  1  0.62810721  0.13842031  0.36874794  1
  O  O424  1  0.63094435  0.12921628  0.88136616  1
  O  O425  1  0.63133888  0.63246228  0.38332282  1
  O  O426  1  0.62942079  0.64383121  0.86977231  1
