# generated using pymatgen
data_V85Zn86O256
_symmetry_space_group_name_H-M   'P 1'
_cell_length_a   16.91936257
_cell_length_b   16.92901504
_cell_length_c   16.92186812
_cell_angle_alpha   90.07772747
_cell_angle_beta   89.97218892
_cell_angle_gamma   89.93979329
_symmetry_Int_Tables_number   1
_chemical_formula_structural   V85Zn86O256
_chemical_formula_sum   'V85 Zn86 O256'
_cell_volume   4846.89156000
_cell_formula_units_Z   1
loop_
 _symmetry_equiv_pos_site_id
 _symmetry_equiv_pos_as_xyz
  1  'x, y, z'
loop_
 _atom_site_type_symbol
 _atom_site_label
 _atom_site_symmetry_multiplicity
 _atom_site_fract_x
 _atom_site_fract_y
 _atom_site_fract_z
 _atom_site_occupancy
  V  V0  1  0.74238699  0.62185518  0.87671758  1
  V  V1  1  0.25694753  0.87815950  0.62913856  1
  V  V2  1  0.36077784  0.12063697  0.75451529  1
  V  V3  1  0.87719891  0.87073256  0.49832916  1
  V  V4  1  0.37100848  0.25202317  0.12480395  1
  V  V5  1  0.61882792  0.12706893  0.01110983  1
  V  V6  1  0.49786366  0.37578471  0.87596706  1
  V  V7  1  0.11961090  0.87312566  0.24565616  1
  V  V8  1  0.87477293  0.75135930  0.12943150  1
  V  V9  1  0.37559592  0.73634794  0.12953027  1
  V  V10  1  0.62499155  0.50249145  0.62761408  1
  V  V11  1  0.50386288  0.00439313  0.49733394  1
  V  V12  1  0.11902061  0.00556363  0.62506660  1
  V  V13  1  0.25387827  0.37572484  0.62396516  1
  V  V14  1  0.48687064  0.63206440  0.62971831  1
  V  V15  1  0.12585410  0.37493843  0.26443974  1
  V  V16  1  0.88261459  0.12350681  0.75097272  1
  V  V17  1  0.62554086  0.74500538  0.37314647  1
  V  V18  1  0.12650679  0.87990277  0.74942804  1
  V  V19  1  0.12378531  0.62435865  -0.00235187  1
  V  V20  1  0.12846449  0.62606179  0.49679913  1
  V  V21  1  0.74410133  0.24439256  0.50195664  1
  V  V22  1  0.49703107  0.25893457  0.25052516  1
  V  V23  1  0.75100684  0.12689534  0.87926351  1
  V  V24  1  0.37130242  -0.00133706  0.37557738  1
  V  V25  1  0.36577077  0.37657237  0.00289217  1
  V  V26  1  0.12446635  0.75230643  0.87343386  1
  V  V27  1  0.87573230  0.00008845  0.87939084  1
  V  V28  1  0.50215259  0.49494094  0.49556315  1
  V  V29  1  0.76350027  0.49449517  0.75482634  1
  V  V30  1  0.24328038  0.13063131  0.37796215  1
  V  V31  1  0.49863234  0.87263556  0.36860222  1
  V  V32  1  0.62513408  0.24571194  0.87910545  1
  V  V33  1  0.25612261  0.75118530  0.49949804  1
  V  V34  1  0.00287454  0.00276438  0.01299674  1
  V  V35  1  0.49595426  0.73188796  0.24673803  1
  V  V36  1  0.61911767  -0.00845019  0.12501881  1
  V  V37  1  0.75133718  0.37149074  0.62241998  1
  V  V38  1  0.13154052  0.12391475  0.00349404  1
  V  V39  1  0.87644144  0.62389203  0.25011619  1
  V  V40  1  0.88244716  0.24170106  0.62439775  1
  V  V41  1  0.74067508  0.12162020  0.37701492  1
  V  V42  1  0.24959369  0.87859903  0.12614250  1
  V  V43  1  0.62498585  0.37361343  0.75265663  1
  V  V44  1  0.23899902  0.00334098  0.24849054  1
  V  V45  1  0.86908742  0.87586736  0.00482347  1
  V  V46  1  0.36219609  0.00196561  0.87600315  1
  V  V47  1  0.00378795  0.62475203  0.62017875  1
  V  V48  1  0.25927487  0.50361734  0.74807395  1
  V  V49  1  0.12948098  0.48848572  0.12174926  1
  V  V50  1  -0.00224483  0.87689620  0.87945408  1
  V  V51  1  0.74730079  -0.00758215  0.24267518  1
  V  V52  1  0.87148775  0.13388047  0.24524645  1
  V  V53  1  0.37549015  0.51566512  0.36805075  1
  V  V54  1  -0.00274916  0.75272909  0.75275389  1
  V  V55  1  0.00145557  0.87066208  0.37201936  1
  V  V56  1  0.88777378  0.49599279  0.38214403  1
  V  V57  1  0.37797656  0.37054433  0.48504968  1
  V  V58  1  0.62851424  0.00894005  0.62031409  1
  V  V59  1  0.25803400  0.62962032  0.86787609  1
  V  V60  1  0.49887078  0.50189833  0.00748907  1
  V  V61  1  0.74767254  0.87354424  0.62383752  1
  V  V62  1  0.62998930  0.49188358  0.12415755  1
  V  V63  1  0.75318370  0.25267483  0.01869188  1
  V  V64  1  0.75389005  0.48916404  0.24848403  1
  V  V65  1  0.24898137  0.75099318  0.00175696  1
  V  V66  1  0.12719244  0.50363921  0.61784414  1
  V  V67  1  0.50128163  0.23747666  0.75265017  1
  V  V68  1  0.00204428  0.62781498  0.12536435  1
  V  V69  1  0.49479293  0.00342208  0.00193908  1
  V  V70  1  0.87826491  0.62020575  0.75733009  1
  V  V71  1  0.74591782  0.75030418  0.00403796  1
  V  V72  1  0.87590451  0.74738586  0.62399449  1
  V  V73  1  0.12867717  0.74664872  0.37020002  1
  V  V74  1  0.37573221  0.24815742  0.62341083  1
  V  V75  1  0.12860365  0.24651225  0.87619474  1
  V  V76  1  -0.00001820  0.13877390  0.12821733  1
  V  V77  1  0.61853230  0.25728340  0.37850153  1
  V  V78  1  0.12296807  0.37537746  0.74934870  1
  V  V79  1  0.61923435  0.62749838  0.00569905  1
  V  V80  1  0.37990811  0.12485936  0.24545254  1
  V  V81  1  -0.00643543  0.50053518  -0.01217095  1
  V  V82  1  0.87230998  -0.00205301  0.37158002  1
  V  V83  1  0.87040531  0.37426596  0.00475557  1
  V  V84  1  0.25217904  0.51129491  0.24871502  1
  Zn  Zn85  1  0.37716475  0.87156473  0.50326543  1
  Zn  Zn86  1  0.62569228  0.37317060  0.24770692  1
  Zn  Zn87  1  0.37624543  0.87490756  0.00106260  1
  Zn  Zn88  1  0.62636834  0.62427446  0.50022087  1
  Zn  Zn89  1  0.62699679  0.86642236  0.24310973  1
  Zn  Zn90  1  0.00285850  0.24524676  0.75021093  1
  Zn  Zn91  1  0.50893434  0.86710341  0.87686435  1
  Zn  Zn92  1  0.74936363  0.00087602  0.75115670  1
  Zn  Zn93  1  0.24595644  0.24911821  0.49856383  1
  Zn  Zn94  1  -0.00301761  0.00253529  0.50220836  1
  Zn  Zn95  1  0.10954014  0.13063981  0.50541873  1
  Zn  Zn96  1  0.75179039  0.62174505  0.37731611  1
  Zn  Zn97  1  -0.00761602  0.37745014  0.86857813  1
  Zn  Zn98  1  0.10502149  0.25047950  0.38161723  1
  Zn  Zn99  1  0.50062117  0.12334682  0.62050292  1
  Zn  Zn100  1  0.74875429  0.74521593  0.49666027  1
  Zn  Zn101  1  0.89610350  0.36152769  0.48250395  1
  Zn  Zn102  1  0.37876538  0.50403037  0.87168125  1
  Zn  Zn103  1  0.24674331  0.25322274  0.00300701  1
  Zn  Zn104  1  0.61905094  0.86177740  0.75032714  1
  Zn  Zn105  1  0.47742026  0.74575501  0.76237313  1
  Zn  Zn106  1  -0.01373225  0.26839606  0.25510627  1
  Zn  Zn107  1  0.18605642  0.19137551  0.18710575  1
  Zn  Zn108  1  0.18818571  0.18923042  0.68692736  1
  Zn  Zn109  1  0.18678286  0.68715056  0.18721039  1
  Zn  Zn110  1  0.30175149  0.68867726  0.68145732  1
  Zn  Zn111  1  0.68150432  0.18247326  0.19245416  1
  Zn  Zn112  1  0.68929898  0.18190819  0.69039735  1
  Zn  Zn113  1  0.68813735  0.68043908  0.18594415  1
  Zn  Zn114  1  0.68608317  0.68522602  0.68535297  1
  Zn  Zn115  1  0.30391644  0.31508369  0.30605294  1
  Zn  Zn116  1  0.31045093  0.31143500  0.81388343  1
  Zn  Zn117  1  0.31025571  0.81047053  0.31037848  1
  Zn  Zn118  1  0.31247928  0.82062179  0.81461436  1
  Zn  Zn119  1  0.80944370  0.31306051  0.31577132  1
  Zn  Zn120  1  0.81600563  0.31131699  0.81786050  1
  Zn  Zn121  1  0.81062351  0.80998340  0.30971556  1
  Zn  Zn122  1  0.77729363  0.79124224  0.79711828  1
  Zn  Zn123  1  0.19515943  0.43997524  0.43657347  1
  Zn  Zn124  1  0.18512079  0.43966763  0.93171406  1
  Zn  Zn125  1  0.18616353  0.93841958  0.44073127  1
  Zn  Zn126  1  0.18556939  0.94025555  0.94138813  1
  Zn  Zn127  1  0.69408079  0.43674450  0.43699171  1
  Zn  Zn128  1  0.68987969  0.43681346  0.93823183  1
  Zn  Zn129  1  0.68601599  0.93183730  0.43611125  1
  Zn  Zn130  1  0.68741546  0.93639288  0.94126912  1
  Zn  Zn131  1  0.31063411  0.06364226  0.06721770  1
  Zn  Zn132  1  0.30918987  0.05989129  0.56304797  1
  Zn  Zn133  1  0.30889030  0.56089316  0.05929764  1
  Zn  Zn134  1  0.31134215  0.55934544  0.55165241  1
  Zn  Zn135  1  0.81005328  0.06440677  0.06636567  1
  Zn  Zn136  1  0.81572354  0.06217435  0.55822247  1
  Zn  Zn137  1  0.81260320  0.55857897  0.06271673  1
  Zn  Zn138  1  0.81232254  0.56234616  0.56194790  1
  Zn  Zn139  1  0.43671909  0.43802312  0.18601211  1
  Zn  Zn140  1  0.44031427  0.43427037  0.68472568  1
  Zn  Zn141  1  0.43510296  0.93589859  0.18701965  1
  Zn  Zn142  1  0.44262283  0.93594654  0.69284505  1
  Zn  Zn143  1  0.94142754  0.44185283  0.18201914  1
  Zn  Zn144  1  0.95130190  0.42336908  0.65323318  1
  Zn  Zn145  1  0.93625223  0.93974213  0.18756211  1
  Zn  Zn146  1  0.93522839  0.93819642  0.68936859  1
  Zn  Zn147  1  0.05744283  0.06370938  0.31400937  1
  Zn  Zn148  1  0.06478404  0.06117164  0.81814755  1
  Zn  Zn149  1  0.06315675  0.56310335  0.30928016  1
  Zn  Zn150  1  0.06990972  0.56421114  0.80647691  1
  Zn  Zn151  1  0.56106509  0.06461987  0.31049855  1
  Zn  Zn152  1  0.57735639  0.03126896  0.82767006  1
  Zn  Zn153  1  0.56262863  0.55731807  0.31198507  1
  Zn  Zn154  1  0.56277790  0.56485491  0.81277153  1
  Zn  Zn155  1  0.43596360  0.18435424  0.43293702  1
  Zn  Zn156  1  0.43491808  0.18546318  0.93842928  1
  Zn  Zn157  1  0.44278996  0.68608628  0.44177801  1
  Zn  Zn158  1  0.43795534  0.69166980  0.93928433  1
  Zn  Zn159  1  0.93599548  0.18293679  0.43253674  1
  Zn  Zn160  1  0.94042201  0.19409148  0.93836148  1
  Zn  Zn161  1  0.94282750  0.68599141  0.43335266  1
  Zn  Zn162  1  0.93278363  0.68809225  0.93769417  1
  Zn  Zn163  1  0.05654841  0.31341633  0.06055096  1
  Zn  Zn164  1  0.06176641  0.31444628  0.55769566  1
  Zn  Zn165  1  0.06120112  0.81244025  0.06470045  1
  Zn  Zn166  1  0.06594330  0.81214597  0.56241242  1
  Zn  Zn167  1  0.55492552  0.31097720  0.06608420  1
  Zn  Zn168  1  0.56262010  0.31254060  0.56325251  1
  Zn  Zn169  1  0.55672841  0.81227261  0.05964147  1
  Zn  Zn170  1  0.56242521  0.81497024  0.55900602  1
  O  O171  1  0.11342638  0.13041840  0.11867741  1
  O  O172  1  0.13028620  0.10897299  0.62836890  1
  O  O173  1  0.11776788  0.62075700  0.11792679  1
  O  O174  1  0.11919136  0.61898678  0.61559417  1
  O  O175  1  0.62512519  0.11545676  0.11550915  1
  O  O176  1  0.62408976  0.11279598  0.62031474  1
  O  O177  1  0.62726106  0.61215477  0.11218330  1
  O  O178  1  0.62229896  0.61175495  0.62427887  1
  O  O179  1  0.37238355  0.37339692  0.38381631  1
  O  O180  1  0.38572044  0.37488925  0.88026548  1
  O  O181  1  0.37992538  0.88327380  0.37276308  1
  O  O182  1  0.37445184  0.89359500  0.87885647  1
  O  O183  1  0.87341594  0.38942973  0.37313855  1
  O  O184  1  0.87803577  0.37277395  0.88989132  1
  O  O185  1  0.88154597  0.87422897  0.37827606  1
  O  O186  1  0.88047631  0.88005796  0.89137085  1
  O  O187  1  0.25497095  0.00517854  0.36890792  1
  O  O188  1  0.26257459  0.00306206  0.88123500  1
  O  O189  1  0.26758766  0.49886700  0.36835593  1
  O  O190  1  0.24976559  0.51045072  0.86437131  1
  O  O191  1  0.75046057  0.00429270  0.36885844  1
  O  O192  1  0.75927902  0.01295090  0.88161045  1
  O  O193  1  0.75659996  0.50274687  0.36392369  1
  O  O194  1  0.74860870  0.50648099  0.86555602  1
  O  O195  1  0.24042037  0.50512117  0.13222308  1
  O  O196  1  0.24670847  0.49742495  0.62923561  1
  O  O197  1  0.25261342  0.99150875  0.13695599  1
  O  O198  1  0.23661509  0.98635683  0.62078788  1
  O  O199  1  0.74204010  0.50301447  0.13427250  1
  O  O200  1  0.74427177  0.49065331  0.63127935  1
  O  O201  1  0.73711466  1.00354166  0.13290060  1
  O  O202  1  0.73984953  0.99409462  0.61724739  1
  O  O203  1  0.02055667  0.38200559  0.24044789  1
  O  O204  1  0.01426064  0.37628715  0.74463474  1
  O  O205  1  0.01236772  0.87928288  0.25299283  1
  O  O206  1  0.00113957  0.87094671  0.75932004  1
  O  O207  1  0.50019912  0.36281740  0.25018717  1
  O  O208  1  0.50460981  0.36516777  0.75721942  1
  O  O209  1  0.50027298  0.86981420  0.25990623  1
  O  O210  1  0.50278878  0.86241295  0.75072375  1
  O  O211  1  0.48515145  0.13440286  0.25779641  1
  O  O212  1  0.49744115  0.13428866  0.74933766  1
  O  O213  1  0.49920353  0.63286435  0.25038514  1
  O  O214  1  0.50355011  0.62623602  0.73424136  1
  O  O215  1  0.98828739  0.12353433  0.24284876  1
  O  O216  1  0.98638052  0.12346560  0.75662378  1
  O  O217  1  0.98802178  0.61903713  0.23810325  1
  O  O218  1  0.99468183  0.63259732  0.74663992  1
  O  O219  1  0.37374052  0.25733978  0.00638226  1
  O  O220  1  0.37775393  0.25434411  0.50742191  1
  O  O221  1  0.36707380  0.75259182  0.01293737  1
  O  O222  1  0.36128013  0.75117376  0.49171862  1
  O  O223  1  0.86582500  0.26026249  0.00117812  1
  O  O224  1  0.86199884  0.24890491  0.50858315  1
  O  O225  1  0.87041220  0.75670769  0.01052068  1
  O  O226  1  0.87720872  0.75820334  0.50229034  1
  O  O227  1  0.12778994  0.24756563  0.49878770  1
  O  O228  1  0.12450272  0.24461619  0.99472210  1
  O  O229  1  0.13289187  0.74486281  0.49253162  1
  O  O230  1  0.12928504  0.74552928  0.99434060  1
  O  O231  1  0.63380067  0.25207889  0.49471784  1
  O  O232  1  0.62824986  0.24405062  0.99816890  1
  O  O233  1  0.62373119  0.74761509  0.48748898  1
  O  O234  1  0.63254135  0.74050896  1.00931381  1
  O  O235  1  0.48690228  0.24888639  0.13628130  1
  O  O236  1  0.49147300  0.24801815  0.63280567  1
  O  O237  1  0.48369009  0.75490890  0.13214279  1
  O  O238  1  0.50439881  0.73220878  0.62010127  1
  O  O239  1  0.99845365  0.24229906  0.13302783  1
  O  O240  1  0.98472487  0.24583404  0.62952846  1
  O  O241  1  0.99174829  0.73599210  0.11770595  1
  O  O242  1  0.99655816  0.74310366  0.63185781  1
  O  O243  1  -0.00880294  0.25641475  0.36895527  1
  O  O244  1  0.01197847  0.25548628  0.87067963  1
  O  O245  1  0.01099658  0.76259715  0.37590845  1
  O  O246  1  0.00313363  0.75689481  0.87397923  1
  O  O247  1  0.50880378  0.24536088  0.36876172  1
  O  O248  1  0.50477337  0.25505392  0.86983119  1
  O  O249  1  0.50273025  0.75438083  0.36657863  1
  O  O250  1  0.50241775  0.75269595  0.87474944  1
  O  O251  1  0.24772053  0.12518890  0.48920931  1
  O  O252  1  0.23469099  0.12682176  1.00761578  1
  O  O253  1  0.23799922  0.63531544  0.50442955  1
  O  O254  1  0.24155173  0.63129285  0.99208587  1
  O  O255  1  0.75283742  0.13157938  0.48902257  1
  O  O256  1  0.74416191  0.13364877  0.99734115  1
  O  O257  1  0.74530033  0.62681385  0.49678539  1
  O  O258  1  0.74344268  0.62621383  0.99442688  1
  O  O259  1  0.26280044  0.37822814  -0.00678872  1
  O  O260  1  0.26143894  0.37272488  0.50632526  1
  O  O261  1  0.24886179  0.86940819  0.00958419  1
  O  O262  1  0.25069193  0.86931834  0.50966449  1
  O  O263  1  0.75975407  0.36712190  -0.00182494  1
  O  O264  1  0.75323024  0.36561702  0.50995356  1
  O  O265  1  0.75742528  0.86512036  -0.00170501  1
  O  O266  1  0.75863150  0.87050458  0.50647384  1
  O  O267  1  0.13075178  0.49463616  0.24222469  1
  O  O268  1  0.13670975  0.49451338  0.73911480  1
  O  O269  1  0.13429628  0.99308458  0.25531379  1
  O  O270  1  0.11802330  0.98917896  0.74315195  1
  O  O271  1  0.63329876  0.49823096  0.24227314  1
  O  O272  1  0.63242652  0.49416917  0.74340656  1
  O  O273  1  0.62854962  0.99995578  0.24118781  1
  O  O274  1  0.63004086  1.00201894  0.72819313  1
  O  O275  1  0.36818422  0.00685835  0.25816472  1
  O  O276  1  0.38039426  0.01265749  0.76181073  1
  O  O277  1  0.37067176  0.49604820  0.26078624  1
  O  O278  1  0.36370893  0.49214723  0.75056351  1
  O  O279  1  0.86467050  0.00422592  0.25345194  1
  O  O280  1  0.87324118  0.00669236  0.76020799  1
  O  O281  1  0.87085818  0.50493220  0.25406734  1
  O  O282  1  0.86617464  0.50322185  0.73967750  1
  O  O283  1  0.12502620  0.37861468  0.36730868  1
  O  O284  1  0.12129090  0.37085077  0.86411369  1
  O  O285  1  0.11849526  0.87124800  0.36846906  1
  O  O286  1  0.11919695  0.87471273  0.86970810  1
  O  O287  1  0.63159396  0.36062092  0.37201196  1
  O  O288  1  0.61608261  0.36762132  0.87334452  1
  O  O289  1  0.61642315  0.86211086  0.37011564  1
  O  O290  1  0.61562155  0.91671202  0.85849306  1
  O  O291  1  0.37083561  0.13185226  0.13796466  1
  O  O292  1  0.37709827  0.12814231  0.63584706  1
  O  O293  1  0.36968114  0.63775900  0.12258872  1
  O  O294  1  0.38298238  0.62145297  0.62118709  1
  O  O295  1  0.88353100  0.11952328  0.13511573  1
  O  O296  1  0.86278784  0.13071825  0.63822875  1
  O  O297  1  0.88229955  0.62982730  0.12876266  1
  O  O298  1  0.88365646  0.62713262  0.63219946  1
  O  O299  1  0.26451357  0.24958788  0.12463827  1
  O  O300  1  0.26326482  0.25390961  0.62430689  1
  O  O301  1  0.25809441  0.75499722  0.12304913  1
  O  O302  1  0.24681736  0.76620340  0.61373815  1
  O  O303  1  0.74265165  0.24579097  0.11715697  1
  O  O304  1  0.74842369  0.25281609  0.61865650  1
  O  O305  1  0.76016228  0.74183196  0.11407297  1
  O  O306  1  0.75964334  0.75661266  0.61899529  1
  O  O307  1  0.24919259  0.23872574  0.37491196  1
  O  O308  1  0.23472971  0.25516121  0.87916386  1
  O  O309  1  0.23681602  0.75815055  0.38295716  1
  O  O310  1  0.24351290  0.74736871  0.88165323  1
  O  O311  1  0.74321514  0.24203294  0.38285281  1
  O  O312  1  0.74351535  0.23966432  0.88301207  1
  O  O313  1  0.73936545  0.74598177  0.37285545  1
  O  O314  1  0.76226947  0.73350150  0.89597062  1
  O  O315  1  0.00271485  0.12159345  0.01074227  1
  O  O316  1  -0.00430903  0.11571651  0.49776418  1
  O  O317  1  0.00324545  0.61904768  0.00238909  1
  O  O318  1  0.01232283  0.63222660  0.50985325  1
  O  O319  1  0.50921232  0.12103632  -0.00107836  1
  O  O320  1  0.49457960  0.10863123  0.49875774  1
  O  O321  1  0.50853587  0.61435585  -0.00507493  1
  O  O322  1  0.50191445  0.61184215  0.51150470  1
  O  O323  1  0.49193692  0.38709084  0.50831478  1
  O  O324  1  0.49294799  0.38095585  0.99141937  1
  O  O325  1  0.49572061  0.88191155  0.48703499  1
  O  O326  1  0.49519046  0.88698719  0.99751873  1
  O  O327  1  0.98349264  0.39032329  0.54493179  1
  O  O328  1  0.99136808  0.38434001  0.99616899  1
  O  O329  1  0.99371825  0.87596625  0.49098243  1
  O  O330  1  0.99559581  0.88436753  0.99953139  1
  O  O331  1  0.48936267  0.50024447  0.38238986  1
  O  O332  1  0.50002914  0.49168765  0.88175833  1
  O  O333  1  0.49397069  0.99305021  0.37719449  1
  O  O334  1  0.48443681  1.00662360  0.89132011  1
  O  O335  1  0.98653664  0.50332924  0.37237786  1
  O  O336  1  1.00943992  0.50213207  0.88507172  1
  O  O337  1  0.99073611  0.98607234  0.37240576  1
  O  O338  1  0.99251511  0.99674531  0.88834614  1
  O  O339  1  -0.00212336  0.00772457  0.11628656  1
  O  O340  1  0.01505327  -0.00932984  0.62456889  1
  O  O341  1  0.00842123  0.51176092  0.11197675  1
  O  O342  1  0.01449395  0.51860357  0.63748611  1
  O  O343  1  0.50226031  -0.00093132  0.11494242  1
  O  O344  1  0.51063678  -0.00155142  0.61579723  1
  O  O345  1  0.50609461  0.49718423  0.11303311  1
  O  O346  1  0.50721418  0.50665673  0.62106643  1
  O  O347  1  0.23410379  0.38842850  0.25067876  1
  O  O348  1  0.24253996  0.38090377  0.74456867  1
  O  O349  1  0.24065842  0.88308560  0.24575764  1
  O  O350  1  0.23973284  0.87485221  0.73816994  1
  O  O351  1  0.74896836  0.38540964  0.24870481  1
  O  O352  1  0.74269456  0.37851376  0.74919206  1
  O  O353  1  0.74634689  0.88796205  0.25321759  1
  O  O354  1  0.76337280  0.88541322  0.72972556  1
  O  O355  1  0.25328341  0.11847773  0.25643104  1
  O  O356  1  0.26264101  0.12539742  0.74934944  1
  O  O357  1  0.24243323  0.61133209  0.25228633  1
  O  O358  1  0.24668428  0.61588442  0.75548272  1
  O  O359  1  0.75387494  0.11435341  0.25511286  1
  O  O360  1  0.75703408  0.12193572  0.76346570  1
  O  O361  1  0.76367255  0.61567641  0.24951972  1
  O  O362  1  0.75814073  0.61416421  0.75751626  1
  O  O363  1  0.36418384  0.11727142  0.36689834  1
  O  O364  1  0.37485561  0.12046338  0.86263882  1
  O  O365  1  0.37765381  0.61380648  0.37692776  1
  O  O366  1  0.36052337  0.62275143  0.88324747  1
  O  O367  1  0.86111136  0.11608339  0.36472887  1
  O  O368  1  0.86926943  0.12276769  0.87318387  1
  O  O369  1  0.87687699  0.61825524  0.36555065  1
  O  O370  1  0.87023308  0.62327500  0.86206848  1
  O  O371  1  0.12450645  0.38695198  0.12163850  1
  O  O372  1  0.13558668  0.38323846  0.62989449  1
  O  O373  1  0.13650026  0.86722550  0.13371188  1
  O  O374  1  0.13082417  0.88108508  0.63257826  1
  O  O375  1  0.62052142  0.38712670  0.12433729  1
  O  O376  1  0.63231404  0.38202722  0.63152514  1
  O  O377  1  0.62018134  0.88681753  0.12487066  1
  O  O378  1  0.63396868  0.88102441  0.62459159  1
  O  O379  1  0.12699518  0.26815918  0.25308662  1
  O  O380  1  0.12479007  0.25731992  0.75429083  1
  O  O381  1  0.12994869  0.75957856  0.25817024  1
  O  O382  1  0.11386794  0.76635715  0.75971345  1
  O  O383  1  0.61455655  0.25028022  0.25695246  1
  O  O384  1  0.61856860  0.25143326  0.75688216  1
  O  O385  1  0.61606349  0.74720506  0.25155524  1
  O  O386  1  0.66858887  0.75969145  0.76484596  1
  O  O387  1  0.37797883  0.24554670  0.24602564  1
  O  O388  1  0.38021943  0.24009157  0.74590991  1
  O  O389  1  0.37889823  0.75062144  0.23855179  1
  O  O390  1  0.36470691  0.74699575  0.75147460  1
  O  O391  1  0.86742131  0.23753379  0.25055788  1
  O  O392  1  0.87369455  0.23938862  0.74477160  1
  O  O393  1  0.87108013  0.74274987  0.23713863  1
  O  O394  1  0.87592478  0.73908920  0.74430005  1
  O  O395  1  0.38078006  0.49224816  0.48707166  1
  O  O396  1  0.38228173  0.49365978  0.99828700  1
  O  O397  1  0.37892726  0.99779524  0.48732007  1
  O  O398  1  0.37733689  1.00475312  0.99300771  1
  O  O399  1  0.87095587  0.50099877  0.48342798  1
  O  O400  1  0.88313197  0.49273827  0.99898938  1
  O  O401  1  0.87308145  0.98505554  0.49112071  1
  O  O402  1  0.87905767  0.99337973  1.00056720  1
  O  O403  1  0.11381738  0.01036671  -0.00272111  1
  O  O404  1  0.12104132  -0.00025277  0.51420326  1
  O  O405  1  0.12044962  0.50588874  0.00464856  1
  O  O406  1  0.13401808  0.50782010  0.50990000  1
  O  O407  1  0.61679847  0.00789256  0.00852597  1
  O  O408  1  0.61674353  -0.00786176  0.50805841  1
  O  O409  1  0.61941509  0.50372029  0.00548752  1
  O  O410  1  0.61819340  0.49633906  0.50746529  1
  O  O411  1  0.37981024  0.36735356  0.11376595  1
  O  O412  1  0.37225221  0.36565910  0.61840552  1
  O  O413  1  0.36088135  0.86848718  0.12614969  1
  O  O414  1  0.36035524  0.88732494  0.62406164  1
  O  O415  1  0.88047298  0.38039185  0.10618496  1
  O  O416  1  0.85582719  0.35813440  0.63916619  1
  O  O417  1  0.88182967  0.86582512  0.11550440  1
  O  O418  1  0.87304075  0.86983633  0.61460101  1
  O  O419  1  0.13196545  0.12701172  0.37454662  1
  O  O420  1  0.11880144  0.13389574  0.88812876  1
  O  O421  1  0.11730031  0.63477237  0.38253659  1
  O  O422  1  0.13429652  0.63314167  0.87716731  1
  O  O423  1  0.63553522  0.13362053  0.36889996  1
  O  O424  1  0.63347073  0.12371423  0.88664342  1
  O  O425  1  0.62292627  0.63462676  0.37513668  1
  O  O426  1  0.63625872  0.61833343  0.88632032  1
