# generated using pymatgen
data_V85Zn86O256
_symmetry_space_group_name_H-M   'P 1'
_cell_length_a   16.93058174
_cell_length_b   16.92637790
_cell_length_c   16.93153773
_cell_angle_alpha   90.01319666
_cell_angle_beta   89.97789426
_cell_angle_gamma   89.94045401
_symmetry_Int_Tables_number   1
_chemical_formula_structural   V85Zn86O256
_chemical_formula_sum   'V85 Zn86 O256'
_cell_volume   4852.12563926
_cell_formula_units_Z   1
loop_
 _symmetry_equiv_pos_site_id
 _symmetry_equiv_pos_as_xyz
  1  'x, y, z'
loop_
 _atom_site_type_symbol
 _atom_site_label
 _atom_site_symmetry_multiplicity
 _atom_site_fract_x
 _atom_site_fract_y
 _atom_site_fract_z
 _atom_site_occupancy
  V  V0  1  0.87540330  0.62291925  0.24669458  1
  V  V1  1  0.00001272  0.49538081  0.48834392  1
  V  V2  1  0.49552535  0.62846750  0.62653088  1
  V  V3  1  0.75191442  0.24964708  0.50034705  1
  V  V4  1  0.13133000  0.62049296  0.50723283  1
  V  V5  1  0.62655867  -0.00216301  0.12088979  1
  V  V6  1  0.36832309  0.37363520  0.50492704  1
  V  V7  1  0.75378593  0.37456088  0.62421321  1
  V  V8  1  0.12970598  -0.00074212  0.12570960  1
  V  V9  1  0.50004113  0.12312309  0.12495099  1
  V  V10  1  0.50147971  0.49953622  0.49940115  1
  V  V11  1  0.50879902  0.37489371  0.88030621  1
  V  V12  1  0.74609069  0.63362061  0.87751798  1
  V  V13  1  0.24763924  0.37814812  0.13165027  1
  V  V14  1  0.00363709  -0.00621472  0.49748148  1
  V  V15  1  0.49684525  0.74730305  0.23779982  1
  V  V16  1  0.11583720  0.37732953  0.25271444  1
  V  V17  1  -0.00032001  0.63659001  0.12378634  1
  V  V18  1  0.88089123  0.37562360  0.48715639  1
  V  V19  1  0.12416415  0.74902236  0.87312946  1
  V  V20  1  0.11592824  0.25217007  0.37445494  1
  V  V21  1  0.76118568  0.62092147  0.37583459  1
  V  V22  1  0.62599825  0.87445897  0.24811897  1
  V  V23  1  0.87777710  0.24699543  0.63135025  1
  V  V24  1  0.49572527  0.75562598  0.74674376  1
  V  V25  1  0.24850925  0.62633364  0.87877002  1
  V  V26  1  0.87580599  0.00925801  0.86575887  1
  V  V27  1  0.50135345  0.25135529  0.24999047  1
  V  V28  1  0.44170458  0.82820451  0.93069994  1
  V  V29  1  0.13091426  0.36196280  0.74745189  1
  V  V30  1  0.62261348  0.87117297  0.76169342  1
  V  V31  1  0.36822389  0.12481265  0.76844416  1
  V  V32  1  0.00707328  0.36768358  0.87464665  1
  V  V33  1  0.24815137  0.12765540  0.37426172  1
  V  V34  1  0.24621215  0.24934526  -0.01132938  1
  V  V35  1  0.62307226  0.74767132  0.37277615  1
  V  V36  1  0.75202515  -0.00807988  0.24355625  1
  V  V37  1  0.37753386  0.37984188  0.00107354  1
  V  V38  1  0.50692710  0.24977826  0.75554156  1
  V  V39  1  0.12652497  0.50548763  0.13781092  1
  V  V40  1  0.50353371  0.37630560  0.37104606  1
  V  V41  1  0.37155734  0.25029103  0.12596509  1
  V  V42  1  0.37317318  0.12442224  0.25023598  1
  V  V43  1  0.37666067  0.49604714  0.87192719  1
  V  V44  1  0.87698592  0.87296122  0.50259852  1
  V  V45  1  0.25318712  -0.00500385  0.76785448  1
  V  V46  1  0.74823983  0.49609436  0.25226774  1
  V  V47  1  0.74830174  0.74961026  0.50117815  1
  V  V48  1  -0.00163567  -0.00123655  -0.00198491  1
  V  V49  1  0.62614112  0.62362849  0.49877349  1
  V  V50  1  0.37055573  0.50000331  0.36822441  1
  V  V51  1  0.24835149  0.49592652  0.74160640  1
  V  V52  1  0.49681443  0.87256015  0.37367937  1
  V  V53  1  0.13895085  -0.00533637  0.62400730  1
  V  V54  1  0.87381050  0.12442139  0.24919743  1
  V  V55  1  0.48927651  0.00332781  -0.01272635  1
  V  V56  1  0.62473342  0.12602835  0.50007066  1
  V  V57  1  0.49873477  -0.00143059  0.49987841  1
  V  V58  1  0.25560538  0.86548491  0.11532538  1
  V  V59  1  0.61241280  0.49957323  0.12691194  1
  V  V60  1  0.37456263  -0.00192853  0.37461934  1
  V  V61  1  0.87698141  0.50178245  0.87418443  1
  V  V62  1  0.62695611  0.25204722  0.36962158  1
  V  V63  1  0.62723568  0.49832079  0.62602370  1
  V  V64  1  0.87897008  -0.00736679  0.37148200  1
  V  V65  1  0.87843409  0.64202527  0.74498714  1
  V  V66  1  0.12465017  0.12543506  0.50056300  1
  V  V67  1  0.62541398  -0.00235085  0.62551962  1
  V  V68  1  0.75350635  0.50147276  0.75086128  1
  V  V69  1  0.74623264  0.37660361  0.12658703  1
  V  V70  1  0.61567108  0.62109983  0.00212818  1
  V  V71  1  0.75126861  0.86904773  0.62660533  1
  V  V72  1  0.87584660  0.37486078  0.00255884  1
  V  V73  1  0.74630095  0.13452727  0.86734874  1
  V  V74  1  0.25254558  0.63001738  0.36918471  1
  V  V75  1  0.49444998  0.12734208  0.62648480  1
  V  V76  1  0.00649456  0.50231482  0.00040509  1
  V  V77  1  0.00117672  0.12833132  0.12412414  1
  V  V78  1  -0.00288171  0.86904013  0.86397460  1
  V  V79  1  0.25683266  0.75059883  0.51750569  1
  V  V80  1  0.12782244  0.12953496  -0.01302660  1
  V  V81  1  -0.00272108  0.12064043  0.63296051  1
  V  V82  1  0.37387667  0.87142204  0.51426338  1
  V  V83  1  0.74661956  0.75496687  0.00902317  1
  V  V84  1  0.37529036  0.62521651  0.23832507  1
  Zn  Zn85  1  0.87129595  0.76345966  0.13077897  1
  Zn  Zn86  1  0.00157959  0.24174173  0.75799512  1
  Zn  Zn87  1  -0.00815851  0.77007639  0.27669250  1
  Zn  Zn88  1  0.75398830  0.00225568  0.74684900  1
  Zn  Zn89  1  0.74999483  0.12265321  0.37465544  1
  Zn  Zn90  1  0.12149038  0.87038072  0.25368740  1
  Zn  Zn91  1  0.37416081  0.74916970  0.10802624  1
  Zn  Zn92  1  0.12144351  0.49210956  0.62573033  1
  Zn  Zn93  1  0.62490878  0.13064842  -0.00610715  1
  Zn  Zn94  1  0.74277449  0.25403987  -0.00561516  1
  Zn  Zn95  1  0.36844727  0.25430663  0.63084480  1
  Zn  Zn96  1  0.12900955  0.86633237  0.74375301  1
  Zn  Zn97  1  0.86700872  0.87898768  0.00072529  1
  Zn  Zn98  1  0.12442219  0.76132707  0.37981455  1
  Zn  Zn99  1  0.37143539  0.62901392  0.74493750  1
  Zn  Zn100  1  -0.00562247  0.25453367  0.25339355  1
  Zn  Zn101  1  0.00035770  0.62844975  0.63080729  1
  Zn  Zn102  1  0.24333419  0.25594124  0.50879341  1
  Zn  Zn103  1  0.24990590  -0.00578892  0.24911852  1
  Zn  Zn104  1  0.62946686  0.37014241  0.75515438  1
  Zn  Zn105  1  0.13063078  0.63320830  0.00303325  1
  Zn  Zn106  1  0.87233093  0.25128255  0.12650611  1
  Zn  Zn107  1  0.18545565  0.18907517  0.18551690  1
  Zn  Zn108  1  0.19013092  0.18480261  0.68660194  1
  Zn  Zn109  1  0.18526886  0.69452426  0.19140648  1
  Zn  Zn110  1  0.18620977  0.68453702  0.69404049  1
  Zn  Zn111  1  0.68814863  0.18612967  0.18453213  1
  Zn  Zn112  1  0.68879328  0.18518479  0.68867338  1
  Zn  Zn113  1  0.68441155  0.68271122  0.18618113  1
  Zn  Zn114  1  0.68349720  0.68922516  0.69005373  1
  Zn  Zn115  1  0.30818319  0.31296327  0.31397634  1
  Zn  Zn116  1  0.31554592  0.31143274  0.81106781  1
  Zn  Zn117  1  0.30661746  0.81285696  0.30901821  1
  Zn  Zn118  1  0.30821611  0.80855569  0.80613292  1
  Zn  Zn119  1  0.81013297  0.31165166  0.31004634  1
  Zn  Zn120  1  0.81818902  0.31580372  0.81131476  1
  Zn  Zn121  1  0.81256753  0.81026463  0.31397538  1
  Zn  Zn122  1  0.80844898  0.81688523  0.81836540  1
  Zn  Zn123  1  0.18685521  0.44120179  0.43114848  1
  Zn  Zn124  1  0.18876328  0.43669827  0.93651781  1
  Zn  Zn125  1  0.19248598  0.93457487  0.43828283  1
  Zn  Zn126  1  0.18260007  0.93254706  0.93970835  1
  Zn  Zn127  1  0.68950285  0.43540771  0.43663455  1
  Zn  Zn128  1  0.68910441  0.44328068  0.94067148  1
  Zn  Zn129  1  0.68920704  0.93770546  0.43446872  1
  Zn  Zn130  1  0.68694834  0.94569372  0.93799688  1
  Zn  Zn131  1  0.31010678  0.06212145  0.05826061  1
  Zn  Zn132  1  0.31356678  0.06711448  0.56044380  1
  Zn  Zn133  1  0.31129839  0.55970009  0.06140906  1
  Zn  Zn134  1  0.31415628  0.55813302  0.56153481  1
  Zn  Zn135  1  0.81183888  0.06411884  0.05813741  1
  Zn  Zn136  1  0.81314694  0.06122260  0.56211862  1
  Zn  Zn137  1  0.81211706  0.56289092  0.06339193  1
  Zn  Zn138  1  0.81952001  0.56015781  0.56214866  1
  Zn  Zn139  1  0.43546065  0.43617270  0.19007542  1
  Zn  Zn140  1  0.44095757  0.43779984  0.68956674  1
  Zn  Zn141  1  0.43575403  0.93603177  0.18325510  1
  Zn  Zn142  1  0.43637392  0.94176797  0.69574501  1
  Zn  Zn143  1  0.93716070  0.44448507  0.18805410  1
  Zn  Zn144  1  0.94269101  0.43796742  0.68341733  1
  Zn  Zn145  1  0.94037289  0.93264472  0.18072103  1
  Zn  Zn146  1  0.93893858  0.93542466  0.68379084  1
  Zn  Zn147  1  0.06088766  0.05729210  0.31106693  1
  Zn  Zn148  1  0.06625126  0.05786194  0.81027438  1
  Zn  Zn149  1  0.03911427  0.60725143  0.33971315  1
  Zn  Zn150  1  0.06287793  0.56047882  0.81085092  1
  Zn  Zn151  1  0.56353567  0.06305466  0.31156064  1
  Zn  Zn152  1  0.56506508  0.06246691  0.80949043  1
  Zn  Zn153  1  0.56207216  0.56393929  0.30910945  1
  Zn  Zn154  1  0.56332403  0.56229712  0.81309435  1
  Zn  Zn155  1  0.43730253  0.18919959  0.43766996  1
  Zn  Zn156  1  0.44044578  0.19340893  0.94146305  1
  Zn  Zn157  1  0.43560808  0.68793026  0.43601644  1
  Zn  Zn158  1  0.44111015  0.66865986  0.93031342  1
  Zn  Zn159  1  0.93672077  0.18168867  0.44057809  1
  Zn  Zn160  1  0.93282396  0.18741205  0.94044615  1
  Zn  Zn161  1  0.95994613  0.70875768  0.47942024  1
  Zn  Zn162  1  0.93372427  0.68919737  0.93720835  1
  Zn  Zn163  1  0.06373948  0.31199652  0.06344457  1
  Zn  Zn164  1  0.06115496  0.31181201  0.56441649  1
  Zn  Zn165  1  0.06713212  0.81631881  0.05699256  1
  Zn  Zn166  1  0.06876826  0.80948037  0.56670246  1
  Zn  Zn167  1  0.56426000  0.31287183  0.06181551  1
  Zn  Zn168  1  0.56086239  0.31272433  0.56250627  1
  Zn  Zn169  1  0.57039736  0.81271085  0.06223681  1
  Zn  Zn170  1  0.56199003  0.81226590  0.56439660  1
  O  O171  1  0.11737374  0.12030958  0.11800175  1
  O  O172  1  0.11824536  0.11475003  0.61924123  1
  O  O173  1  0.11930061  0.62023881  0.12287849  1
  O  O174  1  0.12976195  0.61978944  0.61572132  1
  O  O175  1  0.61436230  0.11417307  0.12967681  1
  O  O176  1  0.61548382  0.11827455  0.62137038  1
  O  O177  1  0.62805204  0.61186279  0.11471988  1
  O  O178  1  0.62005886  0.61712811  0.61833430  1
  O  O179  1  0.38057755  0.38226627  0.37907304  1
  O  O180  1  0.38192620  0.37867010  0.88261233  1
  O  O181  1  0.37892313  0.88161618  0.37975838  1
  O  O182  1  0.37629762  0.87711432  0.87457231  1
  O  O183  1  0.87343306  0.36766077  0.38794935  1
  O  O184  1  0.88111755  0.38347205  0.88343400  1
  O  O185  1  0.86986064  0.88708801  0.38161754  1
  O  O186  1  0.88082704  0.88577367  0.87977887  1
  O  O187  1  0.25711021  0.01205871  0.37393783  1
  O  O188  1  0.24376937  0.00006150  0.86585933  1
  O  O189  1  0.26514874  0.50990559  0.37884383  1
  O  O190  1  0.25904848  0.50067695  0.86651853  1
  O  O191  1  0.75694604  0.00274543  0.36465456  1
  O  O192  1  0.76326441  0.00794772  0.87325532  1
  O  O193  1  0.74040907  0.50823886  0.36402081  1
  O  O194  1  0.75641553  0.50845201  0.86831836  1
  O  O195  1  0.23823297  0.49061814  0.11856747  1
  O  O196  1  0.25047222  0.49927600  0.63814145  1
  O  O197  1  0.24326691  0.99496337  0.12531638  1
  O  O198  1  0.24055653  1.00617377  0.62633906  1
  O  O199  1  0.74499293  0.49272339  0.13205189  1
  O  O200  1  0.74740222  0.49548714  0.63115484  1
  O  O201  1  0.74029668  1.00704767  0.13247024  1
  O  O202  1  0.74181901  0.99229289  0.62496866  1
  O  O203  1  0.01112872  0.37426887  0.24424778  1
  O  O204  1  0.01051303  0.37318150  0.75893915  1
  O  O205  1  0.00407326  0.87953041  0.25282829  1
  O  O206  1  0.00332840  0.88149227  0.76135826  1
  O  O207  1  0.49560898  0.36813096  0.26321351  1
  O  O208  1  0.50197297  0.36598866  0.75874306  1
  O  O209  1  0.50408788  0.86872169  0.25585522  1
  O  O210  1  0.50968401  0.86831042  0.74223592  1
  O  O211  1  0.49259349  0.13023136  0.24557060  1
  O  O212  1  0.49117888  0.12867522  0.74575512  1
  O  O213  1  0.49002759  0.63648359  0.25419987  1
  O  O214  1  0.50289240  0.63307001  0.74263287  1
  O  O215  1  0.98864765  0.12263930  0.24129950  1
  O  O216  1  1.00452311  0.12339345  0.73750887  1
  O  O217  1  0.98764677  0.61857346  0.23735464  1
  O  O218  1  0.98255326  0.62167120  0.75130492  1
  O  O219  1  0.36782888  0.25952701  0.00758901  1
  O  O220  1  0.37575141  0.26632584  0.49670661  1
  O  O221  1  0.39199956  0.75877429  -0.00995208  1
  O  O222  1  0.36694854  0.75665976  0.50028657  1
  O  O223  1  0.87092260  0.26433247  0.00417909  1
  O  O224  1  0.87160628  0.25473296  0.50686093  1
  O  O225  1  0.85626506  0.74977867  -0.00045060  1
  O  O226  1  0.86100526  0.76839268  0.48611090  1
  O  O227  1  0.12422986  0.24549145  0.49206076  1
  O  O228  1  0.13465249  0.24323520  1.00462594  1
  O  O229  1  0.14325793  0.74045038  0.50054664  1
  O  O230  1  0.12163273  0.74831321  0.98169239  1
  O  O231  1  0.62955003  0.24582734  0.49234086  1
  O  O232  1  0.63032689  0.24341250  1.00727485  1
  O  O233  1  0.62991315  0.74445191  0.49387653  1
  O  O234  1  0.63383315  0.73399432  1.00612743  1
  O  O235  1  0.49305863  0.24503185  0.13229484  1
  O  O236  1  0.49551750  0.24267506  0.63192987  1
  O  O237  1  0.49664505  0.75692885  0.13462100  1
  O  O238  1  0.50567160  0.73896126  0.63203840  1
  O  O239  1  0.99805758  0.23787146  0.12642691  1
  O  O240  1  0.99364406  0.23804709  0.62419253  1
  O  O241  1  0.99897736  0.73979052  0.11564937  1
  O  O242  1  0.99037686  0.73534636  0.58886398  1
  O  O243  1  0.01236823  0.24107159  0.37374017  1
  O  O244  1  -0.00883761  0.26353284  0.87574689  1
  O  O245  1  0.01035980  0.71733285  0.37834254  1
  O  O246  1  0.00206915  0.76197790  0.87950384  1
  O  O247  1  0.50677736  0.25662703  0.37119978  1
  O  O248  1  0.49689376  0.26116536  0.86779683  1
  O  O249  1  0.50494403  0.75560565  0.36837688  1
  O  O250  1  0.49453907  0.76001751  0.87123881  1
  O  O251  1  0.24216465  0.12635658  0.49020067  1
  O  O252  1  0.24103606  0.13724898  1.00544294  1
  O  O253  1  0.25328653  0.63268221  0.49670618  1
  O  O254  1  0.24891036  0.61696775  0.98370197  1
  O  O255  1  0.74288111  0.13125002  0.49916484  1
  O  O256  1  0.75126910  0.12862182  0.98373002  1
  O  O257  1  0.74819613  0.62718938  0.49366267  1
  O  O258  1  0.74450860  0.63058948  0.99403139  1
  O  O259  1  0.25400592  0.36832438  0.00948919  1
  O  O260  1  0.26559025  0.37675853  0.49246208  1
  O  O261  1  0.24766996  0.87951143  0.01591590  1
  O  O262  1  0.25982410  0.85980305  0.50161372  1
  O  O263  1  0.75925571  0.37817255  0.00741697  1
  O  O264  1  0.75872560  0.36983960  0.50521380  1
  O  O265  1  0.74120411  0.85729803  -0.00834778  1
  O  O266  1  0.75437261  0.87236796  0.50692734  1
  O  O267  1  0.12298066  0.49359721  0.23925335  1
  O  O268  1  0.13313177  0.48942316  0.74932180  1
  O  O269  1  0.12730123  1.00667541  0.23340029  1
  O  O270  1  0.14084224  1.00223404  0.74110890  1
  O  O271  1  0.63297534  0.50770801  0.23585940  1
  O  O272  1  0.63835158  0.50019135  0.74464854  1
  O  O273  1  0.63317253  0.99570126  0.24523335  1
  O  O274  1  0.62487080  0.99380319  0.73635362  1
  O  O275  1  0.37581408  0.00671485  0.25848931  1
  O  O276  1  0.36381515  0.01234039  0.75040477  1
  O  O277  1  0.38084054  0.51050746  0.25786410  1
  O  O278  1  0.36556618  0.49431646  0.75615751  1
  O  O279  1  0.86876543  0.00400848  0.25457865  1
  O  O280  1  0.87540605  -0.00401055  0.76279883  1
  O  O281  1  0.86305136  0.51246443  0.24607547  1
  O  O282  1  0.86445069  0.50063753  0.75362629  1
  O  O283  1  0.13365408  0.36506528  0.36360641  1
  O  O284  1  0.11647148  0.37884950  0.86494594  1
  O  O285  1  0.13051170  0.87522065  0.37055891  1
  O  O286  1  0.11564871  0.86873635  0.87034193  1
  O  O287  1  0.61578015  0.36493605  0.38010150  1
  O  O288  1  0.61255957  0.38560802  0.87616374  1
  O  O289  1  0.61817175  0.86953372  0.36854041  1
  O  O290  1  0.62880322  0.88529971  0.85978325  1
  O  O291  1  0.38127425  0.12914012  0.13017998  1
  O  O292  1  0.38755665  0.12342580  0.62920465  1
  O  O293  1  0.36942299  0.62824600  0.13369341  1
  O  O294  1  0.39190612  0.61410966  0.62670110  1
  O  O295  1  0.88201386  0.12553992  0.13077425  1
  O  O296  1  0.88516100  0.13201747  0.61792867  1
  O  O297  1  0.88161769  0.62890113  0.13069832  1
  O  O298  1  0.86825562  0.62501893  0.64323551  1
  O  O299  1  0.25556703  0.25844879  0.12027087  1
  O  O300  1  0.25662095  0.24443307  0.62051105  1
  O  O301  1  0.25179948  0.75988723  0.12098210  1
  O  O302  1  0.25408171  0.74310051  0.61640475  1
  O  O303  1  0.75033265  0.26707213  0.13062330  1
  O  O304  1  0.75698327  0.25300346  0.62005576  1
  O  O305  1  0.74920636  0.74550658  0.11261329  1
  O  O306  1  0.74266799  0.76142314  0.61843767  1
  O  O307  1  0.24124594  0.23892952  0.37673284  1
  O  O308  1  0.25405409  0.25554779  0.88982646  1
  O  O309  1  0.25446190  0.73894053  0.38466851  1
  O  O310  1  0.24196289  0.73743512  0.86790239  1
  O  O311  1  0.74169289  0.24713752  0.37997848  1
  O  O312  1  0.75839160  0.23795198  0.87147807  1
  O  O313  1  0.74120567  0.74081577  0.37855741  1
  O  O314  1  0.74851373  0.73779457  0.88230909  1
  O  O315  1  0.00412637  0.11889685  0.00513533  1
  O  O316  1  0.00627430  0.11246994  0.50768357  1
  O  O317  1  -0.00045758  0.61689111  0.00562467  1
  O  O318  1  0.01651903  0.60704345  0.50033666  1
  O  O319  1  0.50067040  0.11778170  0.00682162  1
  O  O320  1  0.50367446  0.12072569  0.50760028  1
  O  O321  1  0.51618277  0.62167237  -0.00053825  1
  O  O322  1  0.50516352  0.61943759  0.50562452  1
  O  O323  1  0.49317088  0.37929513  0.48861606  1
  O  O324  1  0.48895052  0.37084770  0.99333223  1
  O  O325  1  0.49460799  0.87817202  0.49292690  1
  O  O326  1  0.50438833  0.88525299  0.99494388  1
  O  O327  1  0.99573054  0.38556429  0.50214243  1
  O  O328  1  0.99576242  0.38117433  0.99592600  1
  O  O329  1  0.99157759  0.88665034  0.50477309  1
  O  O330  1  1.00307437  0.89075015  0.98971953  1
  O  O331  1  0.49485906  0.49342714  0.37806802  1
  O  O332  1  0.48529009  0.49195236  0.86647585  1
  O  O333  1  0.49548938  0.99462004  0.38112500  1
  O  O334  1  0.50258654  1.00713633  0.88838576  1
  O  O335  1  1.00628503  0.50344907  0.38896383  1
  O  O336  1  0.99595473  0.49246937  0.88297297  1
  O  O337  1  0.99070251  1.00634132  0.38595715  1
  O  O338  1  0.99111732  0.99792766  0.87820413  1
  O  O339  1  0.00610973  0.01096750  0.11453454  1
  O  O340  1  0.00730887  0.00498494  0.61827193  1
  O  O341  1  0.00756305  0.50902221  0.11718201  1
  O  O342  1  0.00290164  0.50637958  0.61555394  1
  O  O343  1  0.50520610  0.00591231  0.11855376  1
  O  O344  1  0.50664562  0.00678351  0.61993627  1
  O  O345  1  0.51356397  0.49476182  0.12954298  1
  O  O346  1  0.51022750  0.50389314  0.62104870  1
  O  O347  1  0.24120316  0.37096488  0.23762822  1
  O  O348  1  0.23745429  0.37812539  0.75710105  1
  O  O349  1  0.24468956  0.87677318  0.23648799  1
  O  O350  1  0.25075078  0.89158868  0.74937091  1
  O  O351  1  0.75370231  0.38801053  0.24434975  1
  O  O352  1  0.74923517  0.38307137  0.74485816  1
  O  O353  1  0.74433179  0.88508422  0.25400053  1
  O  O354  1  0.74274732  0.87662336  0.74202603  1
  O  O355  1  0.25661793  0.12459380  0.25633377  1
  O  O356  1  0.26311113  0.11757564  0.75146965  1
  O  O357  1  0.26080524  0.63147135  0.25965363  1
  O  O358  1  0.25200706  0.61250167  0.75859788  1
  O  O359  1  0.76103703  0.11621816  0.24876092  1
  O  O360  1  0.75089103  0.12103312  0.76092184  1
  O  O361  1  0.75363255  0.61819754  0.25562169  1
  O  O362  1  0.75449561  0.62087992  0.75773066  1
  O  O363  1  0.36822331  0.12080904  0.37186440  1
  O  O364  1  0.37740807  0.12806192  0.86623082  1
  O  O365  1  0.37020228  0.61779440  0.36845421  1
  O  O366  1  0.36778327  0.61244974  0.86741302  1
  O  O367  1  0.87340165  0.11407770  0.36711179  1
  O  O368  1  0.86964526  0.11522943  0.87400573  1
  O  O369  1  0.86193401  0.62525035  0.36678973  1
  O  O370  1  0.86674682  0.61994543  0.86635010  1
  O  O371  1  0.12993620  0.38116529  0.13187632  1
  O  O372  1  0.12044547  0.37276200  0.64333626  1
  O  O373  1  0.13289990  0.88411313  0.12457372  1
  O  O374  1  0.12153429  0.88955726  0.62727527  1
  O  O375  1  0.63271506  0.38995124  0.12066504  1
  O  O376  1  0.63304154  0.38211970  0.62532509  1
  O  O377  1  0.62078036  0.88929841  0.13264595  1
  O  O378  1  0.63229922  0.88291343  0.62729846  1
  O  O379  1  0.12086648  0.25800619  0.25624614  1
  O  O380  1  0.12344736  0.25852581  0.75220723  1
  O  O381  1  0.11382382  0.74687498  0.25929779  1
  O  O382  1  0.12353058  0.75085225  0.76166080  1
  O  O383  1  0.62049559  0.24317869  0.26289874  1
  O  O384  1  0.61161659  0.24987140  0.74559214  1
  O  O385  1  0.61777093  0.75352161  0.25194645  1
  O  O386  1  0.61348125  0.75966021  0.74927138  1
  O  O387  1  0.37895670  0.24470504  0.24624640  1
  O  O388  1  0.38310994  0.23816146  0.75010358  1
  O  O389  1  0.38322062  0.74192433  0.25000281  1
  O  O390  1  0.38958112  0.74805398  0.75033116  1
  O  O391  1  0.87631366  0.23943646  0.24898031  1
  O  O392  1  0.88044351  0.25501817  0.73495454  1
  O  O393  1  0.87642459  0.73893925  0.24915864  1
  O  O394  1  0.86994790  0.74027984  0.75487237  1
  O  O395  1  0.38279414  0.49053957  0.49171457  1
  O  O396  1  0.36985670  0.48689178  0.99150633  1
  O  O397  1  0.37964824  0.99416391  0.49306062  1
  O  O398  1  0.39042122  1.00259477  1.00172918  1
  O  O399  1  0.88909925  0.49122385  0.50035161  1
  O  O400  1  0.88517865  0.49247802  0.99755685  1
  O  O401  1  0.88055966  0.99266520  0.49208437  1
  O  O402  1  0.88332373  1.00244380  0.98767557  1
  O  O403  1  0.11881260  0.00868440  0.00756341  1
  O  O404  1  0.12102868  0.00282687  0.50765794  1
  O  O405  1  0.11447127  0.49904223  0.00644302  1
  O  O406  1  0.12151815  0.50055014  0.50419926  1
  O  O407  1  0.61698666  0.00607884  0.00786214  1
  O  O408  1  0.61989680  0.00341163  0.50776721  1
  O  O409  1  0.63076856  0.51084514  0.01397663  1
  O  O410  1  0.62048195  0.50365005  0.50494648  1
  O  O411  1  0.36716026  0.37334536  0.11985748  1
  O  O412  1  0.38411176  0.37640132  0.60756410  1
  O  O413  1  0.36098696  0.87091249  0.12656362  1
  O  O414  1  0.38252577  0.88208044  0.61259790  1
  O  O415  1  0.86885362  0.37753711  0.11840116  1
  O  O416  1  0.87097131  0.36665168  0.61693747  1
  O  O417  1  0.87319651  0.87603596  0.11364263  1
  O  O418  1  0.86366488  0.88169841  0.61504510  1
  O  O419  1  0.13130247  0.12900777  0.37795197  1
  O  O420  1  0.11820866  0.12378353  0.88793592  1
  O  O421  1  0.14439335  0.61777243  0.39112306  1
  O  O422  1  0.13100010  0.62929575  0.87502622  1
  O  O423  1  0.62461473  0.13239186  0.38300945  1
  O  O424  1  0.64271946  0.11915610  0.87320150  1
  O  O425  1  0.63017255  0.62936764  0.38144564  1
  O  O426  1  0.63355717  0.61399868  0.89034846  1
