# generated using pymatgen
data_V85Zn86O256
_symmetry_space_group_name_H-M   'P 1'
_cell_length_a   16.94882313
_cell_length_b   16.93887471
_cell_length_c   16.96022243
_cell_angle_alpha   90.00017422
_cell_angle_beta   90.02433376
_cell_angle_gamma   90.01408222
_symmetry_Int_Tables_number   1
_chemical_formula_structural   V85Zn86O256
_chemical_formula_sum   'V85 Zn86 O256'
_cell_volume   4869.17736484
_cell_formula_units_Z   1
loop_
 _symmetry_equiv_pos_site_id
 _symmetry_equiv_pos_as_xyz
  1  'x, y, z'
loop_
 _atom_site_type_symbol
 _atom_site_label
 _atom_site_symmetry_multiplicity
 _atom_site_fract_x
 _atom_site_fract_y
 _atom_site_fract_z
 _atom_site_occupancy
  V  V0  1  0.75172072  0.75436848  0.50264197  1
  V  V1  1  0.75201012  0.12345024  0.37325789  1
  V  V2  1  0.25912825  0.62548409  0.37250672  1
  V  V3  1  0.74691952  0.49820827  0.73540073  1
  V  V4  1  0.37031417  0.36869315  -0.00129331  1
  V  V5  1  0.36453934  0.11223938  0.25018725  1
  V  V6  1  0.31589359  0.05332918  0.43094550  1
  V  V7  1  0.63099218  0.88005725  0.75098997  1
  V  V8  1  -0.00984223  -0.00561144  -0.00306235  1
  V  V9  1  0.75169855  0.26067287  0.50986865  1
  V  V10  1  0.24765869  0.88018939  0.13231740  1
  V  V11  1  0.12361658  0.74768344  0.37404945  1
  V  V12  1  0.75646363  0.10648198  0.86761093  1
  V  V13  1  0.50019641  0.75013294  0.74963557  1
  V  V14  1  0.62881729  0.37637919  0.73893244  1
  V  V15  1  0.49315021  0.12934360  0.62308474  1
  V  V16  1  0.00138312  0.00304298  0.50829001  1
  V  V17  1  0.24873171  0.74386702  0.50182858  1
  V  V18  1  0.62464573  0.75079238  0.37459494  1
  V  V19  1  0.37344645  0.62292845  0.74867354  1
  V  V20  1  0.00161799  0.62784063  0.62196676  1
  V  V21  1  0.24487552  0.49307760  0.75163922  1
  V  V22  1  0.36624026  0.74590200  0.12351517  1
  V  V23  1  0.74733416  0.37355784  0.12570739  1
  V  V24  1  0.87550793  0.75293826  0.11612602  1
  V  V25  1  0.62331657  0.12496314  -0.00335328  1
  V  V26  1  0.87800307  -0.00375035  0.37423887  1
  V  V27  1  0.75229810  0.24704017  -0.00493902  1
  V  V28  1  0.12395059  0.49551760  0.63062516  1
  V  V29  1  0.62253700  0.74851071  0.87498417  1
  V  V30  1  0.88255579  0.62607990  0.75203565  1
  V  V31  1  0.13047207  0.25113331  0.86402100  1
  V  V32  1  0.49784360  0.88320352  0.37421982  1
  V  V33  1  0.49569762  0.62519048  0.12712905  1
  V  V34  1  0.87747248  0.37278768  -0.00113962  1
  V  V35  1  0.37275696  0.24762999  0.12479615  1
  V  V36  1  0.62735911  0.62253815  0.50531203  1
  V  V37  1  0.37484053  0.74876178  0.62561883  1
  V  V38  1  -0.00076588  0.62463317  0.12253813  1
  V  V39  1  0.74849282  0.49467776  0.25080847  1
  V  V40  1  0.37375633  0.87202312  0.49604630  1
  V  V41  1  0.37925539  0.49913766  0.36924100  1
  V  V42  1  0.49264067  0.74460798  0.25054971  1
  V  V43  1  0.37200201  0.11626521  0.75260227  1
  V  V44  1  0.12224333  0.61558247  0.49773774  1
  V  V45  1  0.12949515  0.63927099  -0.00084304  1
  V  V46  1  0.00197568  0.36654046  0.86268193  1
  V  V47  1  0.14204676  0.24554943  0.37670767  1
  V  V48  1  0.49886409  0.49908108  0.00154172  1
  V  V49  1  0.62503658  0.62421773  -0.00016691  1
  V  V50  1  0.49968839  0.12353716  0.12600324  1
  V  V51  1  0.00126180  0.49801027  -0.00094312  1
  V  V52  1  0.92548211  0.31722392  0.55845659  1
  V  V53  1  0.12718636  0.76136630  0.85744522  1
  V  V54  1  0.24212298  0.88157394  0.63011022  1
  V  V55  1  0.62991719  0.00267906  0.62790944  1
  V  V56  1  0.62429012  0.87401193  0.24832415  1
  V  V57  1  0.12093101  0.00835544  0.13061247  1
  V  V58  1  0.12510546  0.49948462  0.12249081  1
  V  V59  1  0.25484680  0.11864794  0.88555309  1
  V  V60  1  -0.00087807  0.24587192  0.24965804  1
  V  V61  1  0.62717418  0.12498273  0.49982503  1
  V  V62  1  0.87466334  0.62409085  0.24870630  1
  V  V63  1  0.87837833  0.75404883  0.63128059  1
  V  V64  1  0.88525895  0.12445715  0.73840921  1
  V  V65  1  0.11764178  0.13069116  0.00060525  1
  V  V66  1  -0.01310982  0.87439709  0.86555899  1
  V  V67  1  0.25278582  0.50500766  0.24728272  1
  V  V68  1  0.63181893  0.25921773  0.36604975  1
  V  V69  1  0.88290731  0.49547662  0.38515037  1
  V  V70  1  0.75058841  0.62103435  0.87379514  1
  V  V71  1  0.49043180  -0.00044251  -0.00379350  1
  V  V72  1  0.00005662  0.75327390  0.24921870  1
  V  V73  1  0.50479874  0.61907637  0.62718129  1
  V  V74  1  0.62386114  -0.00323667  0.12425269  1
  V  V75  1  0.50397327  0.49524595  0.49837885  1
  V  V76  1  0.49368914  0.25130611  0.74913235  1
  V  V77  1  0.75187671  0.62601046  0.37408959  1
  V  V78  1  0.37348304  0.49912908  0.87615600  1
  V  V79  1  0.50653455  0.25383399  0.24564162  1
  V  V80  1  0.75223205  0.87360568  0.11772697  1
  V  V81  1  0.49170460  0.87930865  0.87177412  1
  V  V82  1  0.62553489  0.49866173  0.12705120  1
  V  V83  1  0.36374790  0.87225965  -0.00259492  1
  V  V84  1  0.24864302  0.36930097  0.12426259  1
  Zn  Zn85  1  0.75444932  0.75074883  -0.00438839  1
  Zn  Zn86  1  0.12913171  0.88238692  0.25419932  1
  Zn  Zn87  1  0.62493479  0.25293822  0.87311620  1
  Zn  Zn88  1  0.88356212  0.11753754  0.24199500  1
  Zn  Zn89  1  0.11905037  0.00356414  0.63565902  1
  Zn  Zn90  1  0.36590183  0.35468193  0.49767319  1
  Zn  Zn91  1  0.12182634  0.37601084  0.25307431  1
  Zn  Zn92  1  0.50486769  0.37668467  0.36819053  1
  Zn  Zn93  1  0.87601693  0.49679495  0.87278840  1
  Zn  Zn94  1  0.50218340  0.37334294  0.87518069  1
  Zn  Zn95  1  0.75330204  0.88171192  0.63027298  1
  Zn  Zn96  1  0.00056635  0.87543653  0.37672698  1
  Zn  Zn97  1  0.25072070  0.63231612  0.87931578  1
  Zn  Zn98  1  0.88287095  0.24262440  0.12295240  1
  Zn  Zn99  1  0.87775717  0.87566774  0.50359870  1
  Zn  Zn100  1  0.24511496  -0.00786987  0.76233716  1
  Zn  Zn101  1  0.13784376  0.12516109  0.50013264  1
  Zn  Zn102  1  0.00030097  0.37352259  0.38000576  1
  Zn  Zn103  1  0.25685489  0.35687635  0.62658889  1
  Zn  Zn104  1  0.00188052  0.14350928  0.62503315  1
  Zn  Zn105  1  0.49811764  0.00194525  0.49798435  1
  Zn  Zn106  1  0.75354223  -0.00225467  0.24793137  1
  Zn  Zn107  1  0.18411451  0.18764645  0.19129008  1
  Zn  Zn108  1  0.18115209  0.17516165  0.69236302  1
  Zn  Zn109  1  0.18775089  0.68793256  0.18662106  1
  Zn  Zn110  1  0.19131808  0.68214323  0.68714217  1
  Zn  Zn111  1  0.69900165  0.18244846  0.18213342  1
  Zn  Zn112  1  0.68627877  0.18989134  0.69009000  1
  Zn  Zn113  1  0.68683513  0.68752921  0.18685581  1
  Zn  Zn114  1  0.69023653  0.68876177  0.68887830  1
  Zn  Zn115  1  0.31972574  0.31669399  0.30664873  1
  Zn  Zn116  1  0.31068825  0.30708083  0.81017312  1
  Zn  Zn117  1  0.31244080  0.81346143  0.31124157  1
  Zn  Zn118  1  0.30919672  0.80893810  0.81389498  1
  Zn  Zn119  1  0.81604684  0.31303275  0.31321891  1
  Zn  Zn120  1  0.81200073  0.30904894  0.80877638  1
  Zn  Zn121  1  0.81288253  0.81444580  0.30858176  1
  Zn  Zn122  1  0.81188291  0.81084743  0.81349856  1
  Zn  Zn123  1  0.18554136  0.43325026  0.43450742  1
  Zn  Zn124  1  0.18686728  0.43616704  0.93768659  1
  Zn  Zn125  1  0.18025827  0.92994596  0.44618607  1
  Zn  Zn126  1  0.17967403  0.93935765  0.94126640  1
  Zn  Zn127  1  0.69057359  0.43877378  0.43791207  1
  Zn  Zn128  1  0.68667095  0.43617970  0.93253135  1
  Zn  Zn129  1  0.68762037  0.93895054  0.43835869  1
  Zn  Zn130  1  0.68134694  0.93499089  0.93980088  1
  Zn  Zn131  1  0.30743434  0.06131871  0.06433152  1
  Zn  Zn132  1  0.31471907  0.19079242  0.56747075  1
  Zn  Zn133  1  0.31083399  0.56275331  0.06135639  1
  Zn  Zn134  1  0.31307096  0.49907439  0.56035656  1
  Zn  Zn135  1  0.81166192  0.06265360  0.06168375  1
  Zn  Zn136  1  0.81570112  0.06617453  0.56272770  1
  Zn  Zn137  1  0.81395517  0.56115997  0.06008358  1
  Zn  Zn138  1  0.81448447  0.56556591  0.56340220  1
  Zn  Zn139  1  0.43637404  0.43635195  0.18727779  1
  Zn  Zn140  1  0.44107182  0.43597924  0.68642789  1
  Zn  Zn141  1  0.43708706  0.93386568  0.18453922  1
  Zn  Zn142  1  0.43730721  0.94170148  0.68226436  1
  Zn  Zn143  1  0.93605539  0.43175693  0.18999961  1
  Zn  Zn144  1  0.93942070  0.44559886  0.68930298  1
  Zn  Zn145  1  0.93964047  0.93721587  0.18518701  1
  Zn  Zn146  1  0.92759657  0.94649617  0.69589527  1
  Zn  Zn147  1  0.06453233  0.06734068  0.31718345  1
  Zn  Zn148  1  0.06176512  0.05764525  0.81276190  1
  Zn  Zn149  1  0.06318156  0.56241484  0.30934832  1
  Zn  Zn150  1  0.06210985  0.56335273  0.81725651  1
  Zn  Zn151  1  0.56480512  0.06650950  0.30960572  1
  Zn  Zn152  1  0.56194856  0.06296971  0.81250759  1
  Zn  Zn153  1  0.56687336  0.56428237  0.31190971  1
  Zn  Zn154  1  0.56308558  0.55617188  0.81252855  1
  Zn  Zn155  1  0.44639502  0.18834848  0.42925550  1
  Zn  Zn156  1  0.43674407  0.19016043  0.93575685  1
  Zn  Zn157  1  0.43877216  0.68591212  0.43807534  1
  Zn  Zn158  1  0.43649125  0.68891239  0.93918730  1
  Zn  Zn159  1  0.94190315  0.18281327  0.42812113  1
  Zn  Zn160  1  0.93749784  0.18343251  0.93262804  1
  Zn  Zn161  1  0.93682288  0.68555766  0.43929913  1
  Zn  Zn162  1  0.94382339  0.69190787  0.93297347  1
  Zn  Zn163  1  0.06224073  0.30993739  0.06395609  1
  Zn  Zn164  1  0.08841340  0.31120574  0.56026419  1
  Zn  Zn165  1  0.06073091  0.82016638  0.06307417  1
  Zn  Zn166  1  0.05977711  0.81171738  0.56177961  1
  Zn  Zn167  1  0.56320461  0.31257107  0.06129697  1
  Zn  Zn168  1  0.56361389  0.30921287  0.56184760  1
  Zn  Zn169  1  0.55830183  0.81103192  0.06024462  1
  Zn  Zn170  1  0.56291018  0.81248410  0.56362505  1
  O  O171  1  0.12983534  0.11478861  0.11838043  1
  O  O172  1  0.11556565  0.12175374  0.61646894  1
  O  O173  1  0.12004906  0.62146098  0.11500331  1
  O  O174  1  0.11799733  0.62542132  0.61613737  1
  O  O175  1  0.62267101  0.11790691  0.11315677  1
  O  O176  1  0.61916022  0.12051066  0.61864799  1
  O  O177  1  0.61841029  0.61967889  0.11896646  1
  O  O178  1  0.61766762  0.63320446  0.61621739  1
  O  O179  1  0.38271335  0.38539799  0.37764738  1
  O  O180  1  0.37474489  0.38051177  0.88308350  1
  O  O181  1  0.38311175  0.86524705  0.38674992  1
  O  O182  1  0.38352090  0.86794013  0.88258841  1
  O  O183  1  0.87487172  0.39225083  0.37366676  1
  O  O184  1  0.88545007  0.37201453  0.88061810  1
  O  O185  1  0.87440502  0.88521993  0.37662219  1
  O  O186  1  0.88755792  0.86303225  0.87928211  1
  O  O187  1  0.25302430  -0.00535766  0.38131817  1
  O  O188  1  0.24718828  0.01453330  0.88081051  1
  O  O189  1  0.25816270  0.50667127  0.36596709  1
  O  O190  1  0.25919330  0.50275438  0.87111972  1
  O  O191  1  0.75772540  0.00567264  0.37552310  1
  O  O192  1  0.74580755  0.00834582  0.88228836  1
  O  O193  1  0.75669234  0.50555944  0.36712133  1
  O  O194  1  0.75169874  0.51161126  0.86950605  1
  O  O195  1  0.24733866  0.49426914  0.13100260  1
  O  O196  1  0.23603845  0.51941682  0.64071132  1
  O  O197  1  0.23406461  0.99267035  0.12120862  1
  O  O198  1  0.24915088  0.98060018  0.62114491  1
  O  O199  1  0.74737078  0.49427720  0.13104834  1
  O  O200  1  0.74877958  0.50871004  0.63621545  1
  O  O201  1  0.74121547  0.98922800  0.12410193  1
  O  O202  1  0.73444645  0.99975682  0.61600511  1
  O  O203  1  0.00204720  0.36593602  0.25528555  1
  O  O204  1  -0.00324437  0.37798773  0.76495722  1
  O  O205  1  0.00251903  0.86173981  0.25204795  1
  O  O206  1  -0.00685566  0.88185712  0.76599775  1
  O  O207  1  0.49885893  0.35890897  0.24562681  1
  O  O208  1  0.50801308  0.36883028  0.75017712  1
  O  O209  1  0.50311555  0.86557691  0.25590078  1
  O  O210  1  0.50192770  0.87109228  0.75619958  1
  O  O211  1  0.49398550  0.13213104  0.24330791  1
  O  O212  1  0.49522430  0.13159856  0.74526741  1
  O  O213  1  0.50579103  0.63746936  0.24479723  1
  O  O214  1  0.49790102  0.62715429  0.74383447  1
  O  O215  1  0.99957569  0.13935941  0.25304117  1
  O  O216  1  0.98914398  0.12579414  0.75020316  1
  O  O217  1  0.99647083  0.63404898  0.24162957  1
  O  O218  1  0.98696385  0.62284462  0.74849389  1
  O  O219  1  0.37925934  0.25918738  0.00945256  1
  O  O220  1  0.38523699  0.24548126  0.50025188  1
  O  O221  1  0.38008082  0.76073166  0.01033788  1
  O  O222  1  0.37031783  0.75311363  0.50546378  1
  O  O223  1  0.86894022  0.25483299  0.00119715  1
  O  O224  1  0.86666468  0.25103935  0.49655853  1
  O  O225  1  0.87546879  0.74194420  0.01323279  1
  O  O226  1  0.86744081  0.75041894  0.50961277  1
  O  O227  1  0.13382350  0.24562465  0.48295895  1
  O  O228  1  0.11825249  0.23501596  0.99782701  1
  O  O229  1  0.12892698  0.74148581  0.49100886  1
  O  O230  1  0.12203657  0.73973926  1.00384354  1
  O  O231  1  0.63432935  0.24282234  0.49119451  1
  O  O232  1  0.63005803  0.24025789  0.99825145  1
  O  O233  1  0.63101364  0.74283860  0.49522071  1
  O  O234  1  0.62265711  0.74044551  0.99268282  1
  O  O235  1  0.49688272  0.24186111  0.12791855  1
  O  O236  1  0.50782267  0.23958645  0.63489394  1
  O  O237  1  0.49076129  0.74640747  0.13247796  1
  O  O238  1  0.49446367  0.74106904  0.62938100  1
  O  O239  1  0.99973030  0.25535407  0.14264267  1
  O  O240  1  0.99412454  0.26236556  0.61362487  1
  O  O241  1  0.99392582  0.74743867  0.13068193  1
  O  O242  1  0.99098883  0.74089341  0.62367267  1
  O  O243  1  0.00764923  0.25267734  0.36524666  1
  O  O244  1  0.00916668  0.26067066  0.88045764  1
  O  O245  1  0.00610643  0.74742289  0.36679619  1
  O  O246  1  0.01399514  0.76427869  0.87967454  1
  O  O247  1  0.51446091  0.25142466  0.36254019  1
  O  O248  1  0.50343809  0.25114878  0.86467553  1
  O  O249  1  0.50434923  0.75549273  0.36762356  1
  O  O250  1  0.50423271  0.75672815  0.86940742  1
  O  O251  1  0.26112054  0.11071085  0.49495771  1
  O  O252  1  0.24264702  0.12477812  0.99034977  1
  O  O253  1  0.24088346  0.62910147  0.48686583  1
  O  O254  1  0.23307323  0.62013498  0.99777497  1
  O  O255  1  0.74492430  0.13164454  0.49049831  1
  O  O256  1  0.74141609  0.13000224  0.99124923  1
  O  O257  1  0.74451264  0.63554620  0.49664243  1
  O  O258  1  0.74387042  0.62493982  0.99158830  1
  O  O259  1  0.26219375  0.38205315  0.00937437  1
  O  O260  1  0.25913914  0.40194796  0.51073034  1
  O  O261  1  0.26042856  0.88127503  0.00757733  1
  O  O262  1  0.25737951  0.86391761  0.50718251  1
  O  O263  1  0.76054393  0.37026319  0.00127778  1
  O  O264  1  0.74622704  0.36003531  0.49890026  1
  O  O265  1  0.74070001  0.86830967  0.01304721  1
  O  O266  1  0.74880691  0.86258241  0.50206616  1
  O  O267  1  0.13353321  0.49924345  0.24106407  1
  O  O268  1  0.13406792  0.50902433  0.74598255  1
  O  O269  1  0.11532189  1.00071405  0.23538254  1
  O  O270  1  0.13313517  1.00390126  0.74762574  1
  O  O271  1  0.64032848  0.50486071  0.24431469  1
  O  O272  1  0.63151744  0.48712636  0.75173150  1
  O  O273  1  0.62415739  0.99122102  0.24191918  1
  O  O274  1  0.61703393  0.99093162  0.74100009  1
  O  O275  1  0.38000069  0.01334904  0.24371694  1
  O  O276  1  0.37464437  0.01285874  0.75012463  1
  O  O277  1  0.37070380  0.50012348  0.25998181  1
  O  O278  1  0.37270510  0.50703557  0.75938985  1
  O  O279  1  0.87471022  -0.00077287  0.25771237  1
  O  O280  1  0.86259223  0.02298056  0.74800689  1
  O  O281  1  0.86499217  0.50637731  0.25311196  1
  O  O282  1  0.86516300  0.50880966  0.75359847  1
  O  O283  1  0.12139913  0.36504577  0.37288400  1
  O  O284  1  0.11649478  0.36059789  0.88357534  1
  O  O285  1  0.12455408  0.85941708  0.37243576  1
  O  O286  1  0.12186686  0.86418725  0.87584648  1
  O  O287  1  0.62792655  0.36265061  0.37362014  1
  O  O288  1  0.62008557  0.37350734  0.86576095  1
  O  O289  1  0.61804034  0.86897402  0.37032707  1
  O  O290  1  0.61301204  0.87004286  0.86895566  1
  O  O291  1  0.37866446  0.12851428  0.13152266  1
  O  O292  1  0.38803868  0.12302481  0.63534300  1
  O  O293  1  0.38126784  0.63450417  0.11779813  1
  O  O294  1  0.38500416  0.62850845  0.63934480  1
  O  O295  1  0.84262673  0.13676947  0.13776027  1
  O  O296  1  0.88344294  0.12627205  0.63162979  1
  O  O297  1  0.88009400  0.63037630  0.13003944  1
  O  O298  1  0.88276527  0.63089667  0.63163424  1
  O  O299  1  0.25367321  0.26337137  0.13282082  1
  O  O300  1  0.24453776  0.24624176  0.63247439  1
  O  O301  1  0.26025148  0.75619272  0.12799739  1
  O  O302  1  0.25834189  0.75209615  0.62050837  1
  O  O303  1  0.74408290  0.26094810  0.11009698  1
  O  O304  1  0.74521146  0.24450986  0.60772880  1
  O  O305  1  0.75872494  0.75405439  0.12356418  1
  O  O306  1  0.75731096  0.75172315  0.61720725  1
  O  O307  1  0.24014439  0.25569245  0.36213510  1
  O  O308  1  0.23693507  0.24310322  0.87483164  1
  O  O309  1  0.24315876  0.74228124  0.37630812  1
  O  O310  1  0.23354726  0.74975002  0.87573131  1
  O  O311  1  0.74761624  0.24303546  0.37986519  1
  O  O312  1  0.74621835  0.24709816  0.88802347  1
  O  O313  1  0.74686802  0.74582953  0.38129844  1
  O  O314  1  0.74196982  0.73789520  0.87537795  1
  O  O315  1  0.00713886  0.11098253  -0.00910707  1
  O  O316  1  -0.00248955  0.11065684  0.49998009  1
  O  O317  1  0.00883564  0.61963890  0.00372146  1
  O  O318  1  0.00901953  0.62935221  0.50938217  1
  O  O319  1  0.50374794  0.11802055  0.00346624  1
  O  O320  1  0.51146940  0.12449410  0.50602561  1
  O  O321  1  0.50499960  0.61814864  0.00557259  1
  O  O322  1  0.50999268  0.62137751  0.50633374  1
  O  O323  1  0.50826086  0.39011489  0.49843266  1
  O  O324  1  0.48831506  0.38201301  1.00171708  1
  O  O325  1  0.49306400  0.87433160  0.49149279  1
  O  O326  1  0.49123534  0.88140882  0.99206535  1
  O  O327  1  0.99309576  0.36928677  0.50131704  1
  O  O328  1  0.98891485  0.37691297  0.99908351  1
  O  O329  1  0.99795203  0.88498673  0.49571720  1
  O  O330  1  1.00405377  0.88781216  0.99179530  1
  O  O331  1  0.49726681  0.49959498  0.37675791  1
  O  O332  1  0.48720022  0.49830832  0.88108262  1
  O  O333  1  0.50625973  0.98581889  0.37363722  1
  O  O334  1  0.50214743  0.99015850  0.88342835  1
  O  O335  1  0.98641332  0.50110086  0.36967213  1
  O  O336  1  1.00185616  0.48583432  0.88300146  1
  O  O337  1  0.99367641  0.99829309  0.38218967  1
  O  O338  1  1.00326097  0.98670401  0.88701120  1
  O  O339  1  0.01310910  -0.00729027  0.11406804  1
  O  O340  1  -0.00276530  -0.00628207  0.61235268  1
  O  O341  1  0.00378009  0.50441527  0.11972260  1
  O  O342  1  0.01007871  0.51710952  0.63291565  1
  O  O343  1  0.50509427  0.00338033  0.11733193  1
  O  O344  1  0.51020370  0.00955216  0.61989751  1
  O  O345  1  0.50458657  0.50497674  0.12272039  1
  O  O346  1  0.50033795  0.51359727  0.61535545  1
  O  O347  1  0.25096370  0.38867780  0.24116873  1
  O  O348  1  0.25776129  0.39022619  0.74854215  1
  O  O349  1  0.24957081  0.87380818  0.23700046  1
  O  O350  1  0.26277514  0.87558504  0.73374431  1
  O  O351  1  0.75566777  0.38244691  0.23854508  1
  O  O352  1  0.73847851  0.38302422  0.75469437  1
  O  O353  1  0.74049176  0.87369325  0.23829508  1
  O  O354  1  0.73438222  0.87059363  0.75153752  1
  O  O355  1  0.26615962  0.12528835  0.24503837  1
  O  O356  1  0.25864584  0.12200981  0.76489058  1
  O  O357  1  0.24510339  0.61328393  0.25586111  1
  O  O358  1  0.26134438  0.61953372  0.75791590  1
  O  O359  1  0.74281078  0.11862431  0.26691385  1
  O  O360  1  0.73571320  0.12285242  0.76878016  1
  O  O361  1  0.75517112  0.61941876  0.25443644  1
  O  O362  1  0.75508448  0.61844003  0.75677671  1
  O  O363  1  0.37568669  0.11514400  0.36657429  1
  O  O364  1  0.36099705  0.13024694  0.87244924  1
  O  O365  1  0.36356520  0.62462454  0.37226938  1
  O  O366  1  0.37574519  0.61867365  0.86776884  1
  O  O367  1  0.86739508  0.11249217  0.37125944  1
  O  O368  1  0.85887460  0.12341638  0.87358002  1
  O  O369  1  0.87004932  0.61902144  0.36758278  1
  O  O370  1  0.86897281  0.62662870  0.86842979  1
  O  O371  1  0.13391962  0.38189108  0.12342662  1
  O  O372  1  0.13157781  0.39313360  0.62533778  1
  O  O373  1  0.13273906  0.88388658  0.12742182  1
  O  O374  1  0.13991139  0.87084617  0.62018779  1
  O  O375  1  0.63835543  0.38419635  0.11562672  1
  O  O376  1  0.62285904  0.37290487  0.63960733  1
  O  O377  1  0.62745052  0.87622901  0.12957103  1
  O  O378  1  0.62336067  0.88282846  0.63390835  1
  O  O379  1  0.11678596  0.25215527  0.25776823  1
  O  O380  1  0.12187421  0.24686709  0.76647325  1
  O  O381  1  0.11668588  0.74779793  0.25700577  1
  O  O382  1  0.12603393  0.74686563  0.75964897  1
  O  O383  1  0.62103695  0.24050171  0.25536381  1
  O  O384  1  0.61807950  0.26109023  0.75226232  1
  O  O385  1  0.61732484  0.75605338  0.25433207  1
  O  O386  1  0.61777345  0.75667060  0.75486004  1
  O  O387  1  0.38530155  0.24046616  0.24353172  1
  O  O388  1  0.38736601  0.24063249  0.75406442  1
  O  O389  1  0.38379705  0.75405723  0.23996544  1
  O  O390  1  0.38154001  0.74138793  0.74790581  1
  O  O391  1  0.88837744  0.24880324  0.25203362  1
  O  O392  1  0.85719182  0.22380883  0.75281534  1
  O  O393  1  0.88216156  0.74340553  0.24306965  1
  O  O394  1  0.86601156  0.74029195  0.73818913  1
  O  O395  1  0.39260592  0.51641222  0.48049476  1
  O  O396  1  0.37858090  0.49472303  0.99318557  1
  O  O397  1  0.37719456  0.99113597  0.49031423  1
  O  O398  1  0.38511870  0.99211374  1.00712648  1
  O  O399  1  0.87083681  0.50912810  0.48296227  1
  O  O400  1  0.88163966  0.49124337  0.99563519  1
  O  O401  1  0.88323075  0.99750040  0.49327872  1
  O  O402  1  0.89156098  1.00177358  1.00873860  1
  O  O403  1  0.11697268  0.01013938  0.00934325  1
  O  O404  1  0.11096482  0.00168434  0.50192811  1
  O  O405  1  0.11889224  0.50697188  0.00428967  1
  O  O406  1  0.12629910  0.51240435  0.50695823  1
  O  O407  1  0.61167598  0.00428380  0.00533328  1
  O  O408  1  0.62242140  0.01109902  0.50356160  1
  O  O409  1  0.61928055  0.50537927  0.00479853  1
  O  O410  1  0.62075463  0.51476366  0.49169059  1
  O  O411  1  0.36794985  0.36970449  0.11877157  1
  O  O412  1  0.36778781  0.40176629  0.61108204  1
  O  O413  1  0.36778412  0.86869023  0.11748708  1
  O  O414  1  0.37359931  0.86970421  0.61145116  1
  O  O415  1  0.86382560  0.37240541  0.11543309  1
  O  O416  1  0.87701383  0.37986968  0.61914338  1
  O  O417  1  0.86459855  0.86458880  0.13094138  1
  O  O418  1  0.87150586  0.86774465  0.62675474  1
  O  O419  1  0.12915598  0.13903041  0.37803285  1
  O  O420  1  0.13262931  0.13439989  0.88205451  1
  O  O421  1  0.13024390  0.63081464  0.37911263  1
  O  O422  1  0.12104078  0.63874399  0.88629231  1
  O  O423  1  0.63051308  0.13111969  0.38397747  1
  O  O424  1  0.62845343  0.12395754  0.88740528  1
  O  O425  1  0.63266981  0.63296854  0.38208348  1
  O  O426  1  0.63104478  0.62679577  0.87867581  1
