# generated using pymatgen
data_V85Zn86O256
_symmetry_space_group_name_H-M   'P 1'
_cell_length_a   16.97376103
_cell_length_b   16.99098231
_cell_length_c   16.98503913
_cell_angle_alpha   90.12054323
_cell_angle_beta   90.03726827
_cell_angle_gamma   90.11323053
_symmetry_Int_Tables_number   1
_chemical_formula_structural   V85Zn86O256
_chemical_formula_sum   'V85 Zn86 O256'
_cell_volume   4898.47866288
_cell_formula_units_Z   1
loop_
 _symmetry_equiv_pos_site_id
 _symmetry_equiv_pos_as_xyz
  1  'x, y, z'
loop_
 _atom_site_type_symbol
 _atom_site_label
 _atom_site_symmetry_multiplicity
 _atom_site_fract_x
 _atom_site_fract_y
 _atom_site_fract_z
 _atom_site_occupancy
  V  V0  1  0.87443273  0.25569006  0.62525811  1
  V  V1  1  0.13349992  0.37713594  0.24917998  1
  V  V2  1  0.38233766  0.63500362  0.74696150  1
  V  V3  1  0.24968532  -0.00086365  0.25330500  1
  V  V4  1  0.87214685  0.50295255  0.37684286  1
  V  V5  1  0.50070598  0.12481261  0.64221690  1
  V  V6  1  0.62373829  0.11960739  0.00201857  1
  V  V7  1  0.12460707  0.62644900  -0.00109930  1
  V  V8  1  0.12768899  0.49919885  0.62418431  1
  V  V9  1  0.13015656  0.37677481  0.74666155  1
  V  V10  1  0.87051998  0.37107951  0.01384697  1
  V  V11  1  0.37726592  -0.00123770  0.37971141  1
  V  V12  1  0.69845068  0.31418788  0.56386091  1
  V  V13  1  0.75264418  0.24958629  0.01912893  1
  V  V14  1  -0.00010737  0.50302780  0.50045564  1
  V  V15  1  0.69536288  0.67867091  0.81739848  1
  V  V16  1  0.62484184  -0.00879173  0.62860572  1
  V  V17  1  0.50286746  0.00460398  0.50358533  1
  V  V18  1  0.24500893  0.11217193  0.88471579  1
  V  V19  1  0.12717949  0.87477700  0.25037499  1
  V  V20  1  -0.00545743  0.12940981  0.12692432  1
  V  V21  1  0.14219747  0.62534848  0.50080907  1
  V  V22  1  0.87405925  0.12848776  0.75146792  1
  V  V23  1  -0.00103377  0.62522964  0.12657986  1
  V  V24  1  0.50031909  0.49968425  0.49641375  1
  V  V25  1  0.87617350  0.62375475  0.75636063  1
  V  V26  1  0.86737151  0.49855448  0.87810316  1
  V  V27  1  0.74791707  0.50040212  0.24610914  1
  V  V28  1  0.62598168  0.49048606  0.12380137  1
  V  V29  1  0.37640061  0.12703022  0.25319015  1
  V  V30  1  0.87463159  0.37214995  0.50155908  1
  V  V31  1  -0.00121154  0.75088419  0.25215652  1
  V  V32  1  0.63129234  0.62923396  0.00236089  1
  V  V33  1  0.74970219  -0.00270250  0.75175273  1
  V  V34  1  0.61815466  0.37011878  0.76848003  1
  V  V35  1  0.36918040  0.25967707  0.62923001  1
  V  V36  1  0.49810739  0.12237435  0.12182280  1
  V  V37  1  0.23861508  0.88052972  0.62484088  1
  V  V38  1  0.36372490  0.24886244  0.12005194  1
  V  V39  1  0.49420338  0.62458526  0.12709499  1
  V  V40  1  0.13512265  0.50277869  0.12881909  1
  V  V41  1  0.50691325  0.62439137  0.61830471  1
  V  V42  1  0.12216554  0.76064408  0.87546159  1
  V  V43  1  0.50621185  0.87685502  0.36870928  1
  V  V44  1  -0.00061028  0.50022605  0.00086929  1
  V  V45  1  0.62683260  0.36711048  0.25148358  1
  V  V46  1  0.62905154  0.75227047  0.39212210  1
  V  V47  1  0.75031766  0.13199263  0.87925676  1
  V  V48  1  0.51988724  0.87214048  0.87462180  1
  V  V49  1  -0.00606940  0.25337137  0.24768814  1
  V  V50  1  0.87725976  0.00121381  0.87922095  1
  V  V51  1  0.25043841  0.13328773  0.38478862  1
  V  V52  1  0.74382189  0.14056541  0.38077498  1
  V  V53  1  0.61760337  -0.00733970  0.12775920  1
  V  V54  1  0.49864284  0.36488363  0.37681059  1
  V  V55  1  0.74523185  0.62962467  0.39164606  1
  V  V56  1  0.25983607  0.62522498  0.35836806  1
  V  V57  1  0.74622174  0.87187450  0.12905067  1
  V  V58  1  0.49847426  0.49435382  -0.00402794  1
  V  V59  1  0.74371996  -0.00212493  0.25367585  1
  V  V60  1  0.00559681  0.00458235  0.49918575  1
  V  V61  1  0.35672172  0.11710220  0.74609273  1
  V  V62  1  0.00599775  0.12595060  0.62418652  1
  V  V63  1  0.87205557  0.75046765  0.12601926  1
  V  V64  1  0.37694854  0.49746366  0.35720724  1
  V  V65  1  0.00140970  0.62666155  0.62462592  1
  V  V66  1  -0.00043166  0.37526673  0.87734601  1
  V  V67  1  0.13171032  0.74863390  0.38037493  1
  V  V68  1  0.87095697  0.00249358  0.37503423  1
  V  V69  1  0.50679071  0.74693281  0.25116138  1
  V  V70  1  0.37912752  0.49441211  0.87303478  1
  V  V71  1  0.13742148  0.25556565  0.88321315  1
  V  V72  1  0.74953252  0.48905715  0.74418759  1
  V  V73  1  -0.00060239  0.25444157  0.75275269  1
  V  V74  1  0.26209442  0.75119985  0.00102305  1
  V  V75  1  0.00351322  -0.00146889  0.00298754  1
  V  V76  1  0.87056044  0.62691038  0.25264306  1
  V  V77  1  -0.00041941  0.37581858  0.37372187  1
  V  V78  1  0.87865865  0.87453333  -0.00180760  1
  V  V79  1  0.87290832  0.75192037  0.61938527  1
  V  V80  1  0.00111673  0.75470534  0.75535833  1
  V  V81  1  -0.00131039  0.87653229  0.37577509  1
  V  V82  1  0.25206351  0.62739915  0.87288531  1
  V  V83  1  0.25287035  0.50086704  0.74534492  1
  V  V84  1  0.75553922  0.87746120  0.62102794  1
  Zn  Zn85  1  0.87603441  0.87366785  0.49998465  1
  Zn  Zn86  1  0.36193380  0.87086412  0.50126613  1
  Zn  Zn87  1  0.37594386  0.75128306  0.13644819  1
  Zn  Zn88  1  0.12532460  0.00230865  0.12793436  1
  Zn  Zn89  1  0.38670052  0.88813945  0.00070772  1
  Zn  Zn90  1  0.74962870  0.74845272  -0.00836689  1
  Zn  Zn91  1  0.87015523  0.13250372  0.24895011  1
  Zn  Zn92  1  0.25658918  0.87477463  0.12495152  1
  Zn  Zn93  1  0.24908985  0.28574482  0.51559765  1
  Zn  Zn94  1  0.59661779  0.23792090  0.86749785  1
  Zn  Zn95  1  0.62706271  0.13339941  0.50225623  1
  Zn  Zn96  1  0.63148180  0.49634604  0.61549943  1
  Zn  Zn97  1  0.35669308  0.74644206  0.61587508  1
  Zn  Zn98  1  0.38266074  -0.00822623  0.87410473  1
  Zn  Zn99  1  0.37084904  0.35841576  -0.01846621  1
  Zn  Zn100  1  0.51911136  0.75512442  0.75125889  1
  Zn  Zn101  1  0.12994357  0.13201959  0.50624911  1
  Zn  Zn102  1  0.25162339  0.37576103  0.11819185  1
  Zn  Zn103  1  0.12576182  0.13399068  0.01036361  1
  Zn  Zn104  1  0.50427280  0.24867022  0.24818734  1
  Zn  Zn105  1  0.12467685  0.25311490  0.38056724  1
  Zn  Zn106  1  0.13803763  0.90649715  0.75363196  1
  Zn  Zn107  1  0.18178044  0.18642196  0.19556731  1
  Zn  Zn108  1  0.18667164  0.19083264  0.69092258  1
  Zn  Zn109  1  0.18689662  0.69095472  0.18560593  1
  Zn  Zn110  1  0.18881488  0.69483059  0.68780435  1
  Zn  Zn111  1  0.68713573  0.18217079  0.19021639  1
  Zn  Zn112  1  0.68077396  0.18232596  0.69537967  1
  Zn  Zn113  1  0.68105883  0.68799315  0.19269536  1
  Zn  Zn114  1  0.65658752  0.71644925  0.61483744  1
  Zn  Zn115  1  0.31526222  0.31291285  0.31022056  1
  Zn  Zn116  1  0.31425299  0.30819214  0.80420350  1
  Zn  Zn117  1  0.31741211  0.81031112  0.31501665  1
  Zn  Zn118  1  0.31253428  0.82042304  0.81078101  1
  Zn  Zn119  1  0.81241628  0.31726687  0.30979883  1
  Zn  Zn120  1  0.80893750  0.31370452  0.81786447  1
  Zn  Zn121  1  0.80782114  0.81445735  0.31449750  1
  Zn  Zn122  1  0.82052403  0.81918205  0.80774044  1
  Zn  Zn123  1  0.18710470  0.44423197  0.42668999  1
  Zn  Zn124  1  0.19301381  0.43822900  0.93930987  1
  Zn  Zn125  1  0.18724727  0.93974010  0.44147815  1
  Zn  Zn126  1  0.18914577  0.93650388  0.94450427  1
  Zn  Zn127  1  0.68063149  0.44324605  0.42866776  1
  Zn  Zn128  1  0.68963188  0.43475060  0.94148282  1
  Zn  Zn129  1  0.68505245  0.93868291  0.44275235  1
  Zn  Zn130  1  0.69044657  0.93820833  0.94227429  1
  Zn  Zn131  1  0.31194766  0.05877280  0.06394035  1
  Zn  Zn132  1  0.31095718  0.05384815  0.56739083  1
  Zn  Zn133  1  0.31467740  0.56324298  0.05922391  1
  Zn  Zn134  1  0.30495181  0.48703845  0.54405504  1
  Zn  Zn135  1  0.81235157  0.06115995  0.06743191  1
  Zn  Zn136  1  0.81527945  0.06584025  0.56036569  1
  Zn  Zn137  1  0.81034576  0.56156213  0.06405407  1
  Zn  Zn138  1  0.81377104  0.56216518  0.56750878  1
  Zn  Zn139  1  0.44378246  0.43226965  0.18440609  1
  Zn  Zn140  1  0.44171480  0.44265823  0.69052438  1
  Zn  Zn141  1  0.43599110  0.93303168  0.18926837  1
  Zn  Zn142  1  0.43211434  0.92776106  0.69362209  1
  Zn  Zn143  1  0.94108320  0.44130012  0.18959603  1
  Zn  Zn144  1  0.93922805  0.43796929  0.68787367  1
  Zn  Zn145  1  0.93503599  0.94030527  0.18789186  1
  Zn  Zn146  1  0.96568174  0.95291344  0.70266031  1
  Zn  Zn147  1  0.06308487  0.06672776  0.31437110  1
  Zn  Zn148  1  0.06134469  0.06839390  0.81876249  1
  Zn  Zn149  1  0.06354687  0.56317523  0.31232981  1
  Zn  Zn150  1  0.06231511  0.56440415  0.81447968  1
  Zn  Zn151  1  0.56548777  0.06599386  0.31275111  1
  Zn  Zn152  1  0.56323057  0.05098933  0.81561305  1
  Zn  Zn153  1  0.56453162  0.56506959  0.31313506  1
  Zn  Zn154  1  0.56149071  0.55534997  0.80796267  1
  Zn  Zn155  1  0.43195918  0.18950618  0.44908493  1
  Zn  Zn156  1  0.43007056  0.17102748  0.93919695  1
  Zn  Zn157  1  0.43410449  0.68368891  0.43709841  1
  Zn  Zn158  1  0.44666687  0.69007199  0.93140798  1
  Zn  Zn159  1  0.93401206  0.18916035  0.43577289  1
  Zn  Zn160  1  0.93910303  0.18993369  0.94196531  1
  Zn  Zn161  1  0.94064015  0.68735267  0.43826577  1
  Zn  Zn162  1  0.93601380  0.68785759  0.93844698  1
  Zn  Zn163  1  0.06108310  0.31499639  0.06501989  1
  Zn  Zn164  1  0.06404512  0.31265249  0.56135670  1
  Zn  Zn165  1  0.06438507  0.81294683  0.06373808  1
  Zn  Zn166  1  0.06443977  0.81317869  0.56280907  1
  Zn  Zn167  1  0.53617289  0.28874542  0.02579751  1
  Zn  Zn168  1  0.53406956  0.31512420  0.56698879  1
  Zn  Zn169  1  0.56177843  0.81043995  0.05886959  1
  Zn  Zn170  1  0.51756270  0.79783722  0.54174064  1
  O  O171  1  0.11278557  0.12227031  0.12904898  1
  O  O172  1  0.10961650  0.13230555  0.62672427  1
  O  O173  1  0.11842678  0.62086510  0.12078938  1
  O  O174  1  0.12204942  0.62006408  0.61715979  1
  O  O175  1  0.61592198  0.11640205  0.12344563  1
  O  O176  1  0.61531741  0.11963040  0.62428629  1
  O  O177  1  0.62001522  0.61577225  0.11620194  1
  O  O178  1  0.61215491  0.61115097  0.62935905  1
  O  O179  1  0.38249876  0.38961437  0.36457766  1
  O  O180  1  0.37001038  0.39001233  0.86622020  1
  O  O181  1  0.38327128  0.88477175  0.37886557  1
  O  O182  1  0.37930270  0.87474022  0.88035042  1
  O  O183  1  0.87793881  0.38336447  0.38381783  1
  O  O184  1  0.88110064  0.38231944  0.88233155  1
  O  O185  1  0.88032961  0.88253759  0.37676309  1
  O  O186  1  0.87010361  0.88302405  0.89076355  1
  O  O187  1  0.25825715  0.00584183  0.36914324  1
  O  O188  1  0.23491889  0.01280084  0.86996523  1
  O  O189  1  0.26628675  0.51217393  0.36941989  1
  O  O190  1  0.25465669  0.51222715  0.86477793  1
  O  O191  1  0.75436948  0.00069261  0.36934965  1
  O  O192  1  0.75659048  0.00945497  0.87089677  1
  O  O193  1  0.75414172  0.51122147  0.36946530  1
  O  O194  1  0.76330366  0.49298152  0.86859438  1
  O  O195  1  0.23786001  0.50572928  0.12381739  1
  O  O196  1  0.24478877  0.50838700  0.63891301  1
  O  O197  1  0.24784181  1.00088983  0.14361066  1
  O  O198  1  0.24768573  0.98307025  0.62642338  1
  O  O199  1  0.74105398  0.50524866  0.13670324  1
  O  O200  1  0.75079460  0.50072250  0.63997081  1
  O  O201  1  0.74263504  0.99374444  0.13512048  1
  O  O202  1  0.74833502  1.00186952  0.63382322  1
  O  O203  1  0.00558648  0.37109936  0.25475905  1
  O  O204  1  0.00679294  0.37341142  0.75835394  1
  O  O205  1  0.00710386  0.87183044  0.25618710  1
  O  O206  1  -0.01304578  0.85307329  0.75471747  1
  O  O207  1  0.50924057  0.36996751  0.25643329  1
  O  O208  1  0.52147390  0.38057327  0.74478413  1
  O  O209  1  0.50283565  0.87399236  0.26479337  1
  O  O210  1  0.50230181  0.87042933  0.76326908  1
  O  O211  1  0.49337862  0.12661593  0.24292660  1
  O  O212  1  0.49801812  0.12105707  0.74424855  1
  O  O213  1  0.50930189  0.63293781  0.23829089  1
  O  O214  1  0.49513238  0.62359209  0.74256289  1
  O  O215  1  0.99802985  0.13559408  0.24709074  1
  O  O216  1  0.99089649  0.13755249  0.74356720  1
  O  O217  1  0.99213574  0.63142735  0.24735259  1
  O  O218  1  0.99193894  0.62700541  0.74392262  1
  O  O219  1  0.36970004  0.24322672  0.01730889  1
  O  O220  1  0.36511655  0.24658530  0.52248590  1
  O  O221  1  0.36444927  0.74206079  -0.00202100  1
  O  O222  1  0.40755940  0.76314288  0.51135472  1
  O  O223  1  0.86637803  0.26044481  -0.00248774  1
  O  O224  1  0.87731613  0.26453514  0.50699243  1
  O  O225  1  0.87186914  0.75647795  0.00610398  1
  O  O226  1  0.88219108  0.74978514  0.51572742  1
  O  O227  1  0.13570390  0.25113020  0.49878112  1
  O  O228  1  0.11885159  0.25261617  0.98702055  1
  O  O229  1  0.11675310  0.74028135  0.48568525  1
  O  O230  1  0.12928084  0.74365957  0.99380744  1
  O  O231  1  0.63149958  0.25732117  0.51316586  1
  O  O232  1  0.63722543  0.23164207  1.00644856  1
  O  O233  1  0.62079146  0.75233316  0.49441960  1
  O  O234  1  0.63073929  0.73273331  1.00398966  1
  O  O235  1  0.48782506  0.23687507  0.12481118  1
  O  O236  1  0.48358472  0.23441109  0.62458109  1
  O  O237  1  0.50561108  0.74173088  0.13432836  1
  O  O238  1  0.52913494  0.73509118  0.63479716  1
  O  O239  1  1.00391754  0.24261878  0.13472526  1
  O  O240  1  0.99109048  0.24728191  0.63090424  1
  O  O241  1  0.99394383  0.74470045  0.13257385  1
  O  O242  1  0.99409164  0.74314068  0.63337184  1
  O  O243  1  0.00085803  0.26027956  0.37045830  1
  O  O244  1  0.00627267  0.25629553  0.86930831  1
  O  O245  1  0.00710068  0.75548043  0.36912506  1
  O  O246  1  0.01108722  0.73980163  0.86923290  1
  O  O247  1  0.48808041  0.26203194  0.37637246  1
  O  O248  1  0.49945246  0.25550663  0.91886648  1
  O  O249  1  0.51193934  0.75685040  0.37416085  1
  O  O250  1  0.50530955  0.75988697  0.86569448  1
  O  O251  1  0.25029132  0.11533992  0.48755775  1
  O  O252  1  0.24260722  0.12330362  0.98784894  1
  O  O253  1  0.24096200  0.61515542  0.48857882  1
  O  O254  1  0.24451093  0.63040666  0.99124366  1
  O  O255  1  0.74938516  0.12487816  0.48492502  1
  O  O256  1  0.74752508  0.12868718  0.99631603  1
  O  O257  1  0.75400391  0.62233549  0.49115734  1
  O  O258  1  0.73716211  0.62323782  1.00080574  1
  O  O259  1  0.26184798  0.38306816  0.00494947  1
  O  O260  1  0.24968450  0.39725796  0.50440184  1
  O  O261  1  0.24694826  0.86093459  0.00558537  1
  O  O262  1  0.24703570  0.87704558  0.51145547  1
  O  O263  1  0.75788554  0.36212336  -0.00132447  1
  O  O264  1  0.75233109  0.37595241  0.49912535  1
  O  O265  1  0.75876692  0.87200622  0.01283112  1
  O  O266  1  0.75855830  0.88827478  0.51648206  1
  O  O267  1  0.11674429  0.49139330  0.23925420  1
  O  O268  1  0.13261608  0.49609653  0.74712724  1
  O  O269  1  0.13313369  0.99123350  0.25573524  1
  O  O270  1  0.06930688  0.99007168  0.74306710  1
  O  O271  1  0.63165577  0.49595602  0.24392885  1
  O  O272  1  0.63487130  0.48582033  0.74950574  1
  O  O273  1  0.63682602  1.00263283  0.24397471  1
  O  O274  1  0.63999116  1.00889892  0.74133380  1
  O  O275  1  0.37072129  0.00835251  0.26059219  1
  O  O276  1  0.37974255  0.01568805  0.75509029  1
  O  O277  1  0.38606663  0.50316775  0.25864026  1
  O  O278  1  0.36933129  0.51048583  0.75342095  1
  O  O279  1  0.86522401  0.00101881  0.26091715  1
  O  O280  1  0.87381786  0.01066591  0.76033406  1
  O  O281  1  0.86721776  0.50600608  0.25589427  1
  O  O282  1  0.86942437  0.50347616  0.75630851  1
  O  O283  1  0.11676717  0.37884072  0.36485509  1
  O  O284  1  0.12143270  0.37191427  0.86814463  1
  O  O285  1  0.12222974  0.86700831  0.36820279  1
  O  O286  1  0.12862197  0.86285396  0.87311250  1
  O  O287  1  0.61198069  0.37869450  0.36324596  1
  O  O288  1  0.62227973  0.37218498  0.87033591  1
  O  O289  1  0.62164674  0.86337247  0.38096336  1
  O  O290  1  0.62119568  0.87534108  0.87856160  1
  O  O291  1  0.37865762  0.12796058  0.13429012  1
  O  O292  1  0.37777017  0.12191738  0.63686258  1
  O  O293  1  0.39124679  0.62770462  0.11922937  1
  O  O294  1  0.39402358  0.63333672  0.63408758  1
  O  O295  1  0.88897539  0.11859638  0.13179077  1
  O  O296  1  0.87832425  0.14123240  0.62813845  1
  O  O297  1  0.87862171  0.63057675  0.13183383  1
  O  O298  1  0.87867180  0.63054168  0.63730284  1
  O  O299  1  0.26159003  0.24417355  0.13351224  1
  O  O300  1  0.26234933  0.24930627  0.62994781  1
  O  O301  1  0.25516719  0.74849462  0.11609290  1
  O  O302  1  0.24506023  0.76215523  0.62060912  1
  O  O303  1  0.75554714  0.23973479  0.11796544  1
  O  O304  1  0.75313164  0.25116950  0.62546061  1
  O  O305  1  0.75465058  0.75671959  0.12842137  1
  O  O306  1  0.75807676  0.76476126  0.62789628  1
  O  O307  1  0.25561737  0.23888204  0.37828048  1
  O  O308  1  0.24046926  0.24208219  0.86768115  1
  O  O309  1  0.24512214  0.73723576  0.37336493  1
  O  O310  1  0.24270434  0.74064385  0.88055535  1
  O  O311  1  0.75411136  0.23837010  0.37095328  1
  O  O312  1  0.74963123  0.23625662  0.88212553  1
  O  O313  1  0.73753455  0.74583640  0.37572337  1
  O  O314  1  0.75392391  0.74505893  0.87087145  1
  O  O315  1  0.00217873  0.12070804  0.01124133  1
  O  O316  1  0.00042944  0.12399464  0.50654218  1
  O  O317  1  0.00369437  0.61971510  0.00664198  1
  O  O318  1  0.00611788  0.61917443  0.50589227  1
  O  O319  1  0.50795866  0.11693210  0.01467456  1
  O  O320  1  0.50142133  0.11562866  0.50707223  1
  O  O321  1  0.51273362  0.61751651  0.00470515  1
  O  O322  1  0.50045508  0.62058841  0.51313267  1
  O  O323  1  0.49632196  0.38497964  0.48794318  1
  O  O324  1  0.48642803  0.39266735  1.01024089  1
  O  O325  1  0.50314812  0.89561737  0.48711251  1
  O  O326  1  0.50023659  0.86383967  0.98290247  1
  O  O327  1  0.99241314  0.38217334  0.49489462  1
  O  O328  1  0.99301856  0.38185851  0.99570021  1
  O  O329  1  0.99846813  0.88528355  0.49329110  1
  O  O330  1  0.99043285  0.88408146  1.00940431  1
  O  O331  1  0.49306236  0.49722485  0.37590841  1
  O  O332  1  0.49076262  0.50497389  0.88266198  1
  O  O333  1  0.49581746  0.99809926  0.37905434  1
  O  O334  1  0.50200822  0.98079584  0.87560626  1
  O  O335  1  0.99145882  0.49676982  0.37987275  1
  O  O336  1  0.99120309  0.49529415  0.88112616  1
  O  O337  1  0.99101083  0.99808881  0.37819363  1
  O  O338  1  0.98968431  1.01152831  0.89622428  1
  O  O339  1  0.00103388  0.00678210  0.11881131  1
  O  O340  1  -0.02015042  0.01809981  0.60852179  1
  O  O341  1  0.00715839  0.50853364  0.11927921  1
  O  O342  1  0.00637763  0.50708715  0.62093681  1
  O  O343  1  0.51220990  0.00333347  0.13583318  1
  O  O344  1  0.50683710  0.00347058  0.62105949  1
  O  O345  1  0.50693981  0.50759373  0.11894386  1
  O  O346  1  0.49913547  0.50737474  0.61439755  1
  O  O347  1  0.23619808  0.37033097  0.24677498  1
  O  O348  1  0.24005243  0.38707758  0.75532066  1
  O  O349  1  0.24455246  0.88174930  0.25376320  1
  O  O350  1  0.24230639  0.87031988  0.73771771  1
  O  O351  1  0.74164871  0.39049327  0.25857252  1
  O  O352  1  0.73928119  0.38066725  0.75508375  1
  O  O353  1  0.75495553  0.88327491  0.23761209  1
  O  O354  1  0.76138500  0.89235744  0.74121723  1
  O  O355  1  0.25668286  0.11852434  0.26303538  1
  O  O356  1  0.25360241  0.12065465  0.75499125  1
  O  O357  1  0.24571963  0.62641464  0.26087083  1
  O  O358  1  0.25641487  0.62080317  0.75685775  1
  O  O359  1  0.75085152  0.11649388  0.26154947  1
  O  O360  1  0.75599676  0.11952355  0.75980954  1
  O  O361  1  0.75339233  0.61762500  0.25801505  1
  O  O362  1  0.75730339  0.61381861  0.76175155  1
  O  O363  1  0.36900516  0.11963433  0.37180596  1
  O  O364  1  0.35645400  0.12333926  0.86539556  1
  O  O365  1  0.36559452  0.62161539  0.37007571  1
  O  O366  1  0.36859264  0.61871737  0.86797026  1
  O  O367  1  0.86362136  0.11904722  0.37195091  1
  O  O368  1  0.86776215  0.12199838  0.87393735  1
  O  O369  1  0.86768587  0.62279885  0.37143488  1
  O  O370  1  0.88181256  0.61479725  0.86414850  1
  O  O371  1  0.12632664  0.38553244  0.13121147  1
  O  O372  1  0.11609626  0.38351787  0.63952471  1
  O  O373  1  0.12792038  0.87427182  0.14179166  1
  O  O374  1  0.13206435  0.87298755  0.62913789  1
  O  O375  1  0.61897816  0.38971207  0.13336798  1
  O  O376  1  0.63198624  0.37086002  0.62025362  1
  O  O377  1  0.63350062  0.88209997  0.11877022  1
  O  O378  1  0.63748045  0.89002660  0.62507124  1
  O  O379  1  0.11383084  0.26085410  0.25569309  1
  O  O380  1  0.11995299  0.26173942  0.75722818  1
  O  O381  1  0.12060766  0.75544575  0.26074955  1
  O  O382  1  0.11368249  0.74007164  0.76302363  1
  O  O383  1  0.62635605  0.26388648  0.24265277  1
  O  O384  1  0.62861198  0.26333371  0.75773934  1
  O  O385  1  0.61473266  0.75109185  0.26420209  1
  O  O386  1  0.64347586  0.73076880  0.75095422  1
  O  O387  1  0.37665463  0.23576830  0.24543331  1
  O  O388  1  0.37268602  0.23045787  0.74180757  1
  O  O389  1  0.39774596  0.75623554  0.25435028  1
  O  O390  1  0.37325065  0.73739307  0.75057090  1
  O  O391  1  0.88876502  0.25365096  0.25347566  1
  O  O392  1  0.87704221  0.24936357  0.74407507  1
  O  O393  1  0.87880771  0.74610408  0.24694308  1
  O  O394  1  0.87924771  0.73782742  0.74576041  1
  O  O395  1  0.39231565  0.51041754  0.47998801  1
  O  O396  1  0.38387951  0.50764031  0.98647679  1
  O  O397  1  0.38280470  1.00103766  0.49017679  1
  O  O398  1  0.36255405  1.00028171  0.98721426  1
  O  O399  1  0.87868505  0.49048264  0.49937881  1
  O  O400  1  0.87721476  0.49557940  0.99338404  1
  O  O401  1  0.88173678  1.00302276  0.48528717  1
  O  O402  1  0.87910478  0.99213594  0.99959331  1
  O  O403  1  0.11569883  0.00096879  0.00678012  1
  O  O404  1  0.10871239  0.00919976  0.49150629  1
  O  O405  1  0.11878654  0.50747794  0.00649080  1
  O  O406  1  0.11723484  0.50992615  0.50250996  1
  O  O407  1  0.63648327  0.01210038  0.01461233  1
  O  O408  1  0.61935327  0.00717620  0.51096823  1
  O  O409  1  0.62000045  0.50409220  0.00570869  1
  O  O410  1  0.60875183  0.49764437  0.49772071  1
  O  O411  1  0.37281073  0.35442415  0.13480843  1
  O  O412  1  0.38091650  0.35907383  0.63925803  1
  O  O413  1  0.37518416  0.86952023  0.11909054  1
  O  O414  1  0.36244943  0.87043554  0.62432890  1
  O  O415  1  0.87876656  0.38425413  0.11226733  1
  O  O416  1  0.87784825  0.36485720  0.61967856  1
  O  O417  1  0.86857423  0.87012714  0.11853367  1
  O  O418  1  0.87188264  0.86502750  0.62679948  1
  O  O419  1  0.14058094  0.12982152  0.37485812  1
  O  O420  1  0.13395575  0.13685478  0.87475082  1
  O  O421  1  0.13439340  0.63027466  0.37861017  1
  O  O422  1  0.13475147  0.62727352  0.88171043  1
  O  O423  1  0.63857955  0.12608008  0.37902613  1
  O  O424  1  0.63078650  0.12278119  0.88507101  1
  O  O425  1  0.63328675  0.63934094  0.37563433  1
  O  O426  1  0.63103036  0.62294365  0.87869539  1
