# generated using pymatgen
data_V85Zn86O256
_symmetry_space_group_name_H-M   'P 1'
_cell_length_a   16.96671207
_cell_length_b   16.97046597
_cell_length_c   16.96694476
_cell_angle_alpha   90.12416556
_cell_angle_beta   90.00907158
_cell_angle_gamma   90.06081492
_symmetry_Int_Tables_number   1
_chemical_formula_structural   V85Zn86O256
_chemical_formula_sum   'V85 Zn86 O256'
_cell_volume   4885.32918509
_cell_formula_units_Z   1
loop_
 _symmetry_equiv_pos_site_id
 _symmetry_equiv_pos_as_xyz
  1  'x, y, z'
loop_
 _atom_site_type_symbol
 _atom_site_label
 _atom_site_symmetry_multiplicity
 _atom_site_fract_x
 _atom_site_fract_y
 _atom_site_fract_z
 _atom_site_occupancy
  V  V0  1  0.62598090  0.87432143  0.25122084  1
  V  V1  1  0.17805223  -0.05927732  0.07589032  1
  V  V2  1  0.75023164  0.12426679  0.37430366  1
  V  V3  1  0.75408408  0.62536050  0.37509187  1
  V  V4  1  0.49789559  0.75178053  0.25197786  1
  V  V5  1  0.24990025  0.37749404  0.12397193  1
  V  V6  1  0.63028885  0.12963547  0.00089415  1
  V  V7  1  0.14575002  0.24358363  0.37673794  1
  V  V8  1  0.36576745  0.63077474  0.25202722  1
  V  V9  1  0.87711285  0.12822199  0.74359254  1
  V  V10  1  0.49761299  0.48826074  -0.00321258  1
  V  V11  1  0.75002044  0.49496324  0.25252786  1
  V  V12  1  0.87058787  0.86982441  -0.00888590  1
  V  V13  1  0.37996719  0.13022253  0.75053648  1
  V  V14  1  0.86584457  0.49905717  0.87910683  1
  V  V15  1  0.36338166  0.76411755  0.11716383  1
  V  V16  1  0.24646138  0.12356954  0.86519179  1
  V  V17  1  0.00027732  0.24973032  0.25998186  1
  V  V18  1  0.12050010  0.37519925  0.25712274  1
  V  V19  1  0.37311465  -0.00211623  0.87217757  1
  V  V20  1  0.62309694  0.49624469  0.13343251  1
  V  V21  1  0.12437625  0.74548440  0.37151506  1
  V  V22  1  0.49866005  0.62614056  0.12728819  1
  V  V23  1  0.61970831  0.50471064  0.62695792  1
  V  V24  1  0.74621505  0.87560742  0.62798644  1
  V  V25  1  0.62481003  0.12610477  0.50072361  1
  V  V26  1  0.74937162  0.37369490  0.62127647  1
  V  V27  1  0.92440042  0.31658154  0.56828108  1
  V  V28  1  0.74670455  -0.00092032  0.75166752  1
  V  V29  1  0.00100213  0.62803794  0.12469069  1
  V  V30  1  0.50150924  0.87874474  0.85575330  1
  V  V31  1  0.62317309  0.00023507  0.62888872  1
  V  V32  1  0.37408029  0.36864650  0.49837964  1
  V  V33  1  0.62637458  0.62976189  0.00069032  1
  V  V34  1  0.26767900  0.50680252  0.75517630  1
  V  V35  1  0.12266007  0.87148470  0.24723951  1
  V  V36  1  0.87315211  0.74723538  0.12322073  1
  V  V37  1  0.88108546  0.62620436  0.25430030  1
  V  V38  1  0.37041420  0.00076811  0.37689956  1
  V  V39  1  0.37473967  0.50682990  0.37725067  1
  V  V40  1  -0.00159840  0.37426164  0.87503945  1
  V  V41  1  0.75472559  0.12853375  0.87866106  1
  V  V42  1  0.36914060  0.12375035  0.25232320  1
  V  V43  1  0.24882137  0.25131627  -0.00133894  1
  V  V44  1  0.50741137  0.37961323  0.37317115  1
  V  V45  1  0.62413741  0.25432826  0.37265622  1
  V  V46  1  0.24956311  0.37174809  0.62632496  1
  V  V47  1  0.62058095  0.62726892  0.50504994  1
  V  V48  1  -0.00454236  -0.00467690  0.00166452  1
  V  V49  1  0.62404144  0.75407691  0.87698581  1
  V  V50  1  0.50503001  0.73382126  0.74015731  1
  V  V51  1  0.74892613  0.86678868  0.12017622  1
  V  V52  1  0.50065674  0.12379591  0.12526268  1
  V  V53  1  0.37224810  0.73957487  0.63127085  1
  V  V54  1  0.24778586  0.50331908  0.25555106  1
  V  V55  1  0.62565531  0.75088781  0.37549702  1
  V  V56  1  0.00118753  0.11089251  0.61402575  1
  V  V57  1  0.74505790  0.50154151  0.75050438  1
  V  V58  1  0.25048125  0.75094905  0.49614534  1
  V  V59  1  0.86759666  0.36816484  0.00211294  1
  V  V60  1  0.62021115  0.37061498  0.75194031  1
  V  V61  1  0.24262170  -0.00225828  0.25304431  1
  V  V62  1  -0.00336789  0.25818133  0.74809378  1
  V  V63  1  0.75420101  -0.00241885  0.25022263  1
  V  V64  1  0.74429062  0.36827812  0.12696359  1
  V  V65  1  0.12070850  0.25482509  0.87141037  1
  V  V66  1  0.50247202  0.13650822  0.62851784  1
  V  V67  1  0.14137776  0.62406085  -0.00579404  1
  V  V68  1  0.50423869  0.25508079  0.25200083  1
  V  V69  1  0.49722143  -0.00896126  -0.00107387  1
  V  V70  1  0.12933968  0.61976889  0.49575677  1
  V  V71  1  0.75327938  0.75142484  0.50222205  1
  V  V72  1  0.12727593  0.50288605  0.63508092  1
  V  V73  1  0.87692650  0.24720198  0.12594286  1
  V  V74  1  0.12392831  0.12490328  0.00575717  1
  V  V75  1  0.75015463  0.25319064  0.50304351  1
  V  V76  1  0.87905233  0.88447219  0.49947225  1
  V  V77  1  0.62564994  -0.00077347  0.12442366  1
  V  V78  1  0.00102784  0.49772313  0.00329742  1
  V  V79  1  0.49906612  0.00266627  0.50042239  1
  V  V80  1  0.88154570  0.48847235  0.38220606  1
  V  V81  1  0.62405540  0.25061712  0.87406248  1
  V  V82  1  0.12217790  0.88025214  0.75140204  1
  V  V83  1  0.37584679  0.25180833  0.12296600  1
  V  V84  1  0.00445453  0.88169093  0.37672485  1
  Zn  Zn85  1  0.00674031  0.12245740  0.12905797  1
  Zn  Zn86  1  0.49947102  0.87684769  0.37714946  1
  Zn  Zn87  1  0.87365152  0.62912455  0.75011475  1
  Zn  Zn88  1  0.13723399  0.74488930  0.86862347  1
  Zn  Zn89  1  0.14541481  0.11827934  0.49378404  1
  Zn  Zn90  1  0.87949753  0.75208443  0.63658921  1
  Zn  Zn91  1  0.74116700  0.62563706  0.87719858  1
  Zn  Zn92  1  0.37483375  0.87500987  0.50406521  1
  Zn  Zn93  1  0.87752176  0.12300260  0.24876593  1
  Zn  Zn94  1  0.00241145  0.49287487  0.49731000  1
  Zn  Zn95  1  0.29337445  0.63504723  0.86104282  1
  Zn  Zn96  1  0.49688804  0.50694679  0.50322021  1
  Zn  Zn97  1  0.12432698  0.49930501  0.12765711  1
  Zn  Zn98  1  0.25506283  0.87791439  0.63496194  1
  Zn  Zn99  1  0.00022668  0.62978682  0.62988876  1
  Zn  Zn100  1  0.88183060  0.00282818  0.37597783  1
  Zn  Zn101  1  0.37218311  0.24846400  0.62257078  1
  Zn  Zn102  1  -0.01095244  0.77640361  0.79339405  1
  Zn  Zn103  1  0.37328704  0.38087453  -0.01845215  1
  Zn  Zn104  1  0.88074880  -0.00421761  0.87165023  1
  Zn  Zn105  1  0.45701341  0.30853155  0.81331874  1
  Zn  Zn106  1  0.13914024  -0.00209379  0.62162007  1
  Zn  Zn107  1  0.18967312  0.18850241  0.18960711  1
  Zn  Zn108  1  0.18318553  0.18723974  0.68644893  1
  Zn  Zn109  1  0.18320966  0.69062983  0.18248204  1
  Zn  Zn110  1  0.18383320  0.69167657  0.69414208  1
  Zn  Zn111  1  0.68845645  0.18646208  0.18883288  1
  Zn  Zn112  1  0.68952367  0.18945491  0.68913206  1
  Zn  Zn113  1  0.68871858  0.68476216  0.19005786  1
  Zn  Zn114  1  0.68688676  0.68814221  0.69145125  1
  Zn  Zn115  1  0.31923660  0.32197250  0.30649354  1
  Zn  Zn116  1  0.29586266  0.31389971  0.80671042  1
  Zn  Zn117  1  0.30701307  0.81724154  0.31289933  1
  Zn  Zn118  1  0.31234664  0.81172386  0.81316998  1
  Zn  Zn119  1  0.81109738  0.31218245  0.31052820  1
  Zn  Zn120  1  0.80976915  0.31130794  0.80977620  1
  Zn  Zn121  1  0.81856652  0.81079235  0.31237005  1
  Zn  Zn122  1  0.80343035  0.80905764  0.81021770  1
  Zn  Zn123  1  0.19104624  0.43484862  0.43769515  1
  Zn  Zn124  1  0.18880342  0.44030634  0.93387255  1
  Zn  Zn125  1  0.18697241  0.93796721  0.44232095  1
  Zn  Zn126  1  0.19143819  0.93100263  0.90837864  1
  Zn  Zn127  1  0.68935261  0.44084827  0.43983382  1
  Zn  Zn128  1  0.68066382  0.43652595  0.94201566  1
  Zn  Zn129  1  0.68773230  0.93812758  0.43896478  1
  Zn  Zn130  1  0.68568157  0.93927892  0.93608661  1
  Zn  Zn131  1  0.31457415  0.06517092  0.05753091  1
  Zn  Zn132  1  0.31000839  0.05931356  0.56806476  1
  Zn  Zn133  1  0.31828916  0.56162481  0.06758838  1
  Zn  Zn134  1  0.30929120  0.56481386  0.56209828  1
  Zn  Zn135  1  0.81359614  0.05855394  0.06237813  1
  Zn  Zn136  1  0.81336978  0.06498004  0.56423296  1
  Zn  Zn137  1  0.80898526  0.56001507  0.06371538  1
  Zn  Zn138  1  0.81355726  0.56490194  0.56452793  1
  Zn  Zn139  1  0.43525331  0.43815755  0.18850641  1
  Zn  Zn140  1  0.43765885  0.44041794  0.68291718  1
  Zn  Zn141  1  0.43790992  0.93820961  0.19075788  1
  Zn  Zn142  1  0.42757783  0.94137116  0.68430188  1
  Zn  Zn143  1  0.93667191  0.43665753  0.19010304  1
  Zn  Zn144  1  0.95305205  0.46796750  0.70582705  1
  Zn  Zn145  1  0.94237837  0.93405955  0.18343506  1
  Zn  Zn146  1  0.93430983  0.93727845  0.68754210  1
  Zn  Zn147  1  0.06433458  0.06325486  0.31267725  1
  Zn  Zn148  1  0.05927970  0.06009944  0.81167244  1
  Zn  Zn149  1  0.05906172  0.56386211  0.31628315  1
  Zn  Zn150  1  0.06218292  0.56177454  0.81484527  1
  Zn  Zn151  1  0.56103814  0.06462976  0.31318959  1
  Zn  Zn152  1  0.56290236  0.06575098  0.81251365  1
  Zn  Zn153  1  0.56224023  0.56622624  0.31377620  1
  Zn  Zn154  1  0.50206203  0.58147178  0.83974173  1
  Zn  Zn155  1  0.32134847  0.18532042  0.43512271  1
  Zn  Zn156  1  0.43760716  0.18282253  0.94232937  1
  Zn  Zn157  1  0.43596773  0.68961051  0.43920137  1
  Zn  Zn158  1  0.43835273  0.69974040  0.94285340  1
  Zn  Zn159  1  0.93834843  0.18657811  0.43265568  1
  Zn  Zn160  1  0.93784118  0.18424089  0.93820175  1
  Zn  Zn161  1  0.96195420  0.71040259  0.47483772  1
  Zn  Zn162  1  0.93029283  0.67967790  0.94135292  1
  Zn  Zn163  1  0.06117665  0.31118952  0.06563642  1
  Zn  Zn164  1  0.08507104  0.31132870  0.55882868  1
  Zn  Zn165  1  0.04094612  0.78850206  0.01327874  1
  Zn  Zn166  1  0.06525629  0.81687640  0.56803297  1
  Zn  Zn167  1  0.56689375  0.30967007  0.06394539  1
  Zn  Zn168  1  0.56264424  0.31730280  0.55798656  1
  Zn  Zn169  1  0.55685777  0.81217052  0.06372293  1
  Zn  Zn170  1  0.56264134  0.81628447  0.56504190  1
  O  O171  1  0.12835764  0.13240103  0.10989026  1
  O  O172  1  0.10756117  0.12895265  0.62412450  1
  O  O173  1  0.11662879  0.61932268  0.11686511  1
  O  O174  1  0.12614970  0.61314946  0.61915247  1
  O  O175  1  0.62261498  0.12005380  0.11881529  1
  O  O176  1  0.62087124  0.12045979  0.62203040  1
  O  O177  1  0.61746262  0.61927597  0.12385362  1
  O  O178  1  0.63509678  0.61657476  0.61634805  1
  O  O179  1  0.38345827  0.38707341  0.37945389  1
  O  O180  1  0.37571190  0.35467117  0.87373493  1
  O  O181  1  0.37848384  0.88873344  0.37533858  1
  O  O182  1  0.38545242  0.88739854  0.86754822  1
  O  O183  1  0.86828891  0.39045298  0.37244176  1
  O  O184  1  0.87302636  0.37994554  0.88573382  1
  O  O185  1  0.88500639  0.87623425  0.37987347  1
  O  O186  1  0.86326036  0.87290672  0.88840000  1
  O  O187  1  0.25865547  -0.00344218  0.36458140  1
  O  O188  1  0.26065855  0.01219689  0.87772891  1
  O  O189  1  0.25994813  0.49473706  0.36270884  1
  O  O190  1  0.24993205  0.49777423  0.85650482  1
  O  O191  1  0.74850320  0.00774622  0.36615755  1
  O  O192  1  0.75072351  0.01008529  0.86701557  1
  O  O193  1  0.75590735  0.50532340  0.36836319  1
  O  O194  1  0.75028983  0.49799496  0.87094625  1
  O  O195  1  0.25047111  0.49282026  0.13733929  1
  O  O196  1  0.24501054  0.49620553  0.63174300  1
  O  O197  1  0.24691774  0.99992718  0.12861060  1
  O  O198  1  0.25501631  0.99249446  0.63440651  1
  O  O199  1  0.74337758  0.49157953  0.13361595  1
  O  O200  1  0.74392043  0.49267420  0.63191539  1
  O  O201  1  0.74481930  0.99212019  0.13333608  1
  O  O202  1  0.74458303  0.99665585  0.63200640  1
  O  O203  1  0.01464146  0.36851133  0.24317892  1
  O  O204  1  -0.00800566  0.36959671  0.76117443  1
  O  O205  1  0.01396200  0.87912208  0.25582100  1
  O  O206  1  0.01008836  0.87542896  0.74188887  1
  O  O207  1  0.49259695  0.36574048  0.25844394  1
  O  O208  1  0.51535306  0.37584614  0.74178589  1
  O  O209  1  0.50964783  0.87011017  0.25255110  1
  O  O210  1  0.50296404  0.88092633  0.75516346  1
  O  O211  1  0.49019453  0.13082708  0.24396191  1
  O  O212  1  0.49415469  0.12439762  0.74114364  1
  O  O213  1  0.49116000  0.62995488  0.24328986  1
  O  O214  1  0.50728074  0.63534948  0.73992035  1
  O  O215  1  0.99728604  0.13285517  0.24691172  1
  O  O216  1  0.99300647  0.13257166  0.73925126  1
  O  O217  1  0.98856498  0.61796879  0.24028009  1
  O  O218  1  0.98370468  0.58651185  0.73981473  1
  O  O219  1  0.37060922  0.24839007  0.01309207  1
  O  O220  1  0.37978157  0.26617302  0.49719240  1
  O  O221  1  0.38255030  0.75754569  0.01828603  1
  O  O222  1  0.36875795  0.75192705  0.50681273  1
  O  O223  1  0.88134741  0.26113735  0.00801615  1
  O  O224  1  0.87129426  0.25527225  0.50291812  1
  O  O225  1  0.86968283  0.75441243  0.01322178  1
  O  O226  1  0.85869612  0.76276012  0.49312635  1
  O  O227  1  0.12854064  0.24648824  0.47894735  1
  O  O228  1  0.12677732  0.24276778  0.99291287  1
  O  O229  1  0.13338036  0.74206205  0.49357343  1
  O  O230  1  0.13499806  0.72591540  1.00492548  1
  O  O231  1  0.62983602  0.24503161  0.49172802  1
  O  O232  1  0.62577992  0.23632764  0.99674978  1
  O  O233  1  0.63461630  0.74733013  0.49714330  1
  O  O234  1  0.61147592  0.74063359  0.99232760  1
  O  O235  1  0.49400793  0.24593684  0.13146612  1
  O  O236  1  0.50181296  0.23870411  0.61787118  1
  O  O237  1  0.49442021  0.74250121  0.13502146  1
  O  O238  1  0.49626233  0.75463112  0.63570492  1
  O  O239  1  0.99227631  0.24774334  0.13525666  1
  O  O240  1  0.99472042  0.26097508  0.62672014  1
  O  O241  1  0.99068558  0.73330277  0.11420945  1
  O  O242  1  0.98748957  0.74035009  0.59238932  1
  O  O243  1  0.00536982  0.24945105  0.36260406  1
  O  O244  1  0.00292983  0.25376438  0.86835242  1
  O  O245  1  0.01609748  0.76259755  0.38264126  1
  O  O246  1  0.01020855  0.74742203  0.90180541  1
  O  O247  1  0.50782156  0.26223592  0.36564151  1
  O  O248  1  0.51818576  0.23862930  0.88058436  1
  O  O249  1  0.50687993  0.75246591  0.36929980  1
  O  O250  1  0.50296002  0.76116956  0.85906692  1
  O  O251  1  0.25703451  0.13767525  0.51050835  1
  O  O252  1  0.24323632  0.13253106  0.98980047  1
  O  O253  1  0.23987537  0.63619072  0.50261714  1
  O  O254  1  0.24090477  0.60700284  0.99818984  1
  O  O255  1  0.74594110  0.13096210  0.49315794  1
  O  O256  1  0.74265640  0.11738662  0.99083259  1
  O  O257  1  0.74351286  0.63472460  0.49470657  1
  O  O258  1  0.73062451  0.61654781  1.00004336  1
  O  O259  1  0.25188316  0.37096392  0.00770852  1
  O  O260  1  0.26178622  0.38252413  0.51333341  1
  O  O261  1  0.23183413  0.88978995  0.01071461  1
  O  O262  1  0.25208526  0.86001770  0.50206930  1
  O  O263  1  0.75735110  0.37948277  0.01321024  1
  O  O264  1  0.74595476  0.37177505  0.51305319  1
  O  O265  1  0.75446226  0.88336923  0.01358192  1
  O  O266  1  0.75354653  0.86920501  0.50599314  1
  O  O267  1  0.13119821  0.49314665  0.25259803  1
  O  O268  1  0.13159691  0.50072469  0.73671100  1
  O  O269  1  0.13585355  0.99584374  0.25014696  1
  O  O270  1  0.11935082  0.98705632  0.74768374  1
  O  O271  1  0.63377974  0.50765861  0.24104039  1
  O  O272  1  0.63613944  0.48969515  0.74349733  1
  O  O273  1  0.63361527  0.99619208  0.24437489  1
  O  O274  1  0.63886630  1.00940069  0.74425292  1
  O  O275  1  0.36789276  0.00658134  0.25501750  1
  O  O276  1  0.38200720  0.01572566  0.76350507  1
  O  O277  1  0.36784594  0.50910584  0.25571998  1
  O  O278  1  0.36749831  0.50268555  0.74607838  1
  O  O279  1  0.86297282  -0.00089854  0.24927316  1
  O  O280  1  0.86580290  0.00893662  0.75201685  1
  O  O281  1  0.86851095  0.50515180  0.25718243  1
  O  O282  1  0.85565965  0.48899194  0.76491637  1
  O  O283  1  0.13378079  0.36125560  0.36622607  1
  O  O284  1  0.11796005  0.36127560  0.88237750  1
  O  O285  1  0.12027765  0.87039150  0.36721876  1
  O  O286  1  0.11722208  0.86721905  0.86038617  1
  O  O287  1  0.61419416  0.37569657  0.37855407  1
  O  O288  1  0.63356678  0.36212882  0.86688226  1
  O  O289  1  0.62584572  0.86804453  0.36885633  1
  O  O290  1  0.61312781  0.86736592  0.88240992  1
  O  O291  1  0.38071414  0.13219799  0.12988720  1
  O  O292  1  0.38624954  0.12825065  0.63482632  1
  O  O293  1  0.38265921  0.63269497  0.13473674  1
  O  O294  1  0.37998687  0.64113700  0.61610940  1
  O  O295  1  0.86888235  0.14012528  0.12491256  1
  O  O296  1  0.88526928  0.12413466  0.63461927  1
  O  O297  1  0.87807213  0.62814982  0.12960806  1
  O  O298  1  0.87554604  0.63074310  0.62950656  1
  O  O299  1  0.25724350  0.25697019  0.12082345  1
  O  O300  1  0.24907514  0.26799942  0.63332766  1
  O  O301  1  0.26528579  0.74621748  0.12782281  1
  O  O302  1  0.26223076  0.74879733  0.62183608  1
  O  O303  1  0.75674392  0.26224079  0.13522128  1
  O  O304  1  0.74728209  0.25924963  0.61652336  1
  O  O305  1  0.75413799  0.75946167  0.13028659  1
  O  O306  1  0.75008974  0.75980107  0.61936769  1
  O  O307  1  0.24940416  0.25011700  0.36567043  1
  O  O308  1  0.23684448  0.24372161  0.87920275  1
  O  O309  1  0.23774789  0.75452787  0.38277464  1
  O  O310  1  0.25221411  0.73853229  0.87136641  1
  O  O311  1  0.74442701  0.24468757  0.37886694  1
  O  O312  1  0.74275335  0.23554210  0.87149122  1
  O  O313  1  0.74468833  0.74603178  0.38039268  1
  O  O314  1  0.72849222  0.74594154  0.87074796  1
  O  O315  1  0.00960499  0.12062396  0.00362088  1
  O  O316  1  -0.00521569  0.13110333  0.51483811  1
  O  O317  1  0.00072332  0.60864530  0.00815229  1
  O  O318  1  0.01869072  0.61362134  0.50009509  1
  O  O319  1  0.50931332  0.11593747  0.00787282  1
  O  O320  1  0.50948645  0.11251123  0.51100582  1
  O  O321  1  0.50709653  0.61364848  0.01732492  1
  O  O322  1  0.51718565  0.62663061  0.49359967  1
  O  O323  1  0.49372499  0.38276938  0.49017659  1
  O  O324  1  0.49793157  0.38579916  1.01467701  1
  O  O325  1  0.50182090  0.89006693  0.49905394  1
  O  O326  1  0.50261747  0.88910884  0.99605421  1
  O  O327  1  0.99023135  0.36778107  0.51032026  1
  O  O328  1  0.99184128  0.38216958  0.99898328  1
  O  O329  1  0.98921968  0.87426657  0.49131116  1
  O  O330  1  0.98235777  0.88348673  1.00848972  1
  O  O331  1  0.49333014  0.49512992  0.37355493  1
  O  O332  1  0.51450829  0.48592460  0.89837597  1
  O  O333  1  0.49413449  1.00186698  0.38355057  1
  O  O334  1  0.49745283  0.99597070  0.88086750  1
  O  O335  1  0.98622897  0.49596746  0.37584197  1
  O  O336  1  0.98854665  0.49181178  0.88550427  1
  O  O337  1  0.99951952  0.98792336  0.37057414  1
  O  O338  1  0.99690746  1.00897290  0.89402479  1
  O  O339  1  -0.00963053  0.00850783  0.11054948  1
  O  O340  1  -0.00091197  0.01116308  0.62251675  1
  O  O341  1  -0.00120833  0.50575241  0.11923936  1
  O  O342  1  0.02152124  0.49013746  0.61584829  1
  O  O343  1  0.50504240  0.00406560  0.11949932  1
  O  O344  1  0.50535375  0.00680762  0.61996010  1
  O  O345  1  0.50767752  0.50686990  0.12947118  1
  O  O346  1  0.51609838  0.49807875  0.62158645  1
  O  O347  1  0.24289764  0.38286977  0.24300125  1
  O  O348  1  0.25304130  0.38973437  0.73295603  1
  O  O349  1  0.23636716  0.88519169  0.24961790  1
  O  O350  1  0.23036590  0.86665124  0.75223675  1
  O  O351  1  0.75268669  0.38783507  0.24354343  1
  O  O352  1  0.74165072  0.37630390  0.73886674  1
  O  O353  1  0.74604558  0.88077050  0.24377372  1
  O  O354  1  0.75364963  0.88676516  0.74044654  1
  O  O355  1  0.26259609  0.11692203  0.24212863  1
  O  O356  1  0.25598282  0.13324054  0.76072253  1
  O  O357  1  0.25895820  0.61794836  0.24470845  1
  O  O358  1  0.25092037  0.61081647  0.74846642  1
  O  O359  1  0.75092697  0.11616473  0.25760094  1
  O  O360  1  0.75988915  0.12090332  0.75419581  1
  O  O361  1  0.75956218  0.61365816  0.25239878  1
  O  O362  1  0.74963567  0.61399055  0.75622321  1
  O  O363  1  0.37743569  0.11384433  0.36345224  1
  O  O364  1  0.36703180  0.12377682  0.86955200  1
  O  O365  1  0.38050653  0.61510145  0.36660203  1
  O  O366  1  0.40144948  0.61710167  0.88067224  1
  O  O367  1  0.86278724  0.12318873  0.37223043  1
  O  O368  1  0.86880060  0.12460193  0.86583774  1
  O  O369  1  0.86938632  0.61744757  0.36419204  1
  O  O370  1  0.86556893  0.60793934  0.87996963  1
  O  O371  1  0.13666885  0.37446820  0.13254876  1
  O  O372  1  0.14229927  0.38736588  0.61872548  1
  O  O373  1  0.12126942  0.87557782  0.12962673  1
  O  O374  1  0.13086127  0.87501508  0.63588559  1
  O  O375  1  0.63371399  0.38224208  0.12556912  1
  O  O376  1  0.63239251  0.38104891  0.62991370  1
  O  O377  1  0.63127373  0.87807297  0.12970857  1
  O  O378  1  0.63860639  0.88523249  0.61950837  1
  O  O379  1  0.12202244  0.25559483  0.25809306  1
  O  O380  1  0.10872113  0.24594325  0.75889926  1
  O  O381  1  0.12961865  0.75880681  0.25780710  1
  O  O382  1  0.10800503  0.75403449  0.75179775  1
  O  O383  1  0.61142334  0.24389685  0.25401571  1
  O  O384  1  0.62908884  0.25741704  0.76010400  1
  O  O385  1  0.61922033  0.75329936  0.25563112  1
  O  O386  1  0.61133443  0.74998687  0.75617527  1
  O  O387  1  0.38195695  0.24328726  0.24162560  1
  O  O388  1  0.37765217  0.24063713  0.74862129  1
  O  O389  1  0.37865418  0.74365515  0.25113264  1
  O  O390  1  0.38919514  0.75149741  0.73775954  1
  O  O391  1  0.88382099  0.25063343  0.24428767  1
  O  O392  1  0.88594210  0.24230342  0.75373641  1
  O  O393  1  0.87105250  0.73828584  0.23721231  1
  O  O394  1  0.88254350  0.74758925  0.75641226  1
  O  O395  1  0.37691225  0.49806488  0.49128569  1
  O  O396  1  0.39296504  0.49494162  1.01137139  1
  O  O397  1  0.38366868  1.00058187  0.49163954  1
  O  O398  1  0.38624506  1.01031965  0.98572011  1
  O  O399  1  0.87459174  0.50410183  0.48489219  1
  O  O400  1  0.87814357  0.48867289  0.99827349  1
  O  O401  1  0.86416852  0.98788206  0.49498659  1
  O  O402  1  0.87824260  0.98972924  0.99635277  1
  O  O403  1  0.12036039  0.00256598  0.00696726  1
  O  O404  1  0.12927527  0.00727107  0.50610509  1
  O  O405  1  0.11563421  0.50216543  0.00393637  1
  O  O406  1  0.13093040  0.50566321  0.50508419  1
  O  O407  1  0.61860907  0.00949044  0.00582822  1
  O  O408  1  0.62122573  0.00753464  0.50642345  1
  O  O409  1  0.61593842  0.50364924  0.01642825  1
  O  O410  1  0.62765570  0.51126789  0.50883130  1
  O  O411  1  0.36314431  0.36678666  0.12936064  1
  O  O412  1  0.36916136  0.37356824  0.61616858  1
  O  O413  1  0.37541137  0.86244367  0.13601826  1
  O  O414  1  0.37517276  0.86133711  0.62253535  1
  O  O415  1  0.86867999  0.36571022  0.12141816  1
  O  O416  1  0.87000617  0.38047856  0.62599676  1
  O  O417  1  0.86681304  0.86448309  0.12177332  1
  O  O418  1  0.86351829  0.87504608  0.61629694  1
  O  O419  1  0.12872335  0.14066488  0.37016135  1
  O  O420  1  0.12991703  0.13101786  0.88178356  1
  O  O421  1  0.12310564  0.63347425  0.38032317  1
  O  O422  1  0.12279657  0.61819968  0.89142300  1
  O  O423  1  0.63459026  0.13043897  0.37869294  1
  O  O424  1  0.63416109  0.12825422  0.88261199  1
  O  O425  1  0.63411176  0.63168785  0.38051928  1
  O  O426  1  0.61106089  0.63386305  0.88727198  1
