# generated using pymatgen
data_V85Zn86O256
_symmetry_space_group_name_H-M   'P 1'
_cell_length_a   16.93314556
_cell_length_b   16.92018971
_cell_length_c   16.91401499
_cell_angle_alpha   90.07943416
_cell_angle_beta   90.01053990
_cell_angle_gamma   90.04742802
_symmetry_Int_Tables_number   1
_chemical_formula_structural   V85Zn86O256
_chemical_formula_sum   'V85 Zn86 O256'
_cell_volume   4846.06245572
_cell_formula_units_Z   1
loop_
 _symmetry_equiv_pos_site_id
 _symmetry_equiv_pos_as_xyz
  1  'x, y, z'
loop_
 _atom_site_type_symbol
 _atom_site_label
 _atom_site_symmetry_multiplicity
 _atom_site_fract_x
 _atom_site_fract_y
 _atom_site_fract_z
 _atom_site_occupancy
  V  V0  1  0.37263616  0.61907352  0.74859295  1
  V  V1  1  0.00345475  0.00100518  -0.00679610  1
  V  V2  1  0.00117038  0.25280305  0.25737120  1
  V  V3  1  -0.00008388  0.73799783  0.74544341  1
  V  V4  1  0.11978225  0.12361775  0.50179075  1
  V  V5  1  0.63034146  0.50779496  0.13101419  1
  V  V6  1  0.37952868  0.38258937  0.50097873  1
  V  V7  1  0.12068719  0.87481738  0.25518395  1
  V  V8  1  -0.00114150  0.75077417  0.25461297  1
  V  V9  1  0.12519819  0.00496356  0.12101935  1
  V  V10  1  0.24724362  0.00284315  0.75281730  1
  V  V11  1  0.37995698  0.50172455  0.37346692  1
  V  V12  1  0.63983362  0.88298907  0.74875646  1
  V  V13  1  0.62316200  0.25103901  0.37582988  1
  V  V14  1  0.37313935  0.62466474  0.24227037  1
  V  V15  1  0.00124670  0.62424385  0.12100623  1
  V  V16  1  0.86545024  0.62765260  0.73733381  1
  V  V17  1  0.24707186  0.23803211  -0.00249593  1
  V  V18  1  0.24781396  0.61791502  0.87073990  1
  V  V19  1  0.49929761  0.00214500  0.00002878  1
  V  V20  1  0.50299776  0.12732566  0.12706346  1
  V  V21  1  0.24831124  0.25176497  0.50344473  1
  V  V22  1  0.75125640  0.87304230  0.12405417  1
  V  V23  1  0.00228701  0.12733973  0.12026326  1
  V  V24  1  -0.00286469  0.12022461  0.62616192  1
  V  V25  1  0.74896257  -0.00368525  0.25289352  1
  V  V26  1  0.37408214  0.37490602  0.00165819  1
  V  V27  1  0.86555623  0.49551214  0.86454443  1
  V  V28  1  0.50051607  0.12433944  0.62398476  1
  V  V29  1  0.24929679  0.87261770  0.12422697  1
  V  V30  1  0.50450271  0.86544872  0.36989571  1
  V  V31  1  0.63046175  0.50052598  0.62072274  1
  V  V32  1  0.87773561  0.74852261  0.12204678  1
  V  V33  1  0.75264776  0.24404465  0.00002880  1
  V  V34  1  0.50107684  0.25337220  0.75083535  1
  V  V35  1  0.37330011  0.25138415  0.12655832  1
  V  V36  1  0.86173720  0.12010471  0.75310327  1
  V  V37  1  0.89380647  0.86182663  0.49585833  1
  V  V38  1  0.37350687  -0.00815340  0.38213155  1
  V  V39  1  0.24760766  0.38700605  0.63126562  1
  V  V40  1  0.12046374  0.86913845  0.75670431  1
  V  V41  1  0.11994063  -0.00350801  0.62173130  1
  V  V42  1  0.74909187  0.62582310  0.37508270  1
  V  V43  1  0.12585914  0.38262941  0.25755351  1
  V  V44  1  0.62604538  -0.00037077  0.12638344  1
  V  V45  1  0.37413477  0.12522959  0.25269247  1
  V  V46  1  0.85767881  0.00081030  0.87288040  1
  V  V47  1  0.24814218  0.74503283  0.49936386  1
  V  V48  1  0.49925696  -0.00653705  0.50167600  1
  V  V49  1  0.63037491  0.37938131  0.25206131  1
  V  V50  1  0.37207958  0.00293451  0.87393088  1
  V  V51  1  0.24935264  0.12485323  0.37895720  1
  V  V52  1  0.63088768  0.24669137  0.87493535  1
  V  V53  1  0.87428542  0.24940510  0.62379969  1
  V  V54  1  0.12228552  0.63019847  -0.00708338  1
  V  V55  1  0.37655798  0.75309497  0.61926504  1
  V  V56  1  0.24742584  0.38072112  0.12633901  1
  V  V57  1  0.88781316  -0.00498888  0.38277387  1
  V  V58  1  0.87360958  0.60980231  0.24952006  1
  V  V59  1  -0.00083781  0.50574863  0.49106716  1
  V  V60  1  0.25186579  0.87477562  0.61996989  1
  V  V61  1  0.37384341  0.87448225  -0.00152637  1
  V  V62  1  0.62827960  0.74788432  0.87338428  1
  V  V63  1  0.49931765  0.75162110  0.74694303  1
  V  V64  1  0.37122074  0.12742560  0.75608717  1
  V  V65  1  0.12682464  0.23448110  0.87812042  1
  V  V66  1  0.49911568  0.87680866  0.86998477  1
  V  V67  1  0.24522389  0.75250801  -0.01022533  1
  V  V68  1  0.50060342  0.50735883  0.00716441  1
  V  V69  1  0.62910266  0.63956992  0.49563560  1
  V  V70  1  0.12250170  0.74849200  0.38015732  1
  V  V71  1  0.74831396  0.12244100  0.37896470  1
  V  V72  1  0.87616997  0.12420812  0.24949398  1
  V  V73  1  0.24497521  0.61640084  0.37152485  1
  V  V74  1  0.87863958  0.37421458  -0.00323908  1
  V  V75  1  0.24921741  -0.00107675  0.25193989  1
  V  V76  1  0.37344659  0.25276261  0.62561084  1
  V  V77  1  0.50038194  0.61643437  0.61677681  1
  V  V78  1  0.75625310  0.87149108  0.60505858  1
  V  V79  1  0.00023759  0.25329617  0.75532849  1
  V  V80  1  0.75363707  0.37991296  0.62736905  1
  V  V81  1  0.11454397  0.51210320  0.62527760  1
  V  V82  1  0.12635571  0.38071712  0.75920058  1
  V  V83  1  0.00119349  0.49616577  -0.01005022  1
  V  V84  1  0.50163994  0.37727614  0.87675482  1
  Zn  Zn85  1  0.87753613  0.87402829  -0.00245765  1
  Zn  Zn86  1  0.50298163  0.37823365  0.37903259  1
  Zn  Zn87  1  0.12665654  0.50155239  0.12386995  1
  Zn  Zn88  1  0.87519933  0.25187876  0.12525316  1
  Zn  Zn89  1  0.63381318  0.00431573  0.62754462  1
  Zn  Zn90  1  0.62447308  0.12498573  0.50090222  1
  Zn  Zn91  1  0.53258272  0.70193862  0.19837596  1
  Zn  Zn92  1  0.75346361  0.37721243  0.12811165  1
  Zn  Zn93  1  0.63236593  0.12268868  -0.00395221  1
  Zn  Zn94  1  0.62310613  0.62920123  0.00362419  1
  Zn  Zn95  1  0.88455747  0.37251096  0.49282613  1
  Zn  Zn96  1  0.63228803  0.38554622  0.75323811  1
  Zn  Zn97  1  0.74628966  0.62033872  0.87293394  1
  Zn  Zn98  1  0.75310341  0.74614097  -0.00367503  1
  Zn  Zn99  1  0.75132839  0.25292985  0.49878246  1
  Zn  Zn100  1  0.49767044  0.25524615  0.25245733  1
  Zn  Zn101  1  0.87109582  0.48765555  0.37016702  1
  Zn  Zn102  1  -0.00044900  0.86859912  0.87570602  1
  Zn  Zn103  1  0.12128805  0.25592127  0.38048509  1
  Zn  Zn104  1  0.37342079  0.49773027  0.87198857  1
  Zn  Zn105  1  0.37644569  0.74770438  0.12429168  1
  Zn  Zn106  1  0.62481059  0.85729250  0.25299072  1
  Zn  Zn107  1  0.18669333  0.19134974  0.18897012  1
  Zn  Zn108  1  0.18652262  0.18960905  0.68883778  1
  Zn  Zn109  1  0.18981472  0.68630317  0.18593589  1
  Zn  Zn110  1  0.18669852  0.69007782  0.69178560  1
  Zn  Zn111  1  0.68909442  0.19058627  0.18947368  1
  Zn  Zn112  1  0.68640964  0.19312074  0.68813044  1
  Zn  Zn113  1  0.70067498  0.68440760  0.19234106  1
  Zn  Zn114  1  0.68938132  0.69176476  0.68444692  1
  Zn  Zn115  1  0.30829917  0.31435021  0.31449868  1
  Zn  Zn116  1  0.30922055  0.31347059  0.81516511  1
  Zn  Zn117  1  0.31429276  0.80860688  0.31202228  1
  Zn  Zn118  1  0.31040696  0.81055739  0.80887102  1
  Zn  Zn119  1  0.81186703  0.31196731  0.31332132  1
  Zn  Zn120  1  0.81235254  0.31318965  0.81160101  1
  Zn  Zn121  1  0.81401185  0.81013144  0.31529523  1
  Zn  Zn122  1  0.81745607  0.80998054  0.81056513  1
  Zn  Zn123  1  0.18579321  0.43990504  0.44434325  1
  Zn  Zn124  1  0.18784490  0.43549939  0.93866414  1
  Zn  Zn125  1  0.18422128  0.93437227  0.44011156  1
  Zn  Zn126  1  0.18615160  0.94266121  0.93604824  1
  Zn  Zn127  1  0.69249157  0.44189285  0.44340006  1
  Zn  Zn128  1  0.68828764  0.43419943  0.94380466  1
  Zn  Zn129  1  0.68348372  0.93720580  0.43882120  1
  Zn  Zn130  1  0.68576323  0.93296161  0.94093135  1
  Zn  Zn131  1  0.31358509  0.06196389  0.06495226  1
  Zn  Zn132  1  0.31281284  0.06239467  0.56513638  1
  Zn  Zn133  1  0.30992773  0.56067998  0.05710177  1
  Zn  Zn134  1  0.30845640  0.56453593  0.56025250  1
  Zn  Zn135  1  0.81628838  0.06211109  0.06095045  1
  Zn  Zn136  1  0.81217977  0.05538221  0.56298873  1
  Zn  Zn137  1  0.80952114  0.56343857  0.05636206  1
  Zn  Zn138  1  0.81054822  0.56086249  0.55540443  1
  Zn  Zn139  1  0.44043559  0.44203011  0.19308571  1
  Zn  Zn140  1  0.44058443  0.43899674  0.68720994  1
  Zn  Zn141  1  0.43621368  0.93621603  0.18950053  1
  Zn  Zn142  1  0.43687287  0.93766065  0.68649686  1
  Zn  Zn143  1  0.94566985  0.43323258  0.17945633  1
  Zn  Zn144  1  0.94106861  0.43627270  0.68565206  1
  Zn  Zn145  1  0.93781645  0.93758586  0.18821698  1
  Zn  Zn146  1  0.93349187  0.93286113  0.68679243  1
  Zn  Zn147  1  0.06388695  0.06620160  0.31064230  1
  Zn  Zn148  1  0.05883503  0.06277950  0.80795699  1
  Zn  Zn149  1  0.06103769  0.56410247  0.31222388  1
  Zn  Zn150  1  0.05960939  0.56200259  0.81200043  1
  Zn  Zn151  1  0.56224896  0.05934675  0.31329815  1
  Zn  Zn152  1  0.56249078  0.06444458  0.81175194  1
  Zn  Zn153  1  0.56154227  0.56202371  0.31788916  1
  Zn  Zn154  1  0.56088330  0.56274093  0.80794745  1
  Zn  Zn155  1  0.43709877  0.18781508  0.43918771  1
  Zn  Zn156  1  0.43901438  0.19002100  0.93935447  1
  Zn  Zn157  1  0.43486109  0.68419786  0.43868442  1
  Zn  Zn158  1  0.43691284  0.68993611  0.93768133  1
  Zn  Zn159  1  0.93717413  0.18371932  0.43819309  1
  Zn  Zn160  1  0.93848748  0.18503388  0.93526968  1
  Zn  Zn161  1  0.94082646  0.67635104  0.43771445  1
  Zn  Zn162  1  0.93686764  0.68525226  0.92780517  1
  Zn  Zn163  1  0.06268660  0.31212897  0.06156586  1
  Zn  Zn164  1  0.06118427  0.31655984  0.56609784  1
  Zn  Zn165  1  0.06294976  0.81476253  0.06259686  1
  Zn  Zn166  1  0.06030153  0.80606914  0.56643283  1
  Zn  Zn167  1  0.56539274  0.31581820  0.06424705  1
  Zn  Zn168  1  0.56474087  0.31364550  0.56136935  1
  Zn  Zn169  1  0.56271686  0.81604034  0.06001226  1
  Zn  Zn170  1  0.56282227  0.81606531  0.56298147  1
  O  O171  1  0.11872688  0.11256324  0.13296052  1
  O  O172  1  0.11791970  0.11809075  0.62196289  1
  O  O173  1  0.12145405  0.62326432  0.11255252  1
  O  O174  1  0.13277868  0.60939821  0.63113293  1
  O  O175  1  0.61761244  0.11978850  0.12508010  1
  O  O176  1  0.61222066  0.12528000  0.62695632  1
  O  O177  1  0.62505407  0.61322674  0.12646636  1
  O  O178  1  0.61961379  0.62399185  0.61720417  1
  O  O179  1  0.37035111  0.38395021  0.38351316  1
  O  O180  1  0.38210339  0.37603932  0.88160062  1
  O  O181  1  0.38022186  0.88728411  0.36971129  1
  O  O182  1  0.37799994  0.88130366  0.87708100  1
  O  O183  1  0.87434088  0.37434394  0.37841208  1
  O  O184  1  0.87547661  0.38690732  0.87766233  1
  O  O185  1  0.87298137  0.88502207  0.38404748  1
  O  O186  1  0.87628591  0.88919690  0.87536800  1
  O  O187  1  0.25565216  0.00320853  0.37411822  1
  O  O188  1  0.25437535  -0.00194187  0.86033739  1
  O  O189  1  0.25313755  0.51276927  0.38273594  1
  O  O190  1  0.25429650  0.51350425  0.88172345  1
  O  O191  1  0.75473519  0.00336640  0.36872192  1
  O  O192  1  0.75935157  0.00101812  0.88125272  1
  O  O193  1  0.75516333  0.51534019  0.38214179  1
  O  O194  1  0.76186327  0.49613811  0.87538417  1
  O  O195  1  0.24686925  0.48456117  0.11704328  1
  O  O196  1  0.24147109  0.49052898  0.62126572  1
  O  O197  1  0.24176597  0.99496489  0.12963204  1
  O  O198  1  0.24476344  0.99258516  0.63277464  1
  O  O199  1  0.73391563  0.49700476  0.11918003  1
  O  O200  1  0.74382915  0.49214843  0.62277528  1
  O  O201  1  0.74940891  0.99317356  0.13198915  1
  O  O202  1  0.74866337  0.98161384  0.62245984  1
  O  O203  1  0.01507552  0.36472119  0.24257625  1
  O  O204  1  0.00931944  0.35987163  0.74450230  1
  O  O205  1  0.00978295  0.86523972  0.24381434  1
  O  O206  1  0.00618109  0.86913396  0.75055780  1
  O  O207  1  0.51208551  0.37387464  0.25591581  1
  O  O208  1  0.49962640  0.36957365  0.75888837  1
  O  O209  1  0.50156644  0.88001281  0.26444913  1
  O  O210  1  0.50481305  0.86975840  0.75287106  1
  O  O211  1  0.49473881  0.12381930  0.24005859  1
  O  O212  1  0.49188166  0.13130267  0.74304763  1
  O  O213  1  0.48016500  0.61891247  0.25579927  1
  O  O214  1  0.49244487  0.63413088  0.73996370  1
  O  O215  1  0.99695384  0.13019455  0.23982865  1
  O  O216  1  0.99349098  0.13411459  0.74287861  1
  O  O217  1  0.99633385  0.63226782  0.24071418  1
  O  O218  1  0.99042503  0.63254231  0.75208604  1
  O  O219  1  0.36767529  0.25533219  0.00591998  1
  O  O220  1  0.36676731  0.25526260  0.50718936  1
  O  O221  1  0.36376001  0.75854892  -0.00226112  1
  O  O222  1  0.36566740  0.74686554  0.51197063  1
  O  O223  1  0.87116399  0.25647639  -0.00284906  1
  O  O224  1  0.87768676  0.24641845  0.51435627  1
  O  O225  1  0.87945654  0.74968317  0.01135083  1
  O  O226  1  0.88484751  0.76275201  0.48988520  1
  O  O227  1  0.13002855  0.24319834  0.50233529  1
  O  O228  1  0.13025679  0.25309450  0.98574480  1
  O  O229  1  0.12983643  0.75600587  0.48766837  1
  O  O230  1  0.13153679  0.74268013  1.00184454  1
  O  O231  1  0.62668547  0.24629921  0.48873493  1
  O  O232  1  0.63455798  0.25068583  0.99376524  1
  O  O233  1  0.62471856  0.73854515  0.50414956  1
  O  O234  1  0.62471257  0.75296740  0.98373952  1
  O  O235  1  0.49464766  0.24232182  0.12623060  1
  O  O236  1  0.49368312  0.24427702  0.62926117  1
  O  O237  1  0.48887273  0.74900206  0.10899572  1
  O  O238  1  0.49197353  0.74630821  0.62713248  1
  O  O239  1  1.00138029  0.24074694  0.13206714  1
  O  O240  1  0.99530707  0.23879673  0.63301570  1
  O  O241  1  0.99625923  0.74476226  0.13224919  1
  O  O242  1  0.99829524  0.75337600  0.64451360  1
  O  O243  1  0.00320624  0.23930015  0.36157035  1
  O  O244  1  0.01329131  0.24518672  0.86840079  1
  O  O245  1  0.00788119  0.74242564  0.36205868  1
  O  O246  1  -0.00634601  0.75438612  0.85693921  1
  O  O247  1  0.50861341  0.25084430  0.37410491  1
  O  O248  1  0.50489670  0.26158135  0.87333529  1
  O  O249  1  0.48872804  0.76814622  0.38115213  1
  O  O250  1  0.50517260  0.75733221  0.86726939  1
  O  O251  1  0.23975769  0.13079157  0.50190293  1
  O  O252  1  0.25350547  0.13838523  1.00515241  1
  O  O253  1  0.24969777  0.63829405  0.49182847  1
  O  O254  1  0.24323105  0.63321691  0.99288850  1
  O  O255  1  0.74964893  0.12310676  0.48841599  1
  O  O256  1  0.75180906  0.13854772  1.00328917  1
  O  O257  1  0.73799305  0.62767457  0.49411103  1
  O  O258  1  0.74192347  0.62888816  0.99295028  1
  O  O259  1  0.25562740  0.36622974  0.00638301  1
  O  O260  1  0.25578959  0.36868169  0.50965255  1
  O  O261  1  0.25096507  0.86972035  0.00236940  1
  O  O262  1  0.24504350  0.86555298  0.51278528  1
  O  O263  1  0.76275102  0.36508631  0.00104054  1
  O  O264  1  0.75671385  0.37144973  0.51328596  1
  O  O265  1  0.75408321  0.87226597  0.01325321  1
  O  O266  1  0.75443749  0.87091688  0.50172578  1
  O  O267  1  0.11841628  0.48596279  0.24506042  1
  O  O268  1  0.11795750  0.49090553  0.74147217  1
  O  O269  1  0.12920985  0.99249886  0.24550150  1
  O  O270  1  0.13070092  0.99603607  0.74007922  1
  O  O271  1  0.61880475  0.49572909  0.23898960  1
  O  O272  1  0.61585208  0.50044720  0.73010191  1
  O  O273  1  0.63839302  0.99886400  0.24591089  1
  O  O274  1  0.61877739  0.98647330  0.74861155  1
  O  O275  1  0.36683615  0.00604235  0.25758532  1
  O  O276  1  0.36723004  0.00758835  0.75290873  1
  O  O277  1  0.37023717  0.50853678  0.25996752  1
  O  O278  1  0.37950927  0.51480154  0.75021701  1
  O  O279  1  0.86550226  0.00130537  0.25786639  1
  O  O280  1  0.87927304  0.00569405  0.76397029  1
  O  O281  1  0.88830423  0.50780533  0.24641228  1
  O  O282  1  0.88284638  0.50676654  0.76039927  1
  O  O283  1  0.13337835  0.37503373  0.36161190  1
  O  O284  1  0.13048171  0.36849079  0.86285657  1
  O  O285  1  0.12977899  0.86719194  0.36278310  1
  O  O286  1  0.12511646  0.88138213  0.85939924  1
  O  O287  1  0.62607200  0.36950421  0.37287385  1
  O  O288  1  0.61790965  0.36817358  0.87459392  1
  O  O289  1  0.60924230  0.87826077  0.37256310  1
  O  O290  1  0.62038602  0.87190421  0.86422271  1
  O  O291  1  0.38191663  0.12995750  0.13252084  1
  O  O292  1  0.38376344  0.12972635  0.63405419  1
  O  O293  1  0.36425211  0.62056558  0.13919504  1
  O  O294  1  0.38074137  0.63041463  0.62800897  1
  O  O295  1  0.88471508  0.12398897  0.13284922  1
  O  O296  1  0.88111487  0.12663164  0.63036223  1
  O  O297  1  0.87905398  0.63020586  0.12954962  1
  O  O298  1  0.86952066  0.61618790  0.63946852  1
  O  O299  1  0.25335287  0.25725356  0.11772531  1
  O  O300  1  0.25472575  0.25810493  0.62097039  1
  O  O301  1  0.25115894  0.75789535  0.11310583  1
  O  O302  1  0.25384877  0.75497042  0.61891003  1
  O  O303  1  0.75287784  0.25303056  0.11608003  1
  O  O304  1  0.75952750  0.25358816  0.62144934  1
  O  O305  1  0.76162505  0.75669527  0.12295543  1
  O  O306  1  0.75068040  0.77442984  0.63321928  1
  O  O307  1  0.24781573  0.24231788  0.38672766  1
  O  O308  1  0.23773901  0.25081686  0.88261984  1
  O  O309  1  0.24385359  0.74545873  0.38261387  1
  O  O310  1  0.25176977  0.74223793  0.88423669  1
  O  O311  1  0.74256573  0.23803535  0.37620474  1
  O  O312  1  0.74104349  0.25532397  0.88288768  1
  O  O313  1  0.75803268  0.72787679  0.36726743  1
  O  O314  1  0.74104726  0.75191342  0.87521171  1
  O  O315  1  -0.00306997  0.11852672  0.01283722  1
  O  O316  1  0.01220987  0.12758779  0.50891681  1
  O  O317  1  0.00668594  0.62086845  -0.00004118  1
  O  O318  1  0.00442769  0.60771775  0.50248004  1
  O  O319  1  0.49873338  0.12023048  0.01265104  1
  O  O320  1  0.49820501  0.11666843  0.50954462  1
  O  O321  1  0.50188509  0.61048652  -0.00889265  1
  O  O322  1  0.51166956  0.63063010  0.50627886  1
  O  O323  1  0.48294175  0.36956225  0.50058054  1
  O  O324  1  0.49412245  0.38033826  0.99379679  1
  O  O325  1  0.50155824  0.88692524  0.49247734  1
  O  O326  1  0.49406962  0.88490183  0.98996135  1
  O  O327  1  0.99988998  0.39228390  0.51123441  1
  O  O328  1  0.98907659  0.38129587  1.00236972  1
  O  O329  1  0.99255473  0.87535543  0.50190711  1
  O  O330  1  0.99878875  0.88528933  0.99784807  1
  O  O331  1  0.48421319  0.49827781  0.37791719  1
  O  O332  1  0.50102064  0.48848980  0.88052252  1
  O  O333  1  0.49146637  0.99590516  0.38314551  1
  O  O334  1  0.49239213  0.99745973  0.87917578  1
  O  O335  1  1.00318337  0.50095777  0.38738176  1
  O  O336  1  0.98896368  0.50281144  0.88490290  1
  O  O337  1  0.98553922  1.00273903  0.36742320  1
  O  O338  1  1.00242956  1.00084927  0.88669299  1
  O  O339  1  0.00620747  0.00477541  0.11687264  1
  O  O340  1  0.00646015  0.01081746  0.63252577  1
  O  O341  1  0.00122969  0.50851048  0.10852446  1
  O  O342  1  0.01138122  0.50306679  0.62339742  1
  O  O343  1  0.50405142  0.00647109  0.12118249  1
  O  O344  1  0.49817593  0.00763777  0.61808622  1
  O  O345  1  0.51074759  0.49474053  0.11580710  1
  O  O346  1  0.50223318  0.51296505  0.62231537  1
  O  O347  1  0.23536432  0.36791868  0.24062955  1
  O  O348  1  0.24215832  0.37206746  0.74174982  1
  O  O349  1  0.24380309  0.87902434  0.24397805  1
  O  O350  1  0.24197809  0.87927802  0.73980907  1
  O  O351  1  0.73494741  0.36923413  0.24763392  1
  O  O352  1  0.74817627  0.36823276  0.73423457  1
  O  O353  1  0.75041595  0.88021445  0.24197387  1
  O  O354  1  0.73995908  0.87794015  0.75239418  1
  O  O355  1  0.25252087  0.11881213  0.25736239  1
  O  O356  1  0.25946949  0.11553955  0.74085931  1
  O  O357  1  0.25752235  0.62664892  0.26020313  1
  O  O358  1  0.25876097  0.63253661  0.76003534  1
  O  O359  1  0.75552219  0.11736995  0.25916948  1
  O  O360  1  0.76265857  0.12817528  0.74538505  1
  O  O361  1  0.76436099  0.61646427  0.25660710  1
  O  O362  1  0.76146885  0.62919333  0.75176944  1
  O  O363  1  0.36903612  0.11664456  0.37157821  1
  O  O364  1  0.37997971  0.12271182  0.86285151  1
  O  O365  1  0.36569218  0.61901385  0.36986212  1
  O  O366  1  0.36820440  0.62548253  0.86529882  1
  O  O367  1  0.86871198  0.11338349  0.37107304  1
  O  O368  1  0.87942417  0.11056485  0.86700921  1
  O  O369  1  0.87183788  0.61686628  0.36438655  1
  O  O370  1  0.87012079  0.61048503  0.86696157  1
  O  O371  1  0.13248469  0.37461305  0.13186555  1
  O  O372  1  0.13302226  0.37890280  0.63757533  1
  O  O373  1  0.13098529  0.88381478  0.13370301  1
  O  O374  1  0.12995050  0.88145662  0.63209733  1
  O  O375  1  0.62672408  0.38451957  0.13429215  1
  O  O376  1  0.63267919  0.38335255  0.62311367  1
  O  O377  1  0.63412248  0.88230979  0.12743364  1
  O  O378  1  0.63341141  0.87768131  0.63457718  1
  O  O379  1  0.11804232  0.25791622  0.25421785  1
  O  O380  1  0.12028407  0.25376415  0.76040668  1
  O  O381  1  0.11967826  0.75695103  0.25450734  1
  O  O382  1  0.11363906  0.75669308  0.74869224  1
  O  O383  1  0.62251536  0.25567146  0.26156589  1
  O  O384  1  0.61750208  0.25494074  0.75804514  1
  O  O385  1  0.62318078  0.74480744  0.24434290  1
  O  O386  1  0.62000713  0.76188667  0.75591116  1
  O  O387  1  0.37441210  0.24369841  0.24585338  1
  O  O388  1  0.37835205  0.24439797  0.74610544  1
  O  O389  1  0.37041481  0.73304668  0.24638455  1
  O  O390  1  0.37804099  0.74214238  0.73852915  1
  O  O391  1  0.88353361  0.24223236  0.24719112  1
  O  O392  1  0.88286564  0.24286814  0.74410333  1
  O  O393  1  0.88383279  0.74401731  0.24007182  1
  O  O394  1  0.88165639  0.73505454  0.74991903  1
  O  O395  1  0.36699261  0.49207882  0.49183248  1
  O  O396  1  0.38370962  0.49274126  0.99875372  1
  O  O397  1  0.38113316  1.00441642  0.49203256  1
  O  O398  1  0.37714072  0.99554932  0.99304717  1
  O  O399  1  0.88947362  0.49902593  0.49977822  1
  O  O400  1  0.87922223  0.49309185  0.98925246  1
  O  O401  1  0.87660101  0.99470515  0.48580257  1
  O  O402  1  0.88307518  1.00025128  0.98741419  1
  O  O403  1  0.11881226  -0.00162517  0.01038529  1
  O  O404  1  0.12994274  0.00618286  0.51419331  1
  O  O405  1  0.11645367  0.50601739  -0.00160021  1
  O  O406  1  0.11739615  0.49541824  0.51705634  1
  O  O407  1  0.61871844  0.00280446  0.00663421  1
  O  O408  1  0.61419448  0.00524182  0.50419573  1
  O  O409  1  0.61707360  0.49844632  0.01177930  1
  O  O410  1  0.62436229  0.51185419  0.51363489  1
  O  O411  1  0.36824668  0.36941893  0.12396446  1
  O  O412  1  0.36734717  0.37420522  0.62078936  1
  O  O413  1  0.36399037  0.87903084  0.11754075  1
  O  O414  1  0.36454000  0.86556620  0.63130271  1
  O  O415  1  0.87331820  0.37292811  0.11351653  1
  O  O416  1  0.87095755  0.36438723  0.62693057  1
  O  O417  1  0.86927733  0.86689194  0.12455120  1
  O  O418  1  0.86780243  0.88074536  0.60540098  1
  O  O419  1  0.13120482  0.12267208  0.38653643  1
  O  O420  1  0.12720168  0.13564713  0.86938233  1
  O  O421  1  0.13355267  0.63705271  0.36579322  1
  O  O422  1  0.13156228  0.62174542  0.88436536  1
  O  O423  1  0.63224004  0.13062387  0.37429937  1
  O  O424  1  0.61564583  0.14147539  0.87797317  1
  O  O425  1  0.63149302  0.62121558  0.38770544  1
  O  O426  1  0.62476633  0.63585435  0.86999259  1
