# generated using pymatgen
data_V85Zn86O256
_symmetry_space_group_name_H-M   'P 1'
_cell_length_a   16.97830739
_cell_length_b   16.96578039
_cell_length_c   16.96326220
_cell_angle_alpha   90.04279442
_cell_angle_beta   90.02111761
_cell_angle_gamma   89.96185559
_symmetry_Int_Tables_number   1
_chemical_formula_structural   V85Zn86O256
_chemical_formula_sum   'V85 Zn86 O256'
_cell_volume   4886.26887758
_cell_formula_units_Z   1
loop_
 _symmetry_equiv_pos_site_id
 _symmetry_equiv_pos_as_xyz
  1  'x, y, z'
loop_
 _atom_site_type_symbol
 _atom_site_label
 _atom_site_symmetry_multiplicity
 _atom_site_fract_x
 _atom_site_fract_y
 _atom_site_fract_z
 _atom_site_occupancy
  V  V0  1  0.24764094  0.76541278  0.00479013  1
  V  V1  1  0.50904149  0.62301886  0.13358168  1
  V  V2  1  0.13198857  -0.01116298  0.13555254  1
  V  V3  1  0.61610678  0.00051369  0.62387739  1
  V  V4  1  0.38625051  0.88467048  0.50536204  1
  V  V5  1  0.61304376  0.12366223  -0.00235474  1
  V  V6  1  0.12696652  0.24637615  0.37493192  1
  V  V7  1  0.24664700  0.61842575  0.37156580  1
  V  V8  1  0.74910338  0.49875532  0.74735936  1
  V  V9  1  0.25364430  0.26130268  0.50201063  1
  V  V10  1  0.37084697  0.12034520  0.25093033  1
  V  V11  1  0.62165844  0.87123951  0.75752804  1
  V  V12  1  0.63461240  0.24880981  0.37931372  1
  V  V13  1  -0.00270473  -0.00969370  0.00681896  1
  V  V14  1  0.00247296  -0.00250416  0.49610430  1
  V  V15  1  0.12883701  0.49115904  0.61846634  1
  V  V16  1  0.87497231  0.49583574  0.37593438  1
  V  V17  1  0.00416656  0.62443888  0.62161816  1
  V  V18  1  0.12806349  0.12204623  -0.00397437  1
  V  V19  1  0.00022737  0.12399886  0.12638545  1
  V  V20  1  0.48772473  0.37625896  0.38108509  1
  V  V21  1  0.61695802  0.74514822  0.36228393  1
  V  V22  1  0.24487394  0.63095286  0.87778286  1
  V  V23  1  0.25098701  0.49401778  0.74538139  1
  V  V24  1  0.50128731  0.74771959  0.75632707  1
  V  V25  1  0.75099465  0.74586421  0.49713410  1
  V  V26  1  0.87191101  0.36618980  0.49835166  1
  V  V27  1  0.17472450  0.80755935  0.31855164  1
  V  V28  1  0.74821846  -0.00085663  0.75038166  1
  V  V29  1  0.11712322  0.37585822  0.75775049  1
  V  V30  1  0.50552385  0.50042654  0.00472354  1
  V  V31  1  0.37315430  0.50333339  0.87545521  1
  V  V32  1  0.49908139  0.24898602  0.24810368  1
  V  V33  1  0.00051327  0.12838171  0.62622543  1
  V  V34  1  0.49604719  0.25041125  0.74806579  1
  V  V35  1  0.37318299  -0.00286562  0.89321853  1
  V  V36  1  0.49783775  0.37680971  0.87571955  1
  V  V37  1  0.74926912  0.62191842  0.37488062  1
  V  V38  1  0.87356188  0.24862745  0.12522570  1
  V  V39  1  0.74867218  0.49820052  0.24810156  1
  V  V40  1  0.63502087  0.12991750  0.49984541  1
  V  V41  1  0.62690459  0.63057317  -0.00515627  1
  V  V42  1  0.13297567  0.49818606  0.12216247  1
  V  V43  1  0.12781879  0.37169546  0.24164780  1
  V  V44  1  0.00038250  0.87209807  0.37698609  1
  V  V45  1  0.86421933  0.11612206  0.26075383  1
  V  V46  1  0.24534555  0.75146289  0.50253182  1
  V  V47  1  0.25812175  0.49205791  0.24878698  1
  V  V48  1  0.37859295  0.76121436  0.12498184  1
  V  V49  1  0.38245633  0.74502166  0.62335373  1
  V  V50  1  0.00254229  0.86762850  0.87811124  1
  V  V51  1  0.00008828  0.75002120  0.25472280  1
  V  V52  1  0.74694412  0.36784650  0.61854905  1
  V  V53  1  0.36457653  0.25273143  0.12700338  1
  V  V54  1  0.12740553  0.86599221  0.75598776  1
  V  V55  1  0.62172270  0.50675692  0.61916631  1
  V  V56  1  0.62297617  0.25194100  0.87460570  1
  V  V57  1  0.74813863  0.12429386  0.87684113  1
  V  V58  1  0.00172766  0.37458746  0.37341465  1
  V  V59  1  0.87870273  0.62176960  0.24881723  1
  V  V60  1  0.36810648  0.37788477  0.00511053  1
  V  V61  1  0.37773270  0.62500348  0.74819801  1
  V  V62  1  0.37797403  0.62314421  0.24964697  1
  V  V63  1  0.24910427  0.24712757  -0.00823392  1
  V  V64  1  0.12604341  -0.00015883  0.62979982  1
  V  V65  1  0.00531771  0.49729000  -0.00241260  1
  V  V66  1  0.25086572  0.87541162  0.62870230  1
  V  V67  1  0.49431793  0.12528581  0.61669757  1
  V  V68  1  0.62348925  0.37825710  0.24772390  1
  V  V69  1  0.87647409  0.12449069  0.75331446  1
  V  V70  1  0.74591039  0.38576772  0.12201238  1
  V  V71  1  0.87803079  0.37608575  -0.00535951  1
  V  V72  1  0.36517178  0.12240420  0.75397271  1
  V  V73  1  0.87739236  0.75673334  0.62247687  1
  V  V74  1  0.75117368  0.87609402  0.62591861  1
  V  V75  1  0.82554054  0.93053598  0.44376040  1
  V  V76  1  0.37004883  0.26217014  0.62266418  1
  V  V77  1  0.62701566  0.89227953  0.24977483  1
  V  V78  1  0.88205402  0.49692191  0.87035510  1
  V  V79  1  0.62725391  0.00400337  0.11924162  1
  V  V80  1  0.87369589  -0.00772644  0.88273735  1
  V  V81  1  0.48497745  0.50346860  0.49994870  1
  V  V82  1  0.74774721  0.25132167  -0.00009093  1
  V  V83  1  0.87461197  0.62507626  0.74667522  1
  V  V84  1  0.62348036  0.37677821  0.74868012  1
  Zn  Zn85  1  0.12419882  0.62663752  0.49426737  1
  Zn  Zn86  1  0.12037148  0.24649807  0.87486083  1
  Zn  Zn87  1  0.00182130  0.49955062  0.49816575  1
  Zn  Zn88  1  0.76105303  0.88111853  0.12315720  1
  Zn  Zn89  1  0.00426770  0.74775685  0.75316771  1
  Zn  Zn90  1  0.12620135  0.63017427  -0.00337008  1
  Zn  Zn91  1  0.76081315  0.76402281  -0.00493095  1
  Zn  Zn92  1  -0.00583196  0.25578241  0.75792976  1
  Zn  Zn93  1  0.12740559  0.12728745  0.50219206  1
  Zn  Zn94  1  -0.00011326  0.24866674  0.24885085  1
  Zn  Zn95  1  0.50054029  0.87665910  0.37202047  1
  Zn  Zn96  1  0.87956429  0.76256347  0.11612615  1
  Zn  Zn97  1  0.50175906  0.88777475  0.89315179  1
  Zn  Zn98  1  0.86998604  0.24709978  0.62331327  1
  Zn  Zn99  1  0.25161116  -0.01281372  0.25409615  1
  Zn  Zn100  1  0.74276828  0.62969199  0.87071577  1
  Zn  Zn101  1  0.00512014  0.62543604  0.12447032  1
  Zn  Zn102  1  0.61756588  0.62651939  0.50094438  1
  Zn  Zn103  1  0.25353655  0.12158296  0.37833624  1
  Zn  Zn104  1  0.24524019  0.00351584  0.76188345  1
  Zn  Zn105  1  0.49515995  0.11971954  0.12145227  1
  Zn  Zn106  1  0.38326015  0.00408697  0.37886684  1
  Zn  Zn107  1  0.18785528  0.18470683  0.18423400  1
  Zn  Zn108  1  0.18713264  0.19271351  0.68455655  1
  Zn  Zn109  1  0.19432162  0.68141362  0.17834408  1
  Zn  Zn110  1  0.19054707  0.68419276  0.68566852  1
  Zn  Zn111  1  0.68741041  0.18790052  0.18640519  1
  Zn  Zn112  1  0.68491940  0.18696683  0.68819708  1
  Zn  Zn113  1  0.69343526  0.68897698  0.18045083  1
  Zn  Zn114  1  0.68791303  0.68825102  0.68674856  1
  Zn  Zn115  1  0.30980680  0.30914768  0.31293105  1
  Zn  Zn116  1  0.30948622  0.31438019  0.81185038  1
  Zn  Zn117  1  0.33785702  0.80593053  0.31554186  1
  Zn  Zn118  1  0.31462283  0.81405309  0.81923603  1
  Zn  Zn119  1  0.81286593  0.30873638  0.30848287  1
  Zn  Zn120  1  0.81131491  0.31163396  0.81101192  1
  Zn  Zn121  1  0.80774711  0.80708298  0.30116496  1
  Zn  Zn122  1  0.81118339  0.80942337  0.81467277  1
  Zn  Zn123  1  0.18865159  0.43762834  0.43230592  1
  Zn  Zn124  1  0.19169514  0.43758003  0.93468460  1
  Zn  Zn125  1  0.19644982  0.94589993  0.44353593  1
  Zn  Zn126  1  0.18780363  0.94300694  0.93770117  1
  Zn  Zn127  1  0.68333031  0.43454900  0.43680692  1
  Zn  Zn128  1  0.69087934  0.44427795  0.93490344  1
  Zn  Zn129  1  0.65684544  0.94252236  0.43650814  1
  Zn  Zn130  1  0.68648467  0.93629299  0.94181608  1
  Zn  Zn131  1  0.30840281  0.06351636  0.06826858  1
  Zn  Zn132  1  0.30735750  0.06920503  0.56453753  1
  Zn  Zn133  1  0.31441930  0.56639804  0.06365256  1
  Zn  Zn134  1  0.30961860  0.56419011  0.56226775  1
  Zn  Zn135  1  0.80937282  0.06065481  0.06476590  1
  Zn  Zn136  1  0.80997643  0.06663600  0.56697126  1
  Zn  Zn137  1  0.82747681  0.59070706  0.04855808  1
  Zn  Zn138  1  0.81249560  0.55856527  0.56094466  1
  Zn  Zn139  1  0.43893992  0.43722721  0.18597299  1
  Zn  Zn140  1  0.43904410  0.44109879  0.68491703  1
  Zn  Zn141  1  0.44876362  0.93899901  0.19093246  1
  Zn  Zn142  1  0.43714499  0.93780772  0.69189952  1
  Zn  Zn143  1  0.93990881  0.43762277  0.18354553  1
  Zn  Zn144  1  0.93879089  0.43758472  0.68073249  1
  Zn  Zn145  1  0.93760670  0.93873369  0.19634667  1
  Zn  Zn146  1  0.94033870  0.93791481  0.69043662  1
  Zn  Zn147  1  0.05706608  0.06294961  0.31100444  1
  Zn  Zn148  1  0.05959737  0.05875555  0.81552336  1
  Zn  Zn149  1  0.06754590  0.56006285  0.31089070  1
  Zn  Zn150  1  0.06309969  0.56162015  0.81002314  1
  Zn  Zn151  1  0.55595420  0.06386564  0.31733850  1
  Zn  Zn152  1  0.55498101  0.06269454  0.81018176  1
  Zn  Zn153  1  0.56138049  0.55795896  0.31685311  1
  Zn  Zn154  1  0.55822987  0.56360063  0.81266904  1
  Zn  Zn155  1  0.43796830  0.19103971  0.43661044  1
  Zn  Zn156  1  0.43198800  0.18864092  0.93351140  1
  Zn  Zn157  1  0.43316176  0.68560406  0.43696277  1
  Zn  Zn158  1  0.46236590  0.72767264  0.96520288  1
  Zn  Zn159  1  0.94049778  0.18809037  0.43845869  1
  Zn  Zn160  1  0.94208280  0.18525611  0.93754981  1
  Zn  Zn161  1  0.93659028  0.68866381  0.43685735  1
  Zn  Zn162  1  0.93771730  0.68295361  0.93546239  1
  Zn  Zn163  1  0.06136211  0.31185172  0.05887007  1
  Zn  Zn164  1  0.06223539  0.31246676  0.56250046  1
  Zn  Zn165  1  0.06418046  0.81099669  0.06792549  1
  Zn  Zn166  1  0.06272147  0.81491743  0.56198802  1
  Zn  Zn167  1  0.55937156  0.31277316  0.06385205  1
  Zn  Zn168  1  0.55904849  0.31424536  0.56070956  1
  Zn  Zn169  1  0.56996955  0.81247743  0.07275156  1
  Zn  Zn170  1  0.56510975  0.80730780  0.56825441  1
  O  O171  1  0.11597915  0.12005226  0.11764769  1
  O  O172  1  0.11601956  0.11761117  0.62847075  1
  O  O173  1  0.12346703  0.61132571  0.12163483  1
  O  O174  1  0.11788191  0.61560290  0.62352958  1
  O  O175  1  0.62307481  0.12414370  0.11382386  1
  O  O176  1  0.61550342  0.12122117  0.62182133  1
  O  O177  1  0.61336812  0.62420262  0.12157438  1
  O  O178  1  0.62932566  0.61029787  0.62236192  1
  O  O179  1  0.38997147  0.37089490  0.36890932  1
  O  O180  1  0.37934545  0.38142340  0.88121515  1
  O  O181  1  0.38088754  0.87271641  0.39420714  1
  O  O182  1  0.37836759  0.89370209  0.87224549  1
  O  O183  1  0.88158523  0.37492745  0.37888458  1
  O  O184  1  0.86802684  0.38074611  0.88667092  1
  O  O185  1  0.87872959  0.87121464  0.37684038  1
  O  O186  1  0.88367901  0.88833291  0.86490518  1
  O  O187  1  0.25982140  0.00383166  0.37115525  1
  O  O188  1  0.26505998  0.00257130  0.87636617  1
  O  O189  1  0.24973345  0.50640420  0.36298841  1
  O  O190  1  0.25596255  0.50578817  0.86567347  1
  O  O191  1  0.76049960  -0.01547497  0.39373664  1
  O  O192  1  0.75676671  0.00534788  0.86981168  1
  O  O193  1  0.75400379  0.50259678  0.36904022  1
  O  O194  1  0.76291379  0.50383489  0.86443641  1
  O  O195  1  0.24026363  0.50000812  0.13052839  1
  O  O196  1  0.24036872  0.50606081  0.63294721  1
  O  O197  1  0.23650840  1.00030952  0.13213298  1
  O  O198  1  0.23615560  0.99690302  0.62682044  1
  O  O199  1  0.75605472  0.48724698  0.13068278  1
  O  O200  1  0.74214549  0.49004154  0.62843278  1
  O  O201  1  0.73392252  1.00335025  0.12605838  1
  O  O202  1  0.74295087  0.99417374  0.63179759  1
  O  O203  1  0.00783590  0.37233152  0.25623834  1
  O  O204  1  0.01335164  0.37575019  0.74482878  1
  O  O205  1  0.00061422  0.86825903  0.26813444  1
  O  O206  1  0.00895086  0.87332912  0.75928389  1
  O  O207  1  0.50672414  0.37172686  0.25751790  1
  O  O208  1  0.50473315  0.37134057  0.75494889  1
  O  O209  1  0.52125854  0.87103377  0.25246184  1
  O  O210  1  0.50706172  0.86490122  0.74777251  1
  O  O211  1  0.49033133  0.13590132  0.24909137  1
  O  O212  1  0.48976915  0.13380409  0.74004960  1
  O  O213  1  0.49152304  0.61264685  0.24476158  1
  O  O214  1  0.48542733  0.62713231  0.74896800  1
  O  O215  1  0.99286774  0.12855183  0.23748943  1
  O  O216  1  0.99097007  0.12013402  0.74266337  1
  O  O217  1  0.99579654  0.63195599  0.25574754  1
  O  O218  1  0.99531351  0.62665966  0.73769724  1
  O  O219  1  0.36801174  0.25585600  0.00527371  1
  O  O220  1  0.36263960  0.24815828  0.50704633  1
  O  O221  1  0.36137863  0.74014385  0.01807052  1
  O  O222  1  0.36689823  0.75532486  0.50722372  1
  O  O223  1  0.87037685  0.25729586  0.00666540  1
  O  O224  1  0.87841995  0.26190127  0.50298760  1
  O  O225  1  0.86362266  0.70095029  0.01670894  1
  O  O226  1  0.86190342  0.74379123  0.50875106  1
  O  O227  1  0.13303535  0.25089620  0.49301302  1
  O  O228  1  0.13287865  0.24249979  1.00117008  1
  O  O229  1  0.14096547  0.74776734  0.50917936  1
  O  O230  1  0.14242677  0.74748063  1.01062380  1
  O  O231  1  0.62051858  0.24758475  0.48698628  1
  O  O232  1  0.62875577  0.24767605  0.99290174  1
  O  O233  1  0.63764687  0.74859184  0.49728612  1
  O  O234  1  0.63462152  0.73056753  1.00674444  1
  O  O235  1  0.49218030  0.25147039  0.13791216  1
  O  O236  1  0.49160334  0.24608465  0.62965381  1
  O  O237  1  0.48733648  0.73516577  0.12329347  1
  O  O238  1  0.48736642  0.74856750  0.63167023  1
  O  O239  1  0.99116632  0.24148848  0.12153067  1
  O  O240  1  0.99908043  0.23782207  0.62985246  1
  O  O241  1  1.00046980  0.74588495  0.14042808  1
  O  O242  1  0.99214526  0.74426704  0.62404446  1
  O  O243  1  0.00836224  0.26070779  0.37371231  1
  O  O244  1  0.00607952  0.24434752  0.87023646  1
  O  O245  1  0.00093537  0.75628189  0.36761662  1
  O  O246  1  -0.00708242  0.76344227  0.87562015  1
  O  O247  1  0.50452331  0.26062341  0.36589110  1
  O  O248  1  0.50222037  0.25800856  0.86838082  1
  O  O249  1  0.51554683  0.75070617  0.38423403  1
  O  O250  1  0.49594246  0.74415109  0.85629494  1
  O  O251  1  0.24485938  0.13674110  0.49697786  1
  O  O252  1  0.23984904  0.13506156  1.00699472  1
  O  O253  1  0.25321151  0.63419120  0.48812271  1
  O  O254  1  0.24753392  0.62401786  0.98979802  1
  O  O255  1  0.73463904  0.12873021  0.50911456  1
  O  O256  1  0.74171707  0.13309613  0.99329176  1
  O  O257  1  0.74792180  0.63003709  0.49309141  1
  O  O258  1  0.72524468  0.59629013  0.99905354  1
  O  O259  1  0.26242761  0.36925298  -0.00290115  1
  O  O260  1  0.24791534  0.36053731  0.49351478  1
  O  O261  1  0.24819393  0.86361398  -0.00238321  1
  O  O262  1  0.25858904  0.86812372  0.50888560  1
  O  O263  1  0.75467774  0.37283837  0.00527041  1
  O  O264  1  0.75777151  0.37954644  0.50733401  1
  O  O265  1  0.75019797  0.87681477  0.00629960  1
  O  O266  1  0.75619955  0.87113537  0.50175198  1
  O  O267  1  0.13363437  0.49084302  0.24147536  1
  O  O268  1  0.13056802  0.49110891  0.74323423  1
  O  O269  1  0.12699610  1.00606245  0.23895896  1
  O  O270  1  0.12556320  0.99185063  0.74476171  1
  O  O271  1  0.63137805  0.48539042  0.25671972  1
  O  O272  1  0.62626337  0.49507954  0.74193234  1
  O  O273  1  0.62783289  0.99556709  0.24958101  1
  O  O274  1  0.62806921  0.99669391  0.74069959  1
  O  O275  1  0.37297181  0.00801089  0.24741685  1
  O  O276  1  0.36930492  0.01538789  0.74545353  1
  O  O277  1  0.36350209  0.50320601  0.24387731  1
  O  O278  1  0.36812035  0.50537768  0.75095617  1
  O  O279  1  0.87794896  0.01712620  0.25416952  1
  O  O280  1  0.87010156  0.00882845  0.75622412  1
  O  O281  1  0.87048477  0.49836204  0.25941054  1
  O  O282  1  0.87204581  0.50289647  0.75207473  1
  O  O283  1  0.11861774  0.36681406  0.36548896  1
  O  O284  1  0.12564266  0.37817163  0.85959192  1
  O  O285  1  0.12183419  0.87155014  0.38013832  1
  O  O286  1  0.11556822  0.88256859  0.86702158  1
  O  O287  1  0.61656125  0.36436751  0.36831054  1
  O  O288  1  0.61936431  0.37226809  0.86915940  1
  O  O289  1  0.62491201  0.86245436  0.36542464  1
  O  O290  1  0.61997458  0.88707417  0.85955450  1
  O  O291  1  0.37743700  0.13477752  0.13147238  1
  O  O292  1  0.37956383  0.13344619  0.63306541  1
  O  O293  1  0.38254374  0.62656315  0.13601469  1
  O  O294  1  0.36683829  0.63440423  0.63466536  1
  O  O295  1  0.88087883  0.13298125  0.12749215  1
  O  O296  1  0.88223832  0.12532809  0.63441210  1
  O  O297  1  0.88592645  0.60671946  0.14582166  1
  O  O298  1  0.88156318  0.62822702  0.63102583  1
  O  O299  1  0.26047776  0.24997787  0.11657421  1
  O  O300  1  0.25492297  0.24976925  0.61088499  1
  O  O301  1  0.26209240  0.74848651  0.11566135  1
  O  O302  1  0.25973163  0.75443332  0.61914095  1
  O  O303  1  0.75672183  0.25954287  0.11783116  1
  O  O304  1  0.74849259  0.26408400  0.63057801  1
  O  O305  1  0.75910742  0.75430257  0.12089034  1
  O  O306  1  0.75580759  0.75666525  0.61708968  1
  O  O307  1  0.24294015  0.24756424  0.38412941  1
  O  O308  1  0.24513966  0.25314152  0.88776078  1
  O  O309  1  0.24319979  0.74952760  0.37751352  1
  O  O310  1  0.25951061  0.74271074  0.89265017  1
  O  O311  1  0.73273251  0.25625047  0.37135526  1
  O  O312  1  0.74302735  0.24483952  0.87960269  1
  O  O313  1  0.74235603  0.74228218  0.38070688  1
  O  O314  1  0.75917600  0.74009476  0.88159577  1
  O  O315  1  0.00383984  0.11341459  0.01133497  1
  O  O316  1  0.00146323  0.11689380  0.50943011  1
  O  O317  1  0.00824266  0.60968679  -0.00176902  1
  O  O318  1  0.00158947  0.62425848  0.50947589  1
  O  O319  1  0.51069666  0.13800624  0.00035628  1
  O  O320  1  0.50592106  0.13474613  0.51379550  1
  O  O321  1  0.51125860  0.61980552  0.00755155  1
  O  O322  1  0.49880008  0.60799467  0.49234775  1
  O  O323  1  0.49976147  0.38085666  0.48687136  1
  O  O324  1  0.48924410  0.38091553  0.99656370  1
  O  O325  1  0.48704585  0.87034943  0.50912204  1
  O  O326  1  0.50113822  0.83422765  0.99028638  1
  O  O327  1  0.99319252  0.37639598  0.49116126  1
  O  O328  1  0.99001028  0.38555105  1.00294662  1
  O  O329  1  1.00051916  0.88100999  0.48986057  1
  O  O330  1  1.00572133  0.88349055  0.99519011  1
  O  O331  1  0.50256996  0.48588248  0.38690311  1
  O  O332  1  0.49080395  0.49502532  0.88136163  1
  O  O333  1  0.49876631  0.99144378  0.37873490  1
  O  O334  1  0.48117909  1.00194832  0.87054435  1
  O  O335  1  0.99744398  0.48769273  0.37422705  1
  O  O336  1  0.98970005  0.49999393  0.87838791  1
  O  O337  1  1.00541733  0.99286954  0.38850926  1
  O  O338  1  0.99232899  0.99115903  0.88594543  1
  O  O339  1  0.00712407  0.00587783  0.12178825  1
  O  O340  1  0.00755799  0.00409489  0.61732655  1
  O  O341  1  0.01328905  0.49843711  0.11595999  1
  O  O342  1  0.00846748  0.50841424  0.62063208  1
  O  O343  1  0.51866585  0.00632453  0.13094891  1
  O  O344  1  0.50673179  0.01111175  0.63253301  1
  O  O345  1  0.49398886  0.50956820  0.11545496  1
  O  O346  1  0.50745302  0.49168841  0.60822857  1
  O  O347  1  0.24098444  0.38127092  0.25506678  1
  O  O348  1  0.24146698  0.38847807  0.75225667  1
  O  O349  1  0.24221398  0.86324121  0.26732022  1
  O  O350  1  0.24413893  0.87714985  0.74646437  1
  O  O351  1  0.74271964  0.37671298  0.24178899  1
  O  O352  1  0.74351587  0.38090212  0.74292972  1
  O  O353  1  0.73005004  0.86914785  0.24847208  1
  O  O354  1  0.74187145  0.87928815  0.74480382  1
  O  O355  1  0.26343517  0.12936482  0.25178417  1
  O  O356  1  0.26233632  0.12698676  0.74476414  1
  O  O357  1  0.25632610  0.61396415  0.25304600  1
  O  O358  1  0.25666093  0.61703946  0.75488811  1
  O  O359  1  0.76547855  0.13284414  0.24652471  1
  O  O360  1  0.75540242  0.11919598  0.75556467  1
  O  O361  1  0.75842429  0.61766948  0.25487176  1
  O  O362  1  0.75852272  0.61706354  0.74606413  1
  O  O363  1  0.37641208  0.12649563  0.36535596  1
  O  O364  1  0.37742157  0.11875102  0.85967468  1
  O  O365  1  0.36244732  0.63619706  0.35946514  1
  O  O366  1  0.36251999  0.61639855  0.86288362  1
  O  O367  1  0.87996220  0.13762053  0.35851685  1
  O  O368  1  0.87013039  0.11510257  0.86975925  1
  O  O369  1  0.87126008  0.61580790  0.36804201  1
  O  O370  1  0.88010393  0.61510295  0.85616128  1
  O  O371  1  0.12105267  0.37733970  0.13626698  1
  O  O372  1  0.12101272  0.38716224  0.63206096  1
  O  O373  1  0.12042517  0.89097361  0.12906067  1
  O  O374  1  0.12914267  0.88254225  0.63306217  1
  O  O375  1  0.63331238  0.36778665  0.13535584  1
  O  O376  1  0.62974708  0.38199926  0.62776427  1
  O  O377  1  0.62757977  0.88545265  0.13686227  1
  O  O378  1  0.62981670  0.88460520  0.63006651  1
  O  O379  1  0.12522761  0.25564602  0.25523749  1
  O  O380  1  0.12868545  0.26727542  0.74915037  1
  O  O381  1  0.12340754  0.74803540  0.25118517  1
  O  O382  1  0.12470154  0.76216255  0.74359110  1
  O  O383  1  0.61674910  0.25571529  0.25741556  1
  O  O384  1  0.61750562  0.25614014  0.75573324  1
  O  O385  1  0.62649229  0.74409436  0.26214177  1
  O  O386  1  0.61534222  0.75970262  0.73943239  1
  O  O387  1  0.37982969  0.24684862  0.24260746  1
  O  O388  1  0.37505408  0.24160054  0.74565771  1
  O  O389  1  0.37151804  0.73666286  0.23534787  1
  O  O390  1  0.37817726  0.74361950  0.74313540  1
  O  O391  1  0.87849771  0.25106932  0.23399313  1
  O  O392  1  0.87382611  0.23647083  0.74868329  1
  O  O393  1  0.88494999  0.73658260  0.25227005  1
  O  O394  1  0.87710438  0.74026944  0.73868123  1
  O  O395  1  0.38612039  0.49951912  0.50539482  1
  O  O396  1  0.38037594  0.49364035  0.99644047  1
  O  O397  1  0.37035653  0.98606678  0.50862865  1
  O  O398  1  0.37505565  1.00889817  0.99213681  1
  O  O399  1  0.87764263  0.48853960  0.49227471  1
  O  O400  1  0.88294491  0.49639089  0.99021480  1
  O  O401  1  0.88066915  0.99650078  0.50357007  1
  O  O402  1  0.88476332  1.00709613  0.99225276  1
  O  O403  1  0.11839071  0.00508184  0.01190845  1
  O  O404  1  0.11775725  0.00216991  0.51034230  1
  O  O405  1  0.12045538  0.49300932  0.00583838  1
  O  O406  1  0.12538552  0.50253260  0.50564452  1
  O  O407  1  0.62392418  0.01378263  0.00443698  1
  O  O408  1  0.62270564  0.01235068  0.51530352  1
  O  O409  1  0.60740018  0.49499806  -0.00298517  1
  O  O410  1  0.61634885  0.50002990  0.50602647  1
  O  O411  1  0.38010602  0.36562496  0.11571991  1
  O  O412  1  0.37635762  0.36082836  0.63366296  1
  O  O413  1  0.38385623  0.85939458  0.13417396  1
  O  O414  1  0.37022368  0.86842507  0.62028378  1
  O  O415  1  0.86879460  0.36993309  0.11371597  1
  O  O416  1  0.86630804  0.37359452  0.61629822  1
  O  O417  1  0.87647840  0.87442043  0.13267932  1
  O  O418  1  0.87100666  0.86385956  0.63119186  1
  O  O419  1  0.12059114  0.13897422  0.37450199  1
  O  O420  1  0.12092030  0.11924730  0.89190460  1
  O  O421  1  0.14021483  0.62266337  0.37515797  1
  O  O422  1  0.14012349  0.62154449  0.87126769  1
  O  O423  1  0.61840632  0.14019653  0.38408172  1
  O  O424  1  0.62708455  0.13019133  0.87905497  1
  O  O425  1  0.62960431  0.63259241  0.37731356  1
  O  O426  1  0.62208064  0.61954729  0.88941696  1
