# generated using pymatgen
data_V85Zn86O256
_symmetry_space_group_name_H-M   'P 1'
_cell_length_a   16.92000742
_cell_length_b   16.92577933
_cell_length_c   16.92235164
_cell_angle_alpha   89.98245340
_cell_angle_beta   89.98437011
_cell_angle_gamma   90.08354007
_symmetry_Int_Tables_number   1
_chemical_formula_structural   V85Zn86O256
_chemical_formula_sum   'V85 Zn86 O256'
_cell_volume   4846.29047021
_cell_formula_units_Z   1
loop_
 _symmetry_equiv_pos_site_id
 _symmetry_equiv_pos_as_xyz
  1  'x, y, z'
loop_
 _atom_site_type_symbol
 _atom_site_label
 _atom_site_symmetry_multiplicity
 _atom_site_fract_x
 _atom_site_fract_y
 _atom_site_fract_z
 _atom_site_occupancy
  V  V0  1  0.12538922  -0.00336850  0.11926865  1
  V  V1  1  0.74883667  0.87082380  0.62258147  1
  V  V2  1  0.87548502  0.87705929  0.00098233  1
  V  V3  1  0.62475859  0.37492036  0.75272192  1
  V  V4  1  0.24135955  0.49408600  0.24825612  1
  V  V5  1  0.25098226  0.50068408  0.74073102  1
  V  V6  1  0.50258425  0.37756711  0.37451615  1
  V  V7  1  0.63023826  0.75475203  0.37654015  1
  V  V8  1  0.49800022  0.75235719  0.75004031  1
  V  V9  1  0.26689432  0.87504871  0.12249911  1
  V  V10  1  -0.00167996  0.11726092  0.11858133  1
  V  V11  1  0.25529945  0.88512853  0.62235295  1
  V  V12  1  0.00317714  0.24661776  0.24722852  1
  V  V13  1  0.62184929  0.87589773  0.75251976  1
  V  V14  1  0.25345785  0.12569212  0.86242024  1
  V  V15  1  0.87253437  0.49903786  0.36440999  1
  V  V16  1  0.49804689  0.11888699  0.62313250  1
  V  V17  1  0.00069042  0.87278234  0.36981288  1
  V  V18  1  0.75482062  0.36876717  0.62862882  1
  V  V19  1  0.37611541  0.12409696  0.24949062  1
  V  V20  1  0.36952615  -0.00317822  0.86615199  1
  V  V21  1  0.63278143  0.00612411  0.12555671  1
  V  V22  1  0.37318071  0.24669581  0.62908169  1
  V  V23  1  0.86899846  0.37706566  -0.00061607  1
  V  V24  1  0.37877486  -0.00174266  0.38588352  1
  V  V25  1  0.25256585  -0.00115662  0.24927105  1
  V  V26  1  0.00457227  0.50224079  0.49988451  1
  V  V27  1  0.49555641  0.87423284  0.88737860  1
  V  V28  1  -0.00073036  0.25115428  0.74985292  1
  V  V29  1  0.37245073  0.25265491  0.12662958  1
  V  V30  1  0.87622817  0.37007681  0.50318353  1
  V  V31  1  0.50216918  0.62590006  0.62123715  1
  V  V32  1  0.12633965  0.25003104  0.37114618  1
  V  V33  1  0.62694387  0.49983137  0.62594467  1
  V  V34  1  0.12429757  0.86568077  0.24507775  1
  V  V35  1  0.12348045  0.11988496  -0.00810471  1
  V  V36  1  0.62143167  0.12140647  0.49734056  1
  V  V37  1  0.74828241  0.74478654  0.00473183  1
  V  V38  1  0.87752869  0.00239462  0.87831599  1
  V  V39  1  0.00025210  0.37364597  0.36798055  1
  V  V40  1  0.12845743  0.87442523  0.74797685  1
  V  V41  1  0.74754497  0.00112519  0.75050372  1
  V  V42  1  0.74688101  0.24820852  0.49801253  1
  V  V43  1  0.61771329  0.62362043  0.00464215  1
  V  V44  1  0.12533362  0.37351122  0.75093153  1
  V  V45  1  0.37677198  0.75500763  0.61125233  1
  V  V46  1  -0.06103594  0.68915668  0.79903874  1
  V  V47  1  0.75344340  0.62670020  0.37418996  1
  V  V48  1  0.37566683  0.62602752  0.74455428  1
  V  V49  1  0.87320721  0.25196736  0.12178829  1
  V  V50  1  0.62618847  0.50601792  0.13572568  1
  V  V51  1  0.49665422  0.24569106  0.75035233  1
  V  V52  1  0.12345205  0.74672941  0.37724606  1
  V  V53  1  -0.00167447  0.37293743  0.87299018  1
  V  V54  1  0.63686177  0.62858423  0.50297931  1
  V  V55  1  -0.00414432  0.13028191  0.62340199  1
  V  V56  1  0.38169285  0.72900133  0.13140528  1
  V  V57  1  0.87216247  0.87101644  0.49927430  1
  V  V58  1  0.24345709  0.24707500  -0.00302285  1
  V  V59  1  -0.00044929  0.00010307  0.50047250  1
  V  V60  1  0.00024425  0.87949735  0.86917977  1
  V  V61  1  0.87558452  0.74411102  0.62117076  1
  V  V62  1  0.74494452  0.12494083  0.36705022  1
  V  V63  1  0.24416817  0.74538604  0.50066040  1
  V  V64  1  0.49686155  0.01152997  0.00308422  1
  V  V65  1  0.87624710  0.63185799  0.24881895  1
  V  V66  1  0.37741873  0.49994130  0.87416164  1
  V  V67  1  0.37209327  0.37485783  0.00016764  1
  V  V68  1  0.37642390  0.37699826  0.49623945  1
  V  V69  1  0.25178447  0.62601413  0.87473787  1
  V  V70  1  0.86873776  -0.00090439  0.36733250  1
  V  V71  1  0.87269328  0.12954275  0.74588500  1
  V  V72  1  0.25724329  0.75342049  -0.00018825  1
  V  V73  1  0.00470990  0.63014769  0.13094666  1
  V  V74  1  0.24983571  0.25007582  0.49855958  1
  V  V75  1  0.62745666  0.74498404  0.87817884  1
  V  V76  1  0.62405783  0.24438042  0.88354692  1
  V  V77  1  0.49665093  0.87853612  0.38770802  1
  V  V78  1  0.50473697  0.25220399  0.25440425  1
  V  V79  1  0.00768146  0.63016006  0.61974364  1
  V  V80  1  0.63581406  0.37348120  0.25415302  1
  V  V81  1  0.75578026  0.51189789  0.75727516  1
  V  V82  1  0.00476223  0.49613649  0.00761554  1
  V  V83  1  0.13083030  0.62030200  0.00558212  1
  V  V84  1  0.12322499  0.12366417  0.49867826  1
  Zn  Zn85  1  0.62637453  0.88018189  0.25148011  1
  Zn  Zn86  1  0.39977407  0.55426049  0.32509353  1
  Zn  Zn87  1  0.49593791  0.74211768  0.25397070  1
  Zn  Zn88  1  0.22837173  0.37401183  0.12856429  1
  Zn  Zn89  1  0.25105396  0.12271968  0.37438216  1
  Zn  Zn90  1  0.50303672  0.50009424  0.49595903  1
  Zn  Zn91  1  0.75723600  0.38305474  0.13378980  1
  Zn  Zn92  1  0.49552998  0.50399055  0.00930970  1
  Zn  Zn93  1  0.12558952  0.74898598  0.87172998  1
  Zn  Zn94  1  0.74278070  0.24771377  0.00516352  1
  Zn  Zn95  1  0.50563140  0.13242928  0.12026881  1
  Zn  Zn96  1  0.24650361  0.61972793  0.37271883  1
  Zn  Zn97  1  0.49930578  0.37565853  0.87680036  1
  Zn  Zn98  1  0.87078560  0.11972045  0.24476421  1
  Zn  Zn99  1  0.74404121  0.12349995  0.87773320  1
  Zn  Zn100  1  0.24877126  0.37496858  0.62278704  1
  Zn  Zn101  1  0.61798879  -0.00335931  0.62232850  1
  Zn  Zn102  1  0.87389681  0.50970205  0.87555296  1
  Zn  Zn103  1  0.87688925  0.75622726  0.13258026  1
  Zn  Zn104  1  0.12784238  0.50480344  0.62030291  1
  Zn  Zn105  1  0.75081999  0.87781933  0.13465522  1
  Zn  Zn106  1  0.12753663  0.00351390  0.63217532  1
  Zn  Zn107  1  0.18723191  0.18644785  0.18442931  1
  Zn  Zn108  1  0.18216697  0.19041605  0.68577204  1
  Zn  Zn109  1  0.19547963  0.68174825  0.18927208  1
  Zn  Zn110  1  0.18775741  0.69317742  0.68764719  1
  Zn  Zn111  1  0.68538584  0.18650134  0.18440480  1
  Zn  Zn112  1  0.68382649  0.18862133  0.68705962  1
  Zn  Zn113  1  0.69039610  0.68860525  0.19154625  1
  Zn  Zn114  1  0.68844809  0.69145298  0.68882009  1
  Zn  Zn115  1  0.31088619  0.32161197  0.31041830  1
  Zn  Zn116  1  0.31087713  0.31128271  0.81267392  1
  Zn  Zn117  1  0.31386303  0.81183384  0.31262720  1
  Zn  Zn118  1  0.31226568  0.81456932  0.80716094  1
  Zn  Zn119  1  0.81662377  0.30604389  0.31396588  1
  Zn  Zn120  1  0.81217211  0.31335628  0.81332808  1
  Zn  Zn121  1  0.80773753  0.81050409  0.31166038  1
  Zn  Zn122  1  0.80512157  0.81707481  0.81710732  1
  Zn  Zn123  1  0.18672042  0.43480610  0.43326435  1
  Zn  Zn124  1  0.18807298  0.43594306  0.93424913  1
  Zn  Zn125  1  0.18999377  0.93542343  0.43896991  1
  Zn  Zn126  1  0.18932718  0.93568173  0.93696763  1
  Zn  Zn127  1  0.68835327  0.43898177  0.43679636  1
  Zn  Zn128  1  0.68647524  0.43993947  0.93837004  1
  Zn  Zn129  1  0.68704368  0.94025309  0.43840169  1
  Zn  Zn130  1  0.68513463  0.93747888  0.94319988  1
  Zn  Zn131  1  0.31641979  0.06205945  0.05827731  1
  Zn  Zn132  1  0.31252869  0.06708064  0.56272312  1
  Zn  Zn133  1  0.30685042  0.55564477  0.06979426  1
  Zn  Zn134  1  0.32847629  0.57785911  0.53078647  1
  Zn  Zn135  1  0.80877280  0.06688066  0.05581502  1
  Zn  Zn136  1  0.81075661  0.05918633  0.56107606  1
  Zn  Zn137  1  0.81049136  0.56292464  0.06549839  1
  Zn  Zn138  1  0.81693090  0.55715276  0.56359708  1
  Zn  Zn139  1  0.43715746  0.43729388  0.18629283  1
  Zn  Zn140  1  0.43876424  0.43469484  0.68359689  1
  Zn  Zn141  1  0.44779134  0.93493930  0.19579696  1
  Zn  Zn142  1  0.43490686  0.93765637  0.68974215  1
  Zn  Zn143  1  1.06218072  0.43525331  0.18453322  1
  Zn  Zn144  1  0.93555920  0.44280151  0.68641190  1
  Zn  Zn145  1  0.93990351  0.93689392  0.18693953  1
  Zn  Zn146  1  0.93850159  0.93801454  0.68906469  1
  Zn  Zn147  1  0.06168138  0.05952303  0.30846841  1
  Zn  Zn148  1  0.06339433  0.05964742  0.81082751  1
  Zn  Zn149  1  0.06315670  0.56352730  0.31430914  1
  Zn  Zn150  1  0.06850939  0.55537082  0.81899715  1
  Zn  Zn151  1  0.56171921  0.06335144  0.31103448  1
  Zn  Zn152  1  0.55718977  0.06287777  0.81118134  1
  Zn  Zn153  1  0.56925041  0.56465664  0.31307148  1
  Zn  Zn154  1  0.56320830  0.56415547  0.81310974  1
  Zn  Zn155  1  0.43817324  0.18937969  0.43610113  1
  Zn  Zn156  1  0.43240093  0.18797347  0.93376470  1
  Zn  Zn157  1  0.44726069  0.68001020  0.42238780  1
  Zn  Zn158  1  0.43599322  0.68808113  0.94096147  1
  Zn  Zn159  1  0.93159492  0.18761333  0.43658398  1
  Zn  Zn160  1  0.93555540  0.18778178  0.93521122  1
  Zn  Zn161  1  0.93941534  0.68932860  0.43829867  1
  Zn  Zn162  1  0.94155830  0.69133389  0.96202620  1
  Zn  Zn163  1  0.05566142  0.30086802  0.05119625  1
  Zn  Zn164  1  0.06253243  0.31334794  0.56333430  1
  Zn  Zn165  1  0.06522466  0.81061456  0.05604577  1
  Zn  Zn166  1  0.06203537  0.81434309  0.56373880  1
  Zn  Zn167  1  0.55952699  0.32224365  0.06834761  1
  Zn  Zn168  1  0.56446990  0.30829835  0.56275125  1
  Zn  Zn169  1  0.55952409  0.81568416  0.06787066  1
  Zn  Zn170  1  0.56483842  0.81213775  0.55737134  1
  O  O171  1  0.12025723  0.11627221  0.11510257  1
  O  O172  1  0.11567460  0.12265264  0.61771041  1
  O  O173  1  0.12084207  0.63111613  0.11333840  1
  O  O174  1  0.11121983  0.62607276  0.63115364  1
  O  O175  1  0.62184923  0.11366652  0.12164897  1
  O  O176  1  0.61596873  0.12418864  0.61848786  1
  O  O177  1  0.62682599  0.61456518  0.12281531  1
  O  O178  1  0.62255711  0.62338468  0.62066234  1
  O  O179  1  0.38548827  0.36747608  0.38583313  1
  O  O180  1  0.37400337  0.38270476  0.88134255  1
  O  O181  1  0.38743984  0.88189873  0.37250011  1
  O  O182  1  0.38001063  0.88685357  0.87115731  1
  O  O183  1  0.88098419  0.38061481  0.38028948  1
  O  O184  1  0.88126527  0.37756755  0.88138699  1
  O  O185  1  0.88040498  0.87857921  0.38152382  1
  O  O186  1  0.88000792  0.88263575  0.87770149  1
  O  O187  1  0.25803472  -0.00180966  0.36621739  1
  O  O188  1  0.26267457  0.00692647  0.88026333  1
  O  O189  1  0.24105074  0.50015030  0.36169586  1
  O  O190  1  0.26058349  0.50494774  0.86428393  1
  O  O191  1  0.75894882  0.01054043  0.38126608  1
  O  O192  1  0.75416371  -0.00163213  0.86427735  1
  O  O193  1  0.76138881  0.51302826  0.38475893  1
  O  O194  1  0.75169276  0.49946010  0.86186699  1
  O  O195  1  0.24385997  0.49254157  0.13767144  1
  O  O196  1  0.25244504  0.50034831  0.63549658  1
  O  O197  1  0.24622131  0.99281719  0.12749660  1
  O  O198  1  0.25046715  0.98895555  0.62075565  1
  O  O199  1  0.73335175  0.49747036  0.12055521  1
  O  O200  1  0.74630383  0.48956271  0.63386055  1
  O  O201  1  0.73628892  0.99970143  0.11680621  1
  O  O202  1  0.75218265  0.98939080  0.63715916  1
  O  O203  1  -0.00021193  0.36619490  0.26192807  1
  O  O204  1  0.00245142  0.37133172  0.75288860  1
  O  O205  1  0.01092260  0.87878956  0.25763307  1
  O  O206  1  0.00370553  0.87380670  0.76135346  1
  O  O207  1  0.50770018  0.36941234  0.25667550  1
  O  O208  1  0.50865063  0.36618605  0.75006002  1
  O  O209  1  0.50809994  0.86648777  0.26371304  1
  O  O210  1  0.50437362  0.87069279  0.75859581  1
  O  O211  1  0.48983546  0.13389786  0.24761250  1
  O  O212  1  0.50436394  0.13811828  0.74052991  1
  O  O213  1  0.48168094  0.63344221  0.29971982  1
  O  O214  1  0.49644476  0.63238353  0.74162490  1
  O  O215  1  0.99796377  0.12947041  0.23895311  1
  O  O216  1  0.99559549  0.13216557  0.74436204  1
  O  O217  1  0.99444866  0.62001880  0.23895358  1
  O  O218  1  0.99953146  0.62433698  0.74675367  1
  O  O219  1  0.36582121  0.25448342  0.00521183  1
  O  O220  1  0.36872897  0.25630693  0.50591458  1
  O  O221  1  0.36510225  0.74471110  0.01333468  1
  O  O222  1  0.36829087  0.74939044  0.50927129  1
  O  O223  1  0.87886552  0.25942002  0.00653971  1
  O  O224  1  0.86633957  0.26218392  0.49816687  1
  O  O225  1  0.86270515  0.75841823  0.00293561  1
  O  O226  1  0.87747221  0.76285991  0.50670587  1
  O  O227  1  0.12873235  0.24295245  0.49367858  1
  O  O228  1  0.13655192  0.23665090  0.99676503  1
  O  O229  1  0.13139524  0.76236334  0.48811727  1
  O  O230  1  0.13879539  0.74096797  0.99486273  1
  O  O231  1  0.63929832  0.24063161  0.50480766  1
  O  O232  1  0.62042867  0.26148718  0.98606648  1
  O  O233  1  0.62665724  0.74114606  0.48985064  1
  O  O234  1  0.62779332  0.74566905  0.99785625  1
  O  O235  1  0.49103621  0.25211541  0.13402891  1
  O  O236  1  0.49374158  0.24359217  0.63213989  1
  O  O237  1  0.48491816  0.75025786  0.12788499  1
  O  O238  1  0.49412152  0.74841439  0.62782203  1
  O  O239  1  0.99159649  0.23833873  0.12936492  1
  O  O240  1  1.00002068  0.23784205  0.63018636  1
  O  O241  1  0.99570438  0.73465506  0.11144117  1
  O  O242  1  0.99059494  0.74355482  0.62210973  1
  O  O243  1  0.00195701  0.25277343  0.36630498  1
  O  O244  1  -0.00272576  0.26395370  0.86722325  1
  O  O245  1  0.00638838  0.76547299  0.38079551  1
  O  O246  1  -0.00514270  0.74901171  0.86638593  1
  O  O247  1  0.49696353  0.25822885  0.36128958  1
  O  O248  1  0.50590580  0.25197784  0.86799948  1
  O  O249  1  0.50963492  0.76645404  0.38268176  1
  O  O250  1  0.50195239  0.75820816  0.87209547  1
  O  O251  1  0.24146766  0.13227799  0.49635161  1
  O  O252  1  0.24346120  0.12964042  0.99346876  1
  O  O253  1  0.23577202  0.64300548  0.50960169  1
  O  O254  1  0.24648272  0.62797743  0.99653389  1
  O  O255  1  0.74639961  0.13218962  0.49635126  1
  O  O256  1  0.75638518  0.13671150  0.98844305  1
  O  O257  1  0.74260398  0.62107103  0.49991509  1
  O  O258  1  0.73911975  0.63718957  1.00398831  1
  O  O259  1  0.25685556  0.36538089  -0.00347707  1
  O  O260  1  0.25768255  0.36809176  0.50068157  1
  O  O261  1  0.24617553  0.86424891  0.00955772  1
  O  O262  1  0.24654263  0.86732265  0.51557484  1
  O  O263  1  0.76061840  0.37145191  -0.00198269  1
  O  O264  1  0.75488136  0.36861448  0.50639027  1
  O  O265  1  0.76127240  0.86790696  0.00053318  1
  O  O266  1  0.75956105  0.88212137  0.51095420  1
  O  O267  1  0.12973785  0.49878666  0.25050809  1
  O  O268  1  0.13492960  0.49406680  0.74693450  1
  O  O269  1  0.13214985  0.99321635  0.23821866  1
  O  O270  1  0.12009477  0.98327207  0.74841345  1
  O  O271  1  0.62580115  0.49356634  0.24272744  1
  O  O272  1  0.63255650  0.49306848  0.74747343  1
  O  O273  1  0.61532897  1.00192279  0.22938322  1
  O  O274  1  0.63094726  0.99542700  0.74856053  1
  O  O275  1  0.37256388  0.00915199  0.25335157  1
  O  O276  1  0.38072732  0.00410433  0.76743823  1
  O  O277  1  0.35712128  0.48662744  0.24886612  1
  O  O278  1  0.37051359  0.50414903  0.75386967  1
  O  O279  1  0.87969019  -0.00014958  0.26350667  1
  O  O280  1  0.86727263  0.00532391  0.75810972  1
  O  O281  1  0.87803098  0.51124952  0.26504218  1
  O  O282  1  0.86037261  0.49941206  0.75311080  1
  O  O283  1  0.11341134  0.35726156  0.38257003  1
  O  O284  1  0.11617665  0.38022464  0.86031061  1
  O  O285  1  0.11896949  0.87203894  0.36476845  1
  O  O286  1  0.11699369  0.87253092  0.87128332  1
  O  O287  1  0.61732158  0.37937313  0.36729957  1
  O  O288  1  0.62129273  0.37064048  0.86533529  1
  O  O289  1  0.61955038  0.86973084  0.37857760  1
  O  O290  1  0.61509033  0.86695582  0.87300264  1
  O  O291  1  0.37613076  0.13660166  0.13018730  1
  O  O292  1  0.38202504  0.13788663  0.61980536  1
  O  O293  1  0.37707979  0.63023359  0.12466044  1
  O  O294  1  0.38361768  0.63365460  0.62378815  1
  O  O295  1  0.88333024  0.12779050  0.12380886  1
  O  O296  1  0.87979279  0.11892726  0.63754983  1
  O  O297  1  0.88274121  0.62557995  0.13353511  1
  O  O298  1  0.88100322  0.63784287  0.62046655  1
  O  O299  1  0.25511244  0.25097932  0.11522895  1
  O  O300  1  0.25643572  0.25023245  0.61895305  1
  O  O301  1  0.26062489  0.75520065  0.11947966  1
  O  O302  1  0.25806637  0.75920682  0.61993274  1
  O  O303  1  0.76331219  0.25157346  0.12628518  1
  O  O304  1  0.74783031  0.26227449  0.62104657  1
  O  O305  1  0.75220240  0.75418177  0.11762584  1
  O  O306  1  0.75854490  0.76319168  0.63157524  1
  O  O307  1  0.24067258  0.24853249  0.37827602  1
  O  O308  1  0.25576377  0.23449340  0.88163399  1
  O  O309  1  0.24258468  0.75183167  0.38344248  1
  O  O310  1  0.25642442  0.74381474  0.88298162  1
  O  O311  1  0.75642594  0.23882679  0.38696585  1
  O  O312  1  0.73133186  0.25242507  0.87082635  1
  O  O313  1  0.74548172  0.73715424  0.38014667  1
  O  O314  1  0.73643388  0.75592014  0.88577961  1
  O  O315  1  0.01141707  0.13078464  0.00525702  1
  O  O316  1  0.00069579  0.12193877  0.50615062  1
  O  O317  1  0.01145825  0.61448578  0.00462498  1
  O  O318  1  -0.00390489  0.61527970  0.50754581  1
  O  O319  1  0.49659147  0.11536436  -0.00121890  1
  O  O320  1  0.51051309  0.13561919  0.50846077  1
  O  O321  1  0.51286448  0.62441818  -0.00125106  1
  O  O322  1  0.51514483  0.62304068  0.50680572  1
  O  O323  1  0.49714754  0.36988991  0.49087690  1
  O  O324  1  0.48355779  0.37742091  0.99793870  1
  O  O325  1  0.50449616  0.88192346  0.48792910  1
  O  O326  1  0.49917857  0.88230920  0.98980212  1
  O  O327  1  0.99179404  0.37580559  0.49189857  1
  O  O328  1  0.99154655  0.37971711  0.99058649  1
  O  O329  1  0.99288374  0.88276486  0.49465645  1
  O  O330  1  0.98717864  0.86369159  0.98383529  1
  O  O331  1  0.49788536  0.48647203  0.37596254  1
  O  O332  1  0.48667666  0.49949515  0.87444019  1
  O  O333  1  0.49293168  0.98893727  0.36907770  1
  O  O334  1  0.49264252  0.99600275  0.88285739  1
  O  O335  1  0.99492898  0.49081222  0.38065565  1
  O  O336  1  0.99577769  0.49006786  0.88289756  1
  O  O337  1  0.99489948  0.99073279  0.38010749  1
  O  O338  1  0.98969682  0.99199240  0.87181788  1
  O  O339  1  0.00875484  0.00953827  0.12604216  1
  O  O340  1  -0.00086102  0.01132237  0.61903309  1
  O  O341  1  0.00189846  0.50951462  0.11207123  1
  O  O342  1  -0.00138556  0.51089089  0.61744774  1
  O  O343  1  0.49992840  0.00300667  0.11230293  1
  O  O344  1  0.49692091  0.01456888  0.63037679  1
  O  O345  1  0.51789968  0.49332170  0.12481149  1
  O  O346  1  0.51008916  0.50812006  0.62750657  1
  O  O347  1  0.24032802  0.38270446  0.24805637  1
  O  O348  1  0.24233106  0.38146260  0.74930271  1
  O  O349  1  0.24372998  0.88003032  0.24093782  1
  O  O350  1  0.24414200  0.87369533  0.73457931  1
  O  O351  1  0.73974826  0.36857554  0.25526236  1
  O  O352  1  0.74357780  0.38002892  0.74428385  1
  O  O353  1  0.74110086  0.87169588  0.24895216  1
  O  O354  1  0.74205681  0.88239522  0.74497877  1
  O  O355  1  0.26095121  0.12038015  0.24970727  1
  O  O356  1  0.24139413  0.12843902  0.76390753  1
  O  O357  1  0.24976412  0.60772058  0.25385168  1
  O  O358  1  0.25602522  0.61922218  0.75267601  1
  O  O359  1  0.75138843  0.13146919  0.26293486  1
  O  O360  1  0.75583174  0.11918792  0.75157381  1
  O  O361  1  0.76098183  0.62584286  0.26174435  1
  O  O362  1  0.74554135  0.61015767  0.74607325  1
  O  O363  1  0.37516443  0.11905051  0.36569189  1
  O  O364  1  0.36097089  0.11538077  0.87683932  1
  O  O365  1  0.35763788  0.61085943  0.41588125  1
  O  O366  1  0.37137229  0.61869945  0.86806563  1
  O  O367  1  0.86703972  0.11480459  0.37408797  1
  O  O368  1  0.87746939  0.11781263  0.86188554  1
  O  O369  1  0.87247800  0.62085203  0.37211704  1
  O  O370  1  0.88762195  0.63368612  0.86744746  1
  O  O371  1  0.11603342  0.36727234  0.11540713  1
  O  O372  1  0.12578526  0.37874578  0.63668428  1
  O  O373  1  0.12851850  0.87950276  0.12827415  1
  O  O374  1  0.13457448  0.87739096  0.63097953  1
  O  O375  1  0.63120829  0.38386105  0.13583294  1
  O  O376  1  0.63102760  0.37811708  0.63530044  1
  O  O377  1  0.62443956  0.89014262  0.12417369  1
  O  O378  1  0.63236879  0.87534591  0.63008705  1
  O  O379  1  0.11260657  0.24113737  0.25624801  1
  O  O380  1  0.10971981  0.25794592  0.74693463  1
  O  O381  1  0.13271761  0.76175472  0.25361539  1
  O  O382  1  0.12880676  0.76532345  0.75498338  1
  O  O383  1  0.61503475  0.25938648  0.24264453  1
  O  O384  1  0.61759348  0.25834125  0.75679477  1
  O  O385  1  0.62127763  0.74279357  0.26820681  1
  O  O386  1  0.61886895  0.75483588  0.75971757  1
  O  O387  1  0.37792343  0.24588139  0.24299231  1
  O  O388  1  0.38383010  0.25504551  0.74260273  1
  O  O389  1  0.37119876  0.74915613  0.23457641  1
  O  O390  1  0.38000740  0.74371368  0.73968865  1
  O  O391  1  0.88758936  0.24655654  0.24162252  1
  O  O392  1  0.88541708  0.24241393  0.75340091  1
  O  O393  1  0.87812168  0.73715246  0.25231671  1
  O  O394  1  0.87322151  0.74880388  0.74559891  1
  O  O395  1  0.38401934  0.47922904  0.51558639  1
  O  O396  1  0.37230388  0.49294524  0.99309874  1
  O  O397  1  0.37112338  1.00700490  0.48477108  1
  O  O398  1  0.38887722  1.00121617  0.99015667  1
  O  O399  1  0.88486420  0.48861489  0.49350149  1
  O  O400  1  0.88202342  0.49466042  0.99743850  1
  O  O401  1  0.88084855  0.99108228  0.49232165  1
  O  O402  1  0.87058350  0.99309743  0.98579705  1
  O  O403  1  0.12980407  0.00379784  0.01154040  1
  O  O404  1  0.11719277  0.00765394  0.49907601  1
  O  O405  1  0.11843067  0.50818172  -0.00798871  1
  O  O406  1  0.10922382  0.48979347  0.50209809  1
  O  O407  1  0.60811152  -0.00290536  0.00679095  1
  O  O408  1  0.63171136  0.01628941  0.50668995  1
  O  O409  1  0.62179081  0.50789812  0.00669262  1
  O  O410  1  0.62520951  0.50635929  0.50977446  1
  O  O411  1  0.37068416  0.36367446  0.11722784  1
  O  O412  1  0.37475687  0.36080201  0.61915786  1
  O  O413  1  0.36755840  0.87663997  0.12891768  1
  O  O414  1  0.36457811  0.86973313  0.62930373  1
  O  O415  1  0.87436727  0.36481994  0.11355781  1
  O  O416  1  0.86695961  0.37990279  0.61586069  1
  O  O417  1  0.87627330  0.87633043  0.11463841  1
  O  O418  1  0.87124415  0.86703135  0.61962372  1
  O  O419  1  0.12275582  0.13353234  0.37967735  1
  O  O420  1  0.13749969  0.11193721  0.88468261  1
  O  O421  1  0.12115368  0.64359071  0.37255006  1
  O  O422  1  0.13417174  0.62726025  0.88366349  1
  O  O423  1  0.63254944  0.12060005  0.38243430  1
  O  O424  1  0.62166279  0.14149075  0.87004207  1
  O  O425  1  0.63715959  0.62816147  0.38516588  1
  O  O426  1  0.61960119  0.63790058  0.88330254  1
