# generated using pymatgen
data_V85Zn86O256
_symmetry_space_group_name_H-M   'P 1'
_cell_length_a   16.92826478
_cell_length_b   16.91856628
_cell_length_c   16.93526489
_cell_angle_alpha   89.96737191
_cell_angle_beta   90.01035604
_cell_angle_gamma   89.92573913
_symmetry_Int_Tables_number   1
_chemical_formula_structural   V85Zn86O256
_chemical_formula_sum   'V85 Zn86 O256'
_cell_volume   4850.28828255
_cell_formula_units_Z   1
loop_
 _symmetry_equiv_pos_site_id
 _symmetry_equiv_pos_as_xyz
  1  'x, y, z'
loop_
 _atom_site_type_symbol
 _atom_site_label
 _atom_site_symmetry_multiplicity
 _atom_site_fract_x
 _atom_site_fract_y
 _atom_site_fract_z
 _atom_site_occupancy
  V  V0  1  0.12472701  0.50314240  0.62766249  1
  V  V1  1  0.50180281  0.74983701  0.75379541  1
  V  V2  1  0.76316404  0.12520966  0.37841961  1
  V  V3  1  -0.00146489  0.50166240  0.50189755  1
  V  V4  1  0.37437132  0.62469700  0.25498422  1
  V  V5  1  0.73880280  0.74744790  0.49017132  1
  V  V6  1  0.50359421  0.62039159  0.11808928  1
  V  V7  1  0.62566075  0.87687351  0.25355427  1
  V  V8  1  0.00418507  0.00649471  0.01363605  1
  V  V9  1  0.86842678  0.52029144  0.87298129  1
  V  V10  1  0.25758543  0.37065006  0.12987292  1
  V  V11  1  -0.00407146  0.88104946  0.87485774  1
  V  V12  1  0.49809786  0.25478131  0.24703311  1
  V  V13  1  -0.00136606  0.24972666  0.75093844  1
  V  V14  1  0.25465525  0.36833343  0.62722717  1
  V  V15  1  -0.00390262  -0.00327296  0.49539064  1
  V  V16  1  -0.00771941  0.37636356  0.88054588  1
  V  V17  1  0.74544650  0.25997381  0.00567522  1
  V  V18  1  0.37912129  0.50096396  0.38496466  1
  V  V19  1  0.25741673  0.24941436  0.00493655  1
  V  V20  1  0.62974241  0.24888357  0.36281966  1
  V  V21  1  -0.00247900  0.23556089  0.24857168  1
  V  V22  1  0.37371824  0.00273150  0.37278910  1
  V  V23  1  -0.01495926  0.74785703  0.74792748  1
  V  V24  1  0.00138255  0.63020414  0.13548359  1
  V  V25  1  0.12595416  0.37511028  0.75254698  1
  V  V26  1  0.62476403  0.48895978  0.12158141  1
  V  V27  1  0.87268866  0.25001022  0.61967451  1
  V  V28  1  0.12281011  0.12592054  0.01611116  1
  V  V29  1  0.62464230  0.36991231  0.75202560  1
  V  V30  1  0.37615415  0.75030064  0.12634610  1
  V  V31  1  0.37579115  0.87626847  -0.00007746  1
  V  V32  1  0.62467911  0.12755359  -0.00711337  1
  V  V33  1  0.74969474  0.37505764  0.62723586  1
  V  V34  1  0.75213972  -0.00206063  0.74951248  1
  V  V35  1  0.36553177  0.87785609  0.50303179  1
  V  V36  1  0.37592766  0.00266218  0.87271315  1
  V  V37  1  0.62094458  0.49924572  0.61723676  1
  V  V38  1  0.12618256  0.87306172  0.74420200  1
  V  V39  1  0.87896969  0.75221517  0.13174858  1
  V  V40  1  0.62345718  0.87168412  0.75037387  1
  V  V41  1  0.37419733  0.62282855  0.75095205  1
  V  V42  1  0.25025125  0.75127241  0.00007507  1
  V  V43  1  0.75044653  0.87699676  0.11790248  1
  V  V44  1  0.38138614  0.36548014  0.50369202  1
  V  V45  1  0.74550909  0.13722617  0.87071273  1
  V  V46  1  0.24878593  0.74160005  0.49099556  1
  V  V47  1  0.12577927  0.36790995  0.25785743  1
  V  V48  1  0.62698028  0.13207254  0.49752098  1
  V  V49  1  0.12318252  0.13348838  0.49809947  1
  V  V50  1  0.12511703  0.62420271  0.00221868  1
  V  V51  1  0.51086792  0.74690269  0.25107001  1
  V  V52  1  0.00346733  0.36979854  0.37671048  1
  V  V53  1  0.24909680  0.62321443  0.87595628  1
  V  V54  1  0.76447045  0.00261076  0.25632758  1
  V  V55  1  0.74646925  0.48736677  0.24357745  1
  V  V56  1  0.49355417  0.13363834  0.62488822  1
  V  V57  1  0.62511334  0.00102444  0.62097814  1
  V  V58  1  -0.00243866  0.86570022  0.37238422  1
  V  V59  1  0.24404866  0.88024549  0.12320431  1
  V  V60  1  0.87121645  0.50564310  0.37227691  1
  V  V61  1  0.12927434  -0.00157107  0.62125750  1
  V  V62  1  0.24730047  0.13376063  0.37507177  1
  V  V63  1  0.36641963  0.75501687  0.62651278  1
  V  V64  1  0.63019765  0.62819239  -0.00954707  1
  V  V65  1  0.49629982  0.62134121  0.61682972  1
  V  V66  1  0.12427213  0.24920984  0.88065055  1
  V  V67  1  0.12311180  0.86972187  0.25093598  1
  V  V68  1  0.12385540  0.75083910  0.87261780  1
  V  V69  1  0.50172428  0.00049640  -0.00055148  1
  V  V70  1  0.12361504  0.49744997  0.12740698  1
  V  V71  1  -0.01589386  0.62710958  0.62949833  1
  V  V72  1  0.50836335  0.37860404  0.37628288  1
  V  V73  1  0.75477217  0.86589530  0.62484172  1
  V  V74  1  0.37851556  0.38245000  0.00285608  1
  V  V75  1  0.62572255  0.00456889  0.12445545  1
  V  V76  1  0.86841920  0.37484209  0.49916410  1
  V  V77  1  0.87382816  0.12529129  0.74693972  1
  V  V78  1  0.50507760  0.37620873  0.88046841  1
  V  V79  1  0.49360435  0.13092343  0.12482449  1
  V  V80  1  0.24997212  0.50299163  0.25966699  1
  V  V81  1  0.24540400  0.00185539  0.24648319  1
  V  V82  1  0.24974485  -0.00280546  0.74787020  1
  V  V83  1  0.87437130  0.86862460  0.49747628  1
  V  V84  1  0.50068700  0.87376253  0.37568014  1
  Zn  Zn85  1  0.25026326  0.49830396  0.75331360  1
  Zn  Zn86  1  0.37821995  0.50296386  0.88196666  1
  Zn  Zn87  1  -0.00411652  0.49982398  0.00341101  1
  Zn  Zn88  1  0.75038137  0.51624078  0.75065671  1
  Zn  Zn89  1  0.86616267  0.38120310  0.00668407  1
  Zn  Zn90  1  0.61361642  0.62216039  0.48950882  1
  Zn  Zn91  1  0.24873274  0.25133602  0.50034060  1
  Zn  Zn92  1  0.49271943  0.25233693  0.75178148  1
  Zn  Zn93  1  -0.00070925  0.12330656  0.62415573  1
  Zn  Zn94  1  0.12331982  0.73744412  0.36641951  1
  Zn  Zn95  1  0.87906179  0.00562733  0.87794161  1
  Zn  Zn96  1  0.37233208  0.12983562  0.24464681  1
  Zn  Zn97  1  0.36757627  0.13223211  0.74405419  1
  Zn  Zn98  1  0.75494791  0.74042693  -0.00372297  1
  Zn  Zn99  1  0.73216416  0.63069013  0.36204568  1
  Zn  Zn100  1  0.50508937  0.87196728  0.87823513  1
  Zn  Zn101  1  0.12597149  0.62185785  0.49519648  1
  Zn  Zn102  1  0.87847094  0.24844827  0.12811866  1
  Zn  Zn103  1  0.24920423  0.12617180  0.87514983  1
  Zn  Zn104  1  0.87322236  0.62711301  0.25075159  1
  Zn  Zn105  1  0.49936677  0.00030299  0.49899531  1
  Zn  Zn106  1  0.88038803  0.87745620  0.00385095  1
  Zn  Zn107  1  0.18583909  0.19110436  0.19132237  1
  Zn  Zn108  1  0.18583386  0.18579808  0.68827086  1
  Zn  Zn109  1  0.19052992  0.68712032  0.18849386  1
  Zn  Zn110  1  0.18645814  0.68762354  0.68504159  1
  Zn  Zn111  1  0.71901756  0.17175810  0.17233085  1
  Zn  Zn112  1  0.68613400  0.19067633  0.68441666  1
  Zn  Zn113  1  0.69174944  0.68403418  0.18327179  1
  Zn  Zn114  1  0.68364698  0.68640833  0.67874886  1
  Zn  Zn115  1  0.31963101  0.31374865  0.31424967  1
  Zn  Zn116  1  0.31642280  0.31079259  0.81516058  1
  Zn  Zn117  1  0.31377192  0.81358102  0.31183958  1
  Zn  Zn118  1  0.31253370  0.81481278  0.81287285  1
  Zn  Zn119  1  0.81554264  0.31039477  0.31335145  1
  Zn  Zn120  1  0.81145696  0.31631733  0.81077632  1
  Zn  Zn121  1  0.81448350  0.81524132  0.31248420  1
  Zn  Zn122  1  0.79814701  0.70143058  0.81634725  1
  Zn  Zn123  1  0.18945529  0.43803015  0.44137119  1
  Zn  Zn124  1  0.18848126  0.43639878  0.93993950  1
  Zn  Zn125  1  0.18601623  0.93664182  0.43418597  1
  Zn  Zn126  1  0.18347525  0.94080612  0.93507554  1
  Zn  Zn127  1  0.68922992  0.43827485  0.43442205  1
  Zn  Zn128  1  0.68371340  0.44705735  0.93574940  1
  Zn  Zn129  1  0.68790470  0.93947646  0.43667889  1
  Zn  Zn130  1  0.73075899  0.88323478  0.89606811  1
  Zn  Zn131  1  0.31124326  0.06332974  0.06058632  1
  Zn  Zn132  1  0.30969695  0.06200428  0.56039480  1
  Zn  Zn133  1  0.31060412  0.56168654  0.06914593  1
  Zn  Zn134  1  0.31130895  0.55936059  0.56602990  1
  Zn  Zn135  1  0.81840830  0.06794347  0.06217640  1
  Zn  Zn136  1  0.81351690  0.05891927  0.55911399  1
  Zn  Zn137  1  0.81186355  0.56087076  0.06398766  1
  Zn  Zn138  1  0.80684492  0.56277454  0.56111389  1
  Zn  Zn139  1  0.44102822  0.43753153  0.19088559  1
  Zn  Zn140  1  0.43867861  0.43733158  0.68946535  1
  Zn  Zn141  1  0.43595793  0.93993713  0.18689773  1
  Zn  Zn142  1  0.43839469  0.94040615  0.68499821  1
  Zn  Zn143  1  0.93496430  0.43105694  0.18743912  1
  Zn  Zn144  1  0.93644981  0.44050470  0.69323783  1
  Zn  Zn145  1  0.94003479  0.93784000  0.18971395  1
  Zn  Zn146  1  0.93833996  0.93542461  0.68321550  1
  Zn  Zn147  1  0.06625715  0.05513900  0.31703363  1
  Zn  Zn148  1  0.06388879  0.06520033  0.81390718  1
  Zn  Zn149  1  0.06203622  0.55972057  0.31663815  1
  Zn  Zn150  1  0.05769442  0.56236433  0.81330532  1
  Zn  Zn151  1  0.56373167  0.06452550  0.31047631  1
  Zn  Zn152  1  0.56225761  0.05975097  0.80898801  1
  Zn  Zn153  1  0.56506707  0.55906869  0.30874278  1
  Zn  Zn154  1  0.56148351  0.55493034  0.80774562  1
  Zn  Zn155  1  0.44112765  0.18840621  0.43590371  1
  Zn  Zn156  1  0.43737522  0.19216108  0.93330153  1
  Zn  Zn157  1  0.43550773  0.69183566  0.43448623  1
  Zn  Zn158  1  0.43990544  0.68730141  0.93707051  1
  Zn  Zn159  1  0.94161758  0.18948129  0.43743808  1
  Zn  Zn160  1  0.93250376  0.18629866  0.93938394  1
  Zn  Zn161  1  0.93551134  0.68831858  0.44287829  1
  Zn  Zn162  1  0.94243215  0.69310563  0.94729074  1
  Zn  Zn163  1  0.05989277  0.31269402  0.06843888  1
  Zn  Zn164  1  0.06025651  0.31519621  0.56521575  1
  Zn  Zn165  1  0.06232680  0.81379913  0.06337442  1
  Zn  Zn166  1  0.06238379  0.80921251  0.56442410  1
  Zn  Zn167  1  0.56432611  0.30723327  0.05784300  1
  Zn  Zn168  1  0.56678515  0.31197014  0.55675493  1
  Zn  Zn169  1  0.56573163  0.81064090  0.06286822  1
  Zn  Zn170  1  0.55791900  0.81252625  0.56524826  1
  O  O171  1  0.12985774  0.12644383  0.11528091  1
  O  O172  1  0.12242729  0.11624543  0.61669864  1
  O  O173  1  0.12181486  0.61817068  0.12365814  1
  O  O174  1  0.12286543  0.61186431  0.62315337  1
  O  O175  1  0.62177848  0.11911318  0.11771406  1
  O  O176  1  0.62128322  0.12026571  0.61626387  1
  O  O177  1  0.61779478  0.61773030  0.11953645  1
  O  O178  1  0.61276540  0.61767502  0.61667287  1
  O  O179  1  0.38410624  0.38197392  0.38396501  1
  O  O180  1  0.38036952  0.38011516  0.88670088  1
  O  O181  1  0.37975126  0.88583346  0.37888451  1
  O  O182  1  0.37602923  0.88633424  0.88093662  1
  O  O183  1  0.87928366  0.38243911  0.38362304  1
  O  O184  1  0.88485422  0.37417622  0.87953805  1
  O  O185  1  0.88432877  0.87459216  0.38252646  1
  O  O186  1  0.89290373  0.88214279  0.87942074  1
  O  O187  1  0.25728524  0.00642311  0.36803192  1
  O  O188  1  0.25678024  0.00194976  0.86739934  1
  O  O189  1  0.25991047  0.49347935  0.36494769  1
  O  O190  1  0.25137587  0.51049654  0.87520112  1
  O  O191  1  0.74885777  0.00644838  0.36454178  1
  O  O192  1  0.75696493  -0.00492002  0.85750239  1
  O  O193  1  0.75524486  0.50305447  0.36435133  1
  O  O194  1  0.76576211  0.50083037  0.87330598  1
  O  O195  1  0.24122815  0.49352920  0.13769360  1
  O  O196  1  0.24085302  0.49009452  0.62779411  1
  O  O197  1  0.25628083  0.99192314  0.13318946  1
  O  O198  1  0.23810277  1.00142993  0.63070583  1
  O  O199  1  0.74088116  0.49816021  0.13401206  1
  O  O200  1  0.74503561  0.48974004  0.62771133  1
  O  O201  1  0.74261150  0.99679744  0.13797984  1
  O  O202  1  0.74103395  0.99573117  0.62940478  1
  O  O203  1  0.01023267  0.37267150  0.26012627  1
  O  O204  1  0.00560116  0.36974255  0.76098135  1
  O  O205  1  0.01115101  0.88176126  0.25932019  1
  O  O206  1  0.00664168  0.86988906  0.75525773  1
  O  O207  1  0.49862306  0.36611388  0.26125200  1
  O  O208  1  0.50646384  0.37420920  0.75827342  1
  O  O209  1  0.50612800  0.86935891  0.25314307  1
  O  O210  1  0.50587370  0.86778088  0.74632598  1
  O  O211  1  0.49879311  0.13130657  0.24046628  1
  O  O212  1  0.50307783  0.12589687  0.73373085  1
  O  O213  1  0.49516491  0.63283508  0.24136658  1
  O  O214  1  0.49280852  0.63142641  0.74200253  1
  O  O215  1  1.00861421  0.13743548  0.26291061  1
  O  O216  1  0.99350687  0.13158325  0.74755925  1
  O  O217  1  0.99747966  0.61807518  0.23843697  1
  O  O218  1  1.00589484  0.63674999  0.74233778  1
  O  O219  1  0.36207243  0.25874954  -0.00290278  1
  O  O220  1  0.37339834  0.26189625  0.49658264  1
  O  O221  1  0.37029664  0.75654225  0.00482984  1
  O  O222  1  0.36535630  0.75666776  0.50526804  1
  O  O223  1  0.85451757  0.24737089  -0.00063597  1
  O  O224  1  0.88218552  0.25892980  0.51214208  1
  O  O225  1  0.87622095  0.75749718  0.01573983  1
  O  O226  1  0.86250564  0.76193209  0.49907755  1
  O  O227  1  0.12199783  0.23709980  0.50461575  1
  O  O228  1  0.13114277  0.24606148  0.99734258  1
  O  O229  1  0.14280624  0.75167126  0.50355950  1
  O  O230  1  0.13120988  0.74545878  0.99394395  1
  O  O231  1  0.62513355  0.23719142  0.48917580  1
  O  O232  1  0.63122423  0.23650825  0.99250652  1
  O  O233  1  0.63626524  0.75399092  0.50117559  1
  O  O234  1  0.62570225  0.73357361  1.00403940  1
  O  O235  1  0.50779092  0.24207721  0.13365419  1
  O  O236  1  0.50557373  0.23549104  0.62225330  1
  O  O237  1  0.49432595  0.74468180  0.13367773  1
  O  O238  1  0.48644301  0.74412876  0.63236648  1
  O  O239  1  1.00445697  0.24553440  0.14375035  1
  O  O240  1  0.99128446  0.25015989  0.63338372  1
  O  O241  1  0.99509695  0.74228382  0.12443136  1
  O  O242  1  1.00366573  0.73965310  0.63513067  1
  O  O243  1  -0.00048372  0.26359781  0.37081089  1
  O  O244  1  0.00402088  0.25671840  0.87329811  1
  O  O245  1  0.00313137  0.76122067  0.38241300  1
  O  O246  1  0.00707109  0.75875705  0.87031809  1
  O  O247  1  0.50844954  0.25641098  0.36854306  1
  O  O248  1  0.49736505  0.26834886  0.87250925  1
  O  O249  1  0.49219486  0.76498715  0.36408607  1
  O  O250  1  0.49279532  0.75307874  0.85850167  1
  O  O251  1  0.24259117  0.12850539  0.49367301  1
  O  O252  1  0.24304887  0.13360070  0.99901404  1
  O  O253  1  0.25241644  0.63873314  0.50348125  1
  O  O254  1  0.24542573  0.63047764  0.99734889  1
  O  O255  1  0.74282038  0.11667559  0.48554480  1
  O  O256  1  0.74135520  0.13047698  0.98778527  1
  O  O257  1  0.74785953  0.64114326  0.49919153  1
  O  O258  1  0.73544708  0.62403950  1.00238480  1
  O  O259  1  0.25535604  0.36936807  0.01083993  1
  O  O260  1  0.25828141  0.37180640  0.50792049  1
  O  O261  1  0.25242764  0.87341003  0.00602940  1
  O  O262  1  0.26113698  0.86774037  0.49528319  1
  O  O263  1  0.74625093  0.36081022  -0.01671791  1
  O  O264  1  0.76273309  0.37855000  0.50637787  1
  O  O265  1  0.75269246  0.88883983  0.01485925  1
  O  O266  1  0.75423862  0.86942967  0.50280583  1
  O  O267  1  0.13307733  0.49061248  0.24686521  1
  O  O268  1  0.12464692  0.49296538  0.74516885  1
  O  O269  1  0.13900328  0.98869909  0.25423433  1
  O  O270  1  0.12959719  0.99477049  0.74319077  1
  O  O271  1  0.63761363  0.49983222  0.23740860  1
  O  O272  1  0.62745572  0.49017776  0.73655409  1
  O  O273  1  0.62577052  0.99310321  0.24016782  1
  O  O274  1  0.63223763  0.99598839  0.73826853  1
  O  O275  1  0.36497232  0.00251721  0.25690559  1
  O  O276  1  0.36706931  0.00183556  0.75503110  1
  O  O277  1  0.36899455  0.50596558  0.25781300  1
  O  O278  1  0.37225670  0.51444889  0.75014072  1
  O  O279  1  0.86265225  -0.00008387  0.24961026  1
  O  O280  1  0.86790237  0.00842693  0.74323399  1
  O  O281  1  0.86583486  0.49946463  0.25605626  1
  O  O282  1  0.87430948  0.49935805  0.76934683  1
  O  O283  1  0.11691431  0.38192025  0.36961593  1
  O  O284  1  0.11849028  0.36632512  0.87352410  1
  O  O285  1  0.11972288  0.86853057  0.36709868  1
  O  O286  1  0.11762222  0.87252303  0.86387611  1
  O  O287  1  0.61838131  0.36399253  0.38231986  1
  O  O288  1  0.61422569  0.38369528  0.86754158  1
  O  O289  1  0.61626561  0.88199160  0.36223518  1
  O  O290  1  0.62121715  0.88404406  0.85368647  1
  O  O291  1  0.38989590  0.12139085  0.12311182  1
  O  O292  1  0.39084946  0.11692644  0.62231410  1
  O  O293  1  0.38259084  0.62768033  0.13471786  1
  O  O294  1  0.37751180  0.63074992  0.63304668  1
  O  O295  1  0.82965769  0.14579917  0.13857305  1
  O  O296  1  0.87399424  0.13441727  0.62640897  1
  O  O297  1  0.88506810  0.63194027  0.12367841  1
  O  O298  1  0.88512015  0.61742601  0.62564900  1
  O  O299  1  0.24694113  0.26028934  0.12005712  1
  O  O300  1  0.24161651  0.26469925  0.62438181  1
  O  O301  1  0.25752981  0.75729678  0.11923180  1
  O  O302  1  0.26143223  0.74891893  0.61733601  1
  O  O303  1  0.72933124  0.26586327  0.10462442  1
  O  O304  1  0.75786151  0.26438415  0.62755631  1
  O  O305  1  0.75623876  0.76103360  0.12083881  1
  O  O306  1  0.74461542  0.76234358  0.61140358  1
  O  O307  1  0.25503949  0.23713899  0.37433015  1
  O  O308  1  0.24008062  0.25206892  0.88679497  1
  O  O309  1  0.25292802  0.75127545  0.38829189  1
  O  O310  1  0.24518401  0.74366892  0.88033041  1
  O  O311  1  0.74546519  0.23425024  0.36766785  1
  O  O312  1  0.74799217  0.23941918  0.87378300  1
  O  O313  1  0.75111473  0.75073118  0.38630465  1
  O  O314  1  0.75756258  0.77452934  0.88842368  1
  O  O315  1  0.00625033  0.11579647  -0.00186650  1
  O  O316  1  0.00634964  0.11497273  0.49922029  1
  O  O317  1  0.01072616  0.62205161  0.01222836  1
  O  O318  1  0.00070771  0.61918379  0.51170601  1
  O  O319  1  0.50614476  0.12378894  0.00446666  1
  O  O320  1  0.50753685  0.12242735  0.50808702  1
  O  O321  1  0.50333164  0.62880099  0.01343353  1
  O  O322  1  0.49347193  0.63270166  0.51310622  1
  O  O323  1  0.49360734  0.37256419  0.49078753  1
  O  O324  1  0.49193072  0.37058472  0.99192571  1
  O  O325  1  0.49013879  0.87525772  0.49057987  1
  O  O326  1  0.49605737  0.88083499  0.99999632  1
  O  O327  1  0.99048982  0.38109187  0.49621472  1
  O  O328  1  1.00414415  0.37779917  0.99028701  1
  O  O329  1  0.99307409  0.87647742  0.49715753  1
  O  O330  1  1.00675464  0.88936815  0.99326292  1
  O  O331  1  0.49247158  0.48763079  0.36670001  1
  O  O332  1  0.49381809  0.48370739  0.87095444  1
  O  O333  1  0.49182927  0.99128176  0.37273245  1
  O  O334  1  0.49209149  0.99802904  0.87999760  1
  O  O335  1  0.99001016  0.48907790  0.37989043  1
  O  O336  1  0.98858814  0.49424239  0.87806774  1
  O  O337  1  1.00831317  0.98547231  0.38956159  1
  O  O338  1  1.00147616  0.99538705  0.88091763  1
  O  O339  1  0.00222296  -0.00228959  0.11252588  1
  O  O340  1  0.01157615  -0.00079957  0.61493265  1
  O  O341  1  0.01320648  0.50347706  0.12702830  1
  O  O342  1  0.00583310  0.50524033  0.62415069  1
  O  O343  1  0.50702364  0.00766806  0.12139079  1
  O  O344  1  0.51215672  0.00822304  0.62245437  1
  O  O345  1  0.51345244  0.50890698  0.13474147  1
  O  O346  1  0.50660368  0.50986881  0.62859169  1
  O  O347  1  0.24672580  0.37876993  0.24716619  1
  O  O348  1  0.24390919  0.37735690  0.74569775  1
  O  O349  1  0.24755848  0.88202158  0.24270063  1
  O  O350  1  0.24128335  0.88703152  0.75435872  1
  O  O351  1  0.75246679  0.38829491  0.25533583  1
  O  O352  1  0.74291902  0.37964375  0.74283993  1
  O  O353  1  0.74312334  0.88564977  0.24613815  1
  O  O354  1  0.74106801  0.88276519  0.73690902  1
  O  O355  1  0.25066160  0.11908344  0.25606164  1
  O  O356  1  0.24759135  0.11174439  0.75243296  1
  O  O357  1  0.26145579  0.61489978  0.24513540  1
  O  O358  1  0.25714914  0.62601671  0.75737988  1
  O  O359  1  0.73901765  0.10818996  0.26706530  1
  O  O360  1  0.75069246  0.11849009  0.75319103  1
  O  O361  1  0.75464062  0.61311204  0.24839231  1
  O  O362  1  0.74658580  0.62999653  0.74910364  1
  O  O363  1  0.37031482  0.11420149  0.37628615  1
  O  O364  1  0.37300846  0.11281701  0.87533504  1
  O  O365  1  0.38384341  0.61698743  0.36302211  1
  O  O366  1  0.36875221  0.62478285  0.86892227  1
  O  O367  1  0.86190130  0.12666154  0.38235330  1
  O  O368  1  0.86372774  0.12379566  0.86557887  1
  O  O369  1  0.87671912  0.61253409  0.37533862  1
  O  O370  1  0.87789741  0.62288228  0.87870565  1
  O  O371  1  0.13394541  0.38157165  0.13435810  1
  O  O372  1  0.12887389  0.38425002  0.63178044  1
  O  O373  1  0.13810489  0.87179405  0.13056702  1
  O  O374  1  0.12088771  0.88134744  0.63712261  1
  O  O375  1  0.61639350  0.39071274  0.11766579  1
  O  O376  1  0.63159840  0.37921918  0.62728536  1
  O  O377  1  0.63074761  0.88236571  0.13362978  1
  O  O378  1  0.62915192  0.88455986  0.62732349  1
  O  O379  1  0.11840434  0.26201942  0.25297572  1
  O  O380  1  0.11968880  0.25446490  0.75989426  1
  O  O381  1  0.13447326  0.76419424  0.25055212  1
  O  O382  1  0.12360776  0.75856066  0.75451048  1
  O  O383  1  0.61666061  0.24232124  0.26105258  1
  O  O384  1  0.62144708  0.26598144  0.74344776  1
  O  O385  1  0.61612756  0.75852206  0.24173192  1
  O  O386  1  0.61235783  0.76028877  0.73646848  1
  O  O387  1  0.39152537  0.24607279  0.25507715  1
  O  O388  1  0.37717523  0.24434544  0.75078694  1
  O  O389  1  0.38171904  0.74282580  0.24600636  1
  O  O390  1  0.37661034  0.74326157  0.74351056  1
  O  O391  1  0.89497656  0.25201813  0.25510647  1
  O  O392  1  0.87786466  0.24620924  0.73989017  1
  O  O393  1  0.86988191  0.74789899  0.23763967  1
  O  O394  1  0.88729663  0.75340413  0.75446443  1
  O  O395  1  0.36975202  0.49583410  0.48778920  1
  O  O396  1  0.36938729  0.48688097  1.00433146  1
  O  O397  1  0.37536730  0.99328332  0.49217274  1
  O  O398  1  0.38036453  0.99545661  0.99281878  1
  O  O399  1  0.87785941  0.49412842  0.49295234  1
  O  O400  1  0.87600719  0.50001265  0.98782743  1
  O  O401  1  0.88583991  0.98728191  0.50510347  1
  O  O402  1  0.88936081  1.00239578  1.00005437  1
  O  O403  1  0.11461482  0.01224949  -0.00437608  1
  O  O404  1  0.12149608  0.00352661  0.50703950  1
  O  O405  1  0.12736796  0.50538639  0.01224745  1
  O  O406  1  0.11668456  0.49770673  0.51071641  1
  O  O407  1  0.61820771  0.00997061  0.01385169  1
  O  O408  1  0.62293064  0.00898293  0.50506059  1
  O  O409  1  0.62805530  0.51052841  0.01458886  1
  O  O410  1  0.63063922  0.49975643  0.51296032  1
  O  O411  1  0.36461298  0.38022535  0.12287541  1
  O  O412  1  0.36697629  0.38417852  0.61541624  1
  O  O413  1  0.36636015  0.87100712  0.11996538  1
  O  O414  1  0.37954631  0.86848744  0.61476397  1
  O  O415  1  0.88350193  0.36321762  0.11685361  1
  O  O416  1  0.86963576  0.37204685  0.62081691  1
  O  O417  1  0.86827316  0.87091334  0.12766690  1
  O  O418  1  0.86262258  0.87905301  0.61646700  1
  O  O419  1  0.13618028  0.11723962  0.38646486  1
  O  O420  1  0.12515408  0.13950288  0.88185400  1
  O  O421  1  0.12277875  0.62534070  0.38101637  1
  O  O422  1  0.12934558  0.62934024  0.88151812  1
  O  O423  1  0.62903609  0.13002510  0.38166908  1
  O  O424  1  0.63390343  0.11291697  0.88204318  1
  O  O425  1  0.61942747  0.62591038  0.37761547  1
  O  O426  1  0.61275325  0.61526488  0.89273087  1
