# generated using pymatgen
data_V85Zn86O256
_symmetry_space_group_name_H-M   'P 1'
_cell_length_a   16.94000328
_cell_length_b   16.93793705
_cell_length_c   16.93737963
_cell_angle_alpha   90.01185848
_cell_angle_beta   89.99367455
_cell_angle_gamma   89.94302788
_symmetry_Int_Tables_number   1
_chemical_formula_structural   V85Zn86O256
_chemical_formula_sum   'V85 Zn86 O256'
_cell_volume   4859.81793851
_cell_formula_units_Z   1
loop_
 _symmetry_equiv_pos_site_id
 _symmetry_equiv_pos_as_xyz
  1  'x, y, z'
loop_
 _atom_site_type_symbol
 _atom_site_label
 _atom_site_symmetry_multiplicity
 _atom_site_fract_x
 _atom_site_fract_y
 _atom_site_fract_z
 _atom_site_occupancy
  V  V0  1  0.24746252  0.74339566  -0.00532212  1
  V  V1  1  0.00137091  0.37452031  0.37767771  1
  V  V2  1  0.74628374  0.00773186  0.74578054  1
  V  V3  1  0.50043937  0.12477436  0.12555572  1
  V  V4  1  0.00009399  0.50563427  0.50872003  1
  V  V5  1  0.87582870  0.87278199  0.50007967  1
  V  V6  1  0.88699676  0.62689697  0.74799362  1
  V  V7  1  0.87372051  0.01042002  0.87341539  1
  V  V8  1  0.63226762  0.74989785  0.87680090  1
  V  V9  1  0.74931378  0.49919161  0.74771208  1
  V  V10  1  0.73099950  0.12507367  0.88508050  1
  V  V11  1  0.25805554  0.61990516  0.37463713  1
  V  V12  1  0.62571782  0.12604727  0.50888752  1
  V  V13  1  0.74454579  0.87177107  0.62442442  1
  V  V14  1  0.50278779  0.37017663  0.87981639  1
  V  V15  1  0.10608505  0.37774797  0.75077174  1
  V  V16  1  0.00063802  0.74926288  0.24696371  1
  V  V17  1  0.87203246  0.87061044  -0.00434339  1
  V  V18  1  -0.00015830  0.25068215  0.25300305  1
  V  V19  1  0.87828926  0.62367105  0.24979419  1
  V  V20  1  0.62220266  0.62852448  0.00240364  1
  V  V21  1  0.87309722  0.25120141  0.12165310  1
  V  V22  1  0.36734089  0.25506770  0.12903739  1
  V  V23  1  0.87694276  0.37290549  -0.01148778  1
  V  V24  1  0.43723338  0.43427924  0.43690682  1
  V  V25  1  0.37471410  0.26580407  0.63338752  1
  V  V26  1  0.74700904  0.87437151  0.12558708  1
  V  V27  1  -0.00044679  0.12421705  0.12531717  1
  V  V28  1  0.12306855  0.11904531  0.51821696  1
  V  V29  1  0.87307991  0.12613699  0.25092840  1
  V  V30  1  0.00152851  0.87611891  0.37454444  1
  V  V31  1  0.36500738  0.62486441  0.75125518  1
  V  V32  1  0.74159454  0.00001212  0.25118085  1
  V  V33  1  0.12499103  0.24915059  0.38072814  1
  V  V34  1  0.88744986  0.74581135  0.62877094  1
  V  V35  1  0.25294974  0.48469070  0.74430909  1
  V  V36  1  0.25529308  0.26242223  0.50640855  1
  V  V37  1  0.75073184  0.37658712  0.12147026  1
  V  V38  1  0.75324511  0.49879624  0.24642031  1
  V  V39  1  0.37367295  0.87706984  -0.00261209  1
  V  V40  1  0.12992020  0.12752982  0.00105678  1
  V  V41  1  0.74973195  0.12742651  0.37708099  1
  V  V42  1  0.37754466  0.62878490  0.24262123  1
  V  V43  1  0.25245350  0.13157054  0.86770433  1
  V  V44  1  0.62129000  0.49909886  0.62474923  1
  V  V45  1  0.00458821  0.49618350  -0.00776912  1
  V  V46  1  0.12290730  0.62547355  0.50658178  1
  V  V47  1  0.12547176  0.74762709  0.37266740  1
  V  V48  1  0.62329489  0.87778961  0.74500821  1
  V  V49  1  0.87622067  0.37593033  0.51254792  1
  V  V50  1  0.50663536  0.00359991  0.00098826  1
  V  V51  1  0.48752717  0.12438461  0.62914870  1
  V  V52  1  0.37598558  0.87262359  0.49741675  1
  V  V53  1  0.24814324  0.87829682  0.62986085  1
  V  V54  1  0.12899394  0.37554641  0.24263916  1
  V  V55  1  0.51520461  0.86901995  0.37153975  1
  V  V56  1  0.12600652  0.87499351  0.24863566  1
  V  V57  1  -0.00419886  0.23027457  0.75367724  1
  V  V58  1  0.61537388  0.50578295  0.12573706  1
  V  V59  1  0.12445923  0.74671848  0.86113175  1
  V  V60  1  0.25520401  0.49724306  0.24562596  1
  V  V61  1  0.00309905  0.87207746  0.86048107  1
  V  V62  1  0.37508030  0.00753864  0.86633153  1
  V  V63  1  0.12528357  -0.00104347  0.12396182  1
  V  V64  1  0.37722817  0.00033221  0.37374341  1
  V  V65  1  0.63005455  0.36473206  0.75436779  1
  V  V66  1  0.37117373  0.50484592  0.87672400  1
  V  V67  1  0.51463626  0.74926835  0.24635137  1
  V  V68  1  0.75328001  0.62647983  0.87681748  1
  V  V69  1  0.25127364  0.74900829  0.49807291  1
  V  V70  1  0.49626588  0.25237927  0.25713596  1
  V  V71  1  0.87509629  0.49848486  0.37625395  1
  V  V72  1  -0.00043463  -0.00210863  -0.00137851  1
  V  V73  1  0.50026364  0.74327328  0.74824509  1
  V  V74  1  0.62030248  0.37690067  0.25218781  1
  V  V75  1  0.87872375  0.23105699  0.62739401  1
  V  V76  1  0.62422636  0.25638715  0.37697593  1
  V  V77  1  0.25033503  0.87410094  0.12243604  1
  V  V78  1  0.24903319  0.12371988  0.37895894  1
  V  V79  1  0.74873687  0.26179101  0.50675377  1
  V  V80  1  0.36648451  0.37898706  0.00595753  1
  V  V81  1  0.50050429  0.87577627  0.87418496  1
  V  V82  1  0.87306994  0.74733903  0.11755699  1
  V  V83  1  0.87899074  0.00130887  0.37564794  1
  V  V84  1  0.50588023  0.00076784  0.50383983  1
  Zn  Zn85  1  0.12734985  0.62397507  -0.00273690  1
  Zn  Zn86  1  0.87926698  0.49603146  0.86994373  1
  Zn  Zn87  1  0.24977439  0.00930012  0.74275529  1
  Zn  Zn88  1  0.49880642  0.24175734  0.76061280  1
  Zn  Zn89  1  0.61861252  0.63590490  0.49112804  1
  Zn  Zn90  1  0.00212600  0.00422084  0.51637916  1
  Zn  Zn91  1  0.37288161  0.12575571  0.25167555  1
  Zn  Zn92  1  0.37665326  0.74626468  0.62264651  1
  Zn  Zn93  1  0.62227146  -0.00534575  0.12820620  1
  Zn  Zn94  1  0.25114837  -0.00023559  0.25039645  1
  Zn  Zn95  1  0.12750055  0.50075818  0.12143570  1
  Zn  Zn96  1  0.08823515  0.94901026  0.68530089  1
  Zn  Zn97  1  0.72570722  0.25776759  -0.01733333  1
  Zn  Zn98  1  0.49632588  0.50574907  0.00240948  1
  Zn  Zn99  1  0.00364964  0.62190839  0.12057748  1
  Zn  Zn100  1  0.49580986  0.61616501  0.61601630  1
  Zn  Zn101  1  0.74402578  0.74910596  0.49279419  1
  Zn  Zn102  1  0.74174971  0.63416952  0.37424709  1
  Zn  Zn103  1  0.38270913  0.74994863  0.12170805  1
  Zn  Zn104  1  0.24548008  0.25751188  0.00562090  1
  Zn  Zn105  1  0.11883803  0.25654130  0.87977469  1
  Zn  Zn106  1  0.13051798  0.49586058  0.62264605  1
  Zn  Zn107  1  0.18761997  0.18668460  0.19221777  1
  Zn  Zn108  1  0.18786229  0.19739798  0.68963017  1
  Zn  Zn109  1  0.18879786  0.68542257  0.18211464  1
  Zn  Zn110  1  0.19245220  0.68771259  0.68473648  1
  Zn  Zn111  1  0.66612289  0.20602790  0.15256701  1
  Zn  Zn112  1  0.68837882  0.18848105  0.68596559  1
  Zn  Zn113  1  0.69357023  0.68671699  0.18683367  1
  Zn  Zn114  1  0.69014858  0.68553721  0.68472058  1
  Zn  Zn115  1  0.31083039  0.31496673  0.31748139  1
  Zn  Zn116  1  0.31441190  0.31286204  0.81805984  1
  Zn  Zn117  1  0.31587702  0.80994278  0.31085868  1
  Zn  Zn118  1  0.31265394  0.81057002  0.81426282  1
  Zn  Zn119  1  0.81093978  0.31499669  0.31522978  1
  Zn  Zn120  1  0.81156758  0.30505933  0.80808523  1
  Zn  Zn121  1  0.81076662  0.81348180  0.30847559  1
  Zn  Zn122  1  0.81370234  0.81325045  0.80898525  1
  Zn  Zn123  1  0.18930990  0.44038748  0.43301737  1
  Zn  Zn124  1  0.18886031  0.43795474  0.92871939  1
  Zn  Zn125  1  0.18815885  0.93825623  0.44030665  1
  Zn  Zn126  1  0.18600115  0.93875406  0.92593471  1
  Zn  Zn127  1  0.66140602  0.47040193  0.41741742  1
  Zn  Zn128  1  0.68797871  0.44216151  0.93601686  1
  Zn  Zn129  1  0.68932323  0.93847812  0.44025446  1
  Zn  Zn130  1  0.68898998  0.93600893  0.93711582  1
  Zn  Zn131  1  0.31591787  0.06240163  0.06134746  1
  Zn  Zn132  1  0.31259447  0.06226183  0.55970242  1
  Zn  Zn133  1  0.31169891  0.56294882  0.06694946  1
  Zn  Zn134  1  0.31784262  0.55746420  0.56324718  1
  Zn  Zn135  1  0.81013644  0.06151515  0.06105332  1
  Zn  Zn136  1  0.80887506  0.05795029  0.56115872  1
  Zn  Zn137  1  0.81331010  0.56132725  0.05753718  1
  Zn  Zn138  1  0.80418988  0.56484676  0.56317059  1
  Zn  Zn139  1  0.43574811  0.43870467  0.19459774  1
  Zn  Zn140  1  0.44342612  0.43460511  0.69413814  1
  Zn  Zn141  1  0.43786492  0.93318640  0.18958623  1
  Zn  Zn142  1  0.43603673  0.93647137  0.68488613  1
  Zn  Zn143  1  0.94287210  0.43668480  0.18206977  1
  Zn  Zn144  1  0.93551279  0.44099173  0.68674180  1
  Zn  Zn145  1  0.93413090  0.93665318  0.18666888  1
  Zn  Zn146  1  0.92158493  0.94164467  0.68659919  1
  Zn  Zn147  1  0.06460821  0.06315579  0.31432981  1
  Zn  Zn148  1  0.06810128  0.06271668  0.81848560  1
  Zn  Zn149  1  0.06444717  0.56100381  0.31495424  1
  Zn  Zn150  1  0.06714204  0.56289806  0.81493140  1
  Zn  Zn151  1  0.56201353  0.06826191  0.31627694  1
  Zn  Zn152  1  0.56143950  0.06114841  0.81030577  1
  Zn  Zn153  1  0.55332823  0.56307470  0.31344040  1
  Zn  Zn154  1  0.56045236  0.55941447  0.81291038  1
  Zn  Zn155  1  0.43591080  0.19401747  0.44059210  1
  Zn  Zn156  1  0.43590192  0.18952317  0.94369654  1
  Zn  Zn157  1  0.44179885  0.68392463  0.43565535  1
  Zn  Zn158  1  0.44017209  0.68840818  0.93515631  1
  Zn  Zn159  1  0.94043843  0.18634645  0.44364563  1
  Zn  Zn160  1  0.93703043  0.18736351  0.93766534  1
  Zn  Zn161  1  0.93272427  0.68836342  0.43657956  1
  Zn  Zn162  1  0.94275435  0.68603852  0.93362364  1
  Zn  Zn163  1  0.05831095  0.31401012  0.06237523  1
  Zn  Zn164  1  0.06322816  0.31120488  0.56957471  1
  Zn  Zn165  1  0.06091490  0.81063507  0.05645870  1
  Zn  Zn166  1  0.06252151  0.81248588  0.55961951  1
  Zn  Zn167  1  0.55363572  0.31837133  0.06551827  1
  Zn  Zn168  1  0.55985244  0.31871543  0.56826432  1
  Zn  Zn169  1  0.56507998  0.81215346  0.06063238  1
  Zn  Zn170  1  0.56231014  0.80819358  0.56251113  1
  O  O171  1  0.12038042  0.11937312  0.12156807  1
  O  O172  1  0.13362021  0.12398539  0.61683362  1
  O  O173  1  0.12203178  0.62194222  0.11699950  1
  O  O174  1  0.13013008  0.62467041  0.60965990  1
  O  O175  1  0.60415949  0.11145333  0.13715435  1
  O  O176  1  0.61561788  0.13326201  0.61244880  1
  O  O177  1  0.63615563  0.61815484  0.11413053  1
  O  O178  1  0.62432493  0.60817530  0.62990584  1
  O  O179  1  0.38025751  0.36518682  0.38749754  1
  O  O180  1  0.38161010  0.38327295  0.88478723  1
  O  O181  1  0.37963298  0.88166134  0.38324931  1
  O  O182  1  0.38030515  0.88252115  0.88052462  1
  O  O183  1  0.88420171  0.37790832  0.38494582  1
  O  O184  1  0.86811619  0.37140157  0.88583195  1
  O  O185  1  0.88025836  0.88313351  0.38193337  1
  O  O186  1  0.88002076  0.87913503  0.88051217  1
  O  O187  1  0.25869972  0.00687753  0.37658896  1
  O  O188  1  0.26171032  0.01151594  0.87959358  1
  O  O189  1  0.24392110  0.51196707  0.36219455  1
  O  O190  1  0.26256445  0.49883562  0.86256915  1
  O  O191  1  0.76167163  0.00337946  0.37098337  1
  O  O192  1  0.75297667  0.00921879  0.87102561  1
  O  O193  1  0.76910592  0.48986816  0.36493945  1
  O  O194  1  0.75384170  0.50896685  0.86563389  1
  O  O195  1  0.24577014  0.50230746  0.13980083  1
  O  O196  1  0.24859956  0.50442058  0.63962006  1
  O  O197  1  0.24601375  0.98983536  0.12518358  1
  O  O198  1  0.25735385  0.98483452  0.62460714  1
  O  O199  1  0.74644880  0.49462984  0.12923433  1
  O  O200  1  0.74507978  0.50149667  0.64216079  1
  O  O201  1  0.74910305  0.99495271  0.13403166  1
  O  O202  1  0.75572752  0.98706800  0.63495666  1
  O  O203  1  0.00590473  0.36946828  0.25734315  1
  O  O204  1  0.00469153  0.37569793  0.75282010  1
  O  O205  1  0.00519453  0.87077434  0.25459130  1
  O  O206  1  -0.00323502  0.88011233  0.76037330  1
  O  O207  1  0.50964114  0.36440332  0.24308992  1
  O  O208  1  0.51127266  0.36928861  0.76254323  1
  O  O209  1  0.49935438  0.86671845  0.26334664  1
  O  O210  1  0.50567799  0.87055006  0.75503331  1
  O  O211  1  0.49418408  0.13367510  0.24786423  1
  O  O212  1  0.50771928  0.12666260  0.73553067  1
  O  O213  1  0.49220333  0.64106904  0.25701512  1
  O  O214  1  0.49276991  0.63164500  0.74945654  1
  O  O215  1  0.99493827  0.13043573  0.24512061  1
  O  O216  1  1.00337033  0.13207999  0.75064418  1
  O  O217  1  0.99130335  0.62713651  0.24738084  1
  O  O218  1  0.98617552  0.61677301  0.75260183  1
  O  O219  1  0.37289805  0.26106191  0.01251434  1
  O  O220  1  0.36083321  0.24705568  0.51054964  1
  O  O221  1  0.37060825  0.76159806  -0.00270232  1
  O  O222  1  0.36980877  0.75836570  0.49684295  1
  O  O223  1  0.87570081  0.25653773  0.00846153  1
  O  O224  1  0.87250879  0.25456987  0.51109123  1
  O  O225  1  0.88050689  0.75676418  0.00635879  1
  O  O226  1  0.87532344  0.75997330  0.50975432  1
  O  O227  1  0.13393215  0.24072477  0.50198657  1
  O  O228  1  0.12508121  0.24311273  1.00181076  1
  O  O229  1  0.12977986  0.74323913  0.49262400  1
  O  O230  1  0.13436349  0.74902970  0.99400025  1
  O  O231  1  0.63330951  0.24938567  0.49989252  1
  O  O232  1  0.63551316  0.24701066  1.04653033  1
  O  O233  1  0.62980049  0.75114251  0.49902259  1
  O  O234  1  0.62376641  0.74394686  0.98825176  1
  O  O235  1  0.48770052  0.24190544  0.13678201  1
  O  O236  1  0.48553677  0.24380862  0.62372054  1
  O  O237  1  0.50069539  0.76178378  0.14186386  1
  O  O238  1  0.49645132  0.75288567  0.64025767  1
  O  O239  1  0.98992356  0.24513908  0.13154770  1
  O  O240  1  0.98631615  0.25103130  0.63529784  1
  O  O241  1  0.98974202  0.74978499  0.12927539  1
  O  O242  1  0.98620538  0.75429020  0.62327450  1
  O  O243  1  0.00523167  0.25463670  0.37331716  1
  O  O244  1  -0.00293638  0.24562301  0.85838760  1
  O  O245  1  0.00445769  0.75572646  0.36718939  1
  O  O246  1  0.01264519  0.75884311  0.87657780  1
  O  O247  1  0.50799871  0.24417260  0.36492555  1
  O  O248  1  0.49385629  0.26359840  0.87838760  1
  O  O249  1  0.49767343  0.76415356  0.36515496  1
  O  O250  1  0.50952503  0.75553078  0.86456728  1
  O  O251  1  0.24141095  0.13019510  0.49385613  1
  O  O252  1  0.23855127  0.12532160  0.99891889  1
  O  O253  1  0.24549960  0.62865994  0.49158150  1
  O  O254  1  0.25461076  0.64083429  1.00182868  1
  O  O255  1  0.74292986  0.13115953  0.49675395  1
  O  O256  1  0.74814909  0.12451146  0.98750707  1
  O  O257  1  0.74308951  0.62768460  0.49523965  1
  O  O258  1  0.74260064  0.61994033  0.98406239  1
  O  O259  1  0.26199411  0.37784705  -0.00213527  1
  O  O260  1  0.24032466  0.36007393  0.49865994  1
  O  O261  1  0.25717738  0.87263814  0.00400107  1
  O  O262  1  0.25877539  0.87028712  0.50394977  1
  O  O263  1  0.75662443  0.37290797  0.00429754  1
  O  O264  1  0.76164952  0.36250665  0.49474506  1
  O  O265  1  0.76469484  0.88171244  0.00679554  1
  O  O266  1  0.75960567  0.87788016  0.50829875  1
  O  O267  1  0.13000237  0.49036284  0.24992683  1
  O  O268  1  0.13197207  0.49043203  0.75038185  1
  O  O269  1  0.12682055  0.99291100  0.24301277  1
  O  O270  1  0.14024578  0.99163652  0.77174855  1
  O  O271  1  0.63087006  0.49588025  0.24220607  1
  O  O272  1  0.63249314  0.49168443  0.74797149  1
  O  O273  1  0.63886461  1.00269907  0.25615985  1
  O  O274  1  0.63082443  0.98510656  0.75659822  1
  O  O275  1  0.37413732  -0.00100816  0.26374909  1
  O  O276  1  0.37389716  -0.00235960  0.76285417  1
  O  O277  1  0.36671855  0.51196403  0.24717931  1
  O  O278  1  0.36919604  0.50307752  0.75566505  1
  O  O279  1  0.87109980  0.00717644  0.25786659  1
  O  O280  1  0.85764184  -0.00576306  0.76308059  1
  O  O281  1  0.87689212  0.50450100  0.25456452  1
  O  O282  1  0.86749566  0.50687509  0.75085642  1
  O  O283  1  0.11822294  0.36822135  0.36963198  1
  O  O284  1  0.13041529  0.37026560  0.85574548  1
  O  O285  1  0.12135900  0.86999755  0.36981163  1
  O  O286  1  0.11211494  0.86321487  0.88271353  1
  O  O287  1  0.63362266  0.37300280  0.35934450  1
  O  O288  1  0.61664192  0.37992563  0.86803330  1
  O  O289  1  0.61287850  0.87991367  0.37671744  1
  O  O290  1  0.62136154  0.86696973  0.86950791  1
  O  O291  1  0.38183634  0.13017370  0.13004878  1
  O  O292  1  0.38403524  0.13095363  0.61932572  1
  O  O293  1  0.37317813  0.63137726  0.13737085  1
  O  O294  1  0.37788587  0.62677628  0.63562672  1
  O  O295  1  0.87954429  0.13170763  0.12828899  1
  O  O296  1  0.87705195  0.13272037  0.61844982  1
  O  O297  1  0.87568207  0.63151858  0.12984956  1
  O  O298  1  0.86972147  0.63906105  0.63072657  1
  O  O299  1  0.26318727  0.24435733  0.12777079  1
  O  O300  1  0.26223480  0.24826630  0.61689137  1
  O  O301  1  0.25121219  0.76302533  0.11527442  1
  O  O302  1  0.25542504  0.75906755  0.61522462  1
  O  O303  1  0.76808124  0.25761427  0.13638731  1
  O  O304  1  0.76569727  0.24578583  0.61966967  1
  O  O305  1  0.76502667  0.75861628  0.13062720  1
  O  O306  1  0.75701840  0.76246447  0.62608266  1
  O  O307  1  0.24616256  0.24250981  0.38846951  1
  O  O308  1  0.25003104  0.24304458  0.88384194  1
  O  O309  1  0.24358675  0.74550676  0.37948448  1
  O  O310  1  0.23579740  0.76117791  0.88296438  1
  O  O311  1  0.74532572  0.24535918  0.38446106  1
  O  O312  1  0.75181182  0.22949594  0.87268479  1
  O  O313  1  0.76468645  0.74528390  0.37823494  1
  O  O314  1  0.73946400  0.74417623  0.86736808  1
  O  O315  1  0.01022842  0.12024758  0.00504843  1
  O  O316  1  0.01851687  0.12485178  0.50036286  1
  O  O317  1  -0.00141162  0.60905708  -0.00006299  1
  O  O318  1  0.00971747  0.61666299  0.48992242  1
  O  O319  1  0.49251175  0.11476024  0.01146123  1
  O  O320  1  0.50598245  0.11878262  0.50436667  1
  O  O321  1  0.51629088  0.62449065  -0.00494564  1
  O  O322  1  0.50490162  0.62575495  0.50310145  1
  O  O323  1  0.50238535  0.38119399  0.49579362  1
  O  O324  1  0.48951838  0.38220257  0.99645306  1
  O  O325  1  0.49492640  0.88155951  0.49110891  1
  O  O326  1  0.49222583  0.87874828  0.99347305  1
  O  O327  1  0.99554688  0.38078566  0.49667735  1
  O  O328  1  0.99154837  0.38465230  1.00068683  1
  O  O329  1  0.99272928  0.87713874  0.49125594  1
  O  O330  1  0.98841372  0.88123980  0.99526157  1
  O  O331  1  0.49092267  0.48482749  0.36572287  1
  O  O332  1  0.48928732  0.48947585  0.87588171  1
  O  O333  1  0.49503622  0.99236203  0.38142259  1
  O  O334  1  0.49320497  0.99698095  0.88189593  1
  O  O335  1  0.99179999  0.49315446  0.38201222  1
  O  O336  1  0.99819484  0.49989281  0.88705641  1
  O  O337  1  0.98909383  0.99688507  0.37463862  1
  O  O338  1  0.99114647  0.99399234  0.88048936  1
  O  O339  1  0.00352214  0.00514985  0.11943358  1
  O  O340  1  0.00207692  -0.01206390  0.62773970  1
  O  O341  1  0.00438505  0.49962622  0.10957725  1
  O  O342  1  0.00233777  0.49979537  0.61146364  1
  O  O343  1  0.49697943  0.00305536  0.11862412  1
  O  O344  1  0.49321590  0.00678674  0.61139984  1
  O  O345  1  0.51253363  0.50079453  0.12703754  1
  O  O346  1  0.51651629  0.49961953  0.63593427  1
  O  O347  1  0.24090519  0.38413762  0.25854217  1
  O  O348  1  0.24837086  0.38263949  0.75100367  1
  O  O349  1  0.24470813  0.87484680  0.24019844  1
  O  O350  1  0.26229759  0.87248455  0.73060167  1
  O  O351  1  0.74564819  0.38041074  0.24198766  1
  O  O352  1  0.73763345  0.38108024  0.76112156  1
  O  O353  1  0.76234315  0.88827160  0.23763776  1
  O  O354  1  0.74108002  0.88098148  0.74437146  1
  O  O355  1  0.25143866  0.12273911  0.26599398  1
  O  O356  1  0.24656045  0.12937461  0.76370841  1
  O  O357  1  0.25665602  0.62146662  0.25526359  1
  O  O358  1  0.26189340  0.61933541  0.74999364  1
  O  O359  1  0.75861624  0.11723265  0.25991170  1
  O  O360  1  0.73828428  0.11192947  0.75816435  1
  O  O361  1  0.76429501  0.61708947  0.25124231  1
  O  O362  1  0.75560730  0.61857235  0.75924236  1
  O  O363  1  0.36756691  0.11757891  0.37867234  1
  O  O364  1  0.36615490  0.11827455  0.88365615  1
  O  O365  1  0.36188156  0.63588830  0.36362506  1
  O  O366  1  0.38248880  0.61440430  0.86753052  1
  O  O367  1  0.87173838  0.11853960  0.37502942  1
  O  O368  1  0.86956777  0.11237264  0.87966751  1
  O  O369  1  0.87850196  0.61312326  0.36555412  1
  O  O370  1  0.86799965  0.62740004  0.86627577  1
  O  O371  1  0.12185746  0.37246832  0.13994526  1
  O  O372  1  0.12295904  0.37688322  0.64365725  1
  O  O373  1  0.13073576  0.87995095  0.12661255  1
  O  O374  1  0.14308666  0.87052612  0.61821715  1
  O  O375  1  0.63099551  0.38702081  0.13514965  1
  O  O376  1  0.62167420  0.38055400  0.64746637  1
  O  O377  1  0.64259349  0.87494754  0.11981002  1
  O  O378  1  0.63093906  0.87348378  0.63449524  1
  O  O379  1  0.12013182  0.25579284  0.25864080  1
  O  O380  1  0.10768451  0.25857232  0.74788680  1
  O  O381  1  0.11984147  0.75517837  0.25199501  1
  O  O382  1  0.13164839  0.74806904  0.76178738  1
  O  O383  1  0.61722838  0.25902441  0.25099258  1
  O  O384  1  0.62452411  0.26179642  0.74963876  1
  O  O385  1  0.61399988  0.74194970  0.24992289  1
  O  O386  1  0.61960810  0.75708279  0.75506826  1
  O  O387  1  0.38054869  0.25112316  0.24773759  1
  O  O388  1  0.37627777  0.25333700  0.73744681  1
  O  O389  1  0.38382825  0.74521334  0.24554122  1
  O  O390  1  0.38280606  0.74061659  0.75373681  1
  O  O391  1  0.88218484  0.24566800  0.24750385  1
  O  O392  1  0.88429593  0.24836291  0.73835427  1
  O  O393  1  0.88300333  0.74103252  0.24161828  1
  O  O394  1  0.87317484  0.74369619  0.73721916  1
  O  O395  1  0.37400392  0.49672072  0.48925846  1
  O  O396  1  0.37516762  0.49800186  0.99527389  1
  O  O397  1  0.38293328  0.99420550  0.48964575  1
  O  O398  1  0.38256494  0.98981067  0.99341715  1
  O  O399  1  0.87992169  0.49415618  0.49534579  1
  O  O400  1  0.88374560  0.48992050  0.99607038  1
  O  O401  1  0.87771854  0.99036769  0.49353282  1
  O  O402  1  0.87998402  0.99319003  0.99310546  1
  O  O403  1  0.11968348  0.00702838  0.00386021  1
  O  O404  1  0.12468545  0.01534319  0.49664254  1
  O  O405  1  0.11665355  0.49754905  -0.00284128  1
  O  O406  1  0.11764511  0.50712179  0.49873360  1
  O  O407  1  0.60955864  -0.00863934  0.00150591  1
  O  O408  1  0.61653007  0.01151809  0.49482140  1
  O  O409  1  0.62393430  0.50826046  0.00877680  1
  O  O410  1  0.63819796  0.48138828  0.52797197  1
  O  O411  1  0.38012583  0.36757830  0.11936228  1
  O  O412  1  0.37936067  0.36447910  0.62698083  1
  O  O413  1  0.36684007  0.87513670  0.11582228  1
  O  O414  1  0.37111484  0.87283720  0.61023335  1
  O  O415  1  0.87162111  0.36848745  0.11613737  1
  O  O416  1  0.87728825  0.37027929  0.61444088  1
  O  O417  1  0.87014453  0.86825860  0.11583280  1
  O  O418  1  0.86684165  0.86402905  0.61842982  1
  O  O419  1  0.13293655  0.13216861  0.37928740  1
  O  O420  1  0.13340453  0.13238442  0.88638743  1
  O  O421  1  0.13399346  0.63133510  0.37998121  1
  O  O422  1  0.12218118  0.64155201  0.87873391  1
  O  O423  1  0.63000843  0.13562158  0.38641315  1
  O  O424  1  0.63195559  0.12096242  0.88029186  1
  O  O425  1  0.63719892  0.58173093  0.38528640  1
  O  O426  1  0.63155903  0.63170870  0.87793970  1
