# generated using pymatgen
data_V85Zn86O256
_symmetry_space_group_name_H-M   'P 1'
_cell_length_a   16.94308760
_cell_length_b   16.95220610
_cell_length_c   16.95531614
_cell_angle_alpha   89.92197035
_cell_angle_beta   90.07108879
_cell_angle_gamma   89.91624116
_symmetry_Int_Tables_number   1
_chemical_formula_structural   V85Zn86O256
_chemical_formula_sum   'V85 Zn86 O256'
_cell_volume   4869.93842281
_cell_formula_units_Z   1
loop_
 _symmetry_equiv_pos_site_id
 _symmetry_equiv_pos_as_xyz
  1  'x, y, z'
loop_
 _atom_site_type_symbol
 _atom_site_label
 _atom_site_symmetry_multiplicity
 _atom_site_fract_x
 _atom_site_fract_y
 _atom_site_fract_z
 _atom_site_occupancy
  V  V0  1  0.00365969  0.50450751  -0.00179075  1
  V  V1  1  0.37024693  0.62421382  0.74671479  1
  V  V2  1  0.73680537  0.49663150  0.74616499  1
  V  V3  1  0.88324630  -0.00231857  0.37626721  1
  V  V4  1  0.73823711  0.37936322  0.62516903  1
  V  V5  1  0.12938193  0.25490854  0.87558141  1
  V  V6  1  0.37426082  0.48940543  0.87129349  1
  V  V7  1  0.36064016  0.25744239  0.62499742  1
  V  V8  1  0.75191020  0.12116876  0.37581290  1
  V  V9  1  0.00360592  0.87364701  0.87667804  1
  V  V10  1  0.49860892  0.87558271  0.86912805  1
  V  V11  1  0.87664623  0.12065015  0.25125955  1
  V  V12  1  0.00228973  0.37542612  0.87282350  1
  V  V13  1  0.37586719  0.36994119  0.01118843  1
  V  V14  1  0.74167402  0.24885824  -0.00246740  1
  V  V15  1  -0.00073904  0.25063802  0.75039770  1
  V  V16  1  0.87952177  0.87381530  0.00385597  1
  V  V17  1  0.37748682  0.12253279  0.26179172  1
  V  V18  1  0.87315664  0.24760588  0.12388648  1
  V  V19  1  0.63003845  0.87291733  0.74368707  1
  V  V20  1  0.12820514  0.89436942  0.74860609  1
  V  V21  1  0.00446519  0.00690447  0.51820935  1
  V  V22  1  -0.00331626  0.37866976  0.37395120  1
  V  V23  1  0.24144158  0.13991406  0.37696944  1
  V  V24  1  0.62303721  0.87470397  0.25481403  1
  V  V25  1  0.37301808  0.50186799  0.37283011  1
  V  V26  1  0.87343112  0.37981880  0.49552204  1
  V  V27  1  0.19757694  0.66999647  0.33492720  1
  V  V28  1  0.00464271  -0.00154393  0.00354474  1
  V  V29  1  0.50107216  0.49876811  -0.00253868  1
  V  V30  1  0.62533948  0.62709912  0.00032178  1
  V  V31  1  0.25137157  0.74487843  0.00183520  1
  V  V32  1  0.62331756  0.12263220  0.50241499  1
  V  V33  1  0.25095712  0.49586839  0.24662400  1
  V  V34  1  0.13225991  0.63007195  0.50887330  1
  V  V35  1  0.25454019  0.25360870  0.01353229  1
  V  V36  1  0.75368680  0.24905050  0.49928058  1
  V  V37  1  0.87999171  0.75054368  0.13488915  1
  V  V38  1  0.49771307  0.00061543  -0.00225857  1
  V  V39  1  0.62538663  0.37351733  0.25089455  1
  V  V40  1  0.24390163  0.47858045  0.74991444  1
  V  V41  1  0.74986095  0.62464443  0.87516079  1
  V  V42  1  0.87012630  0.75342173  0.62824525  1
  V  V43  1  0.74340763  0.12781249  0.87379949  1
  V  V44  1  0.87357720  0.49804359  0.87387437  1
  V  V45  1  0.00727061  0.74847577  0.74795751  1
  V  V46  1  0.75398242  0.62148848  0.37654286  1
  V  V47  1  0.62929217  0.50289327  0.12856296  1
  V  V48  1  0.49516607  0.75009667  0.74693786  1
  V  V49  1  0.51333153  0.36822333  0.86510150  1
  V  V50  1  0.49838495  0.37566300  0.37727758  1
  V  V51  1  0.24818742  0.89193801  0.62867183  1
  V  V52  1  0.37682171  0.87075017  0.00465700  1
  V  V53  1  0.62455946  0.00144676  0.12440606  1
  V  V54  1  0.37125800  0.00419052  0.85793563  1
  V  V55  1  0.49624114  0.75150449  0.25064176  1
  V  V56  1  0.87475211  0.62512793  0.75054492  1
  V  V57  1  0.13044716  0.49863272  0.11748518  1
  V  V58  1  0.00405654  0.62618484  0.12424090  1
  V  V59  1  0.87165143  0.87509915  0.50569894  1
  V  V60  1  0.51350315  0.24378140  0.74148923  1
  V  V61  1  -0.00428707  0.50113499  0.49779358  1
  V  V62  1  0.87598013  0.00054242  0.87716122  1
  V  V63  1  0.24178211  0.62165024  0.87473667  1
  V  V64  1  0.12991059  0.12494874  0.00261056  1
  V  V65  1  0.74976061  0.37391764  0.12617174  1
  V  V66  1  0.49848528  0.63285309  0.12312928  1
  V  V67  1  0.00220050  0.12158425  0.12552213  1
  V  V68  1  0.75291302  -0.00375721  0.25056553  1
  V  V69  1  0.87764939  0.12630150  0.74407318  1
  V  V70  1  0.27445652  0.82308204  0.42853387  1
  V  V71  1  0.50046562  0.50379613  0.50801683  1
  V  V72  1  0.62482733  0.00036407  0.62408642  1
  V  V73  1  0.75323786  -0.00408518  0.74676691  1
  V  V74  1  0.75333170  0.75070250  0.00201057  1
  V  V75  1  0.12085073  0.47763314  0.62891078  1
  V  V76  1  0.48998662  0.12840616  0.12225659  1
  V  V77  1  0.00314474  0.24968128  0.25237053  1
  V  V78  1  0.12763848  0.37109944  0.24438747  1
  V  V79  1  0.25466968  -0.00524597  0.25548929  1
  V  V80  1  0.36000492  0.74876207  0.61169735  1
  V  V81  1  0.49536793  0.25086339  0.24555447  1
  V  V82  1  0.37544603  0.63073735  0.24700016  1
  V  V83  1  0.62523249  0.75121183  0.87471845  1
  V  V84  1  0.74472220  0.75278051  0.50342487  1
  Zn  Zn85  1  0.47601009  0.87440557  0.38016159  1
  Zn  Zn86  1  0.88083859  0.61782103  0.25867958  1
  Zn  Zn87  1  -0.00148771  0.62167834  0.62485946  1
  Zn  Zn88  1  0.34713257  0.35384045  0.48990168  1
  Zn  Zn89  1  0.48472906  0.12253592  0.62146951  1
  Zn  Zn90  1  0.47329200  -0.00273370  0.47906787  1
  Zn  Zn91  1  0.13069519  -0.01064909  0.12885589  1
  Zn  Zn92  1  0.25215104  0.11679822  0.87379740  1
  Zn  Zn93  1  0.87551433  0.25191550  0.62497039  1
  Zn  Zn94  1  0.87439286  0.37404082  0.00024531  1
  Zn  Zn95  1  0.01842178  0.74368560  0.26457988  1
  Zn  Zn96  1  0.00112227  0.86668056  0.37984800  1
  Zn  Zn97  1  0.50215434  0.62576353  0.62610335  1
  Zn  Zn98  1  0.25744747  0.87264281  0.12658441  1
  Zn  Zn99  1  0.13055695  0.13588951  0.50733623  1
  Zn  Zn100  1  0.62111110  0.12647837  -0.00399926  1
  Zn  Zn101  1  0.62431594  0.24662880  0.37387221  1
  Zn  Zn102  1  0.61879451  0.75020924  0.38105489  1
  Zn  Zn103  1  0.12582282  0.74619322  0.87701109  1
  Zn  Zn104  1  0.75765449  0.49411588  0.26274075  1
  Zn  Zn105  1  0.62775779  0.61981050  0.50668915  1
  Zn  Zn106  1  0.75237865  0.87448267  0.12594241  1
  Zn  Zn107  1  0.18936655  0.18477466  0.18923593  1
  Zn  Zn108  1  0.19852111  0.17379432  0.69313927  1
  Zn  Zn109  1  0.19036821  0.68506017  0.16680980  1
  Zn  Zn110  1  0.18647588  0.67803183  0.68562843  1
  Zn  Zn111  1  0.68391056  0.18469424  0.18813756  1
  Zn  Zn112  1  0.68682341  0.19081928  0.68649994  1
  Zn  Zn113  1  0.68925767  0.68950836  0.19119750  1
  Zn  Zn114  1  0.68503636  0.68356923  0.68427199  1
  Zn  Zn115  1  0.31459511  0.31288498  0.30368485  1
  Zn  Zn116  1  0.30518886  0.27801872  0.79906498  1
  Zn  Zn117  1  0.14043780  0.86397035  0.25907574  1
  Zn  Zn118  1  0.31021476  0.81366638  0.81245264  1
  Zn  Zn119  1  0.81487492  0.31010270  0.31420436  1
  Zn  Zn120  1  0.80865237  0.31399344  0.81251649  1
  Zn  Zn121  1  0.81147310  0.81107818  0.31762994  1
  Zn  Zn122  1  0.81481858  0.81284908  0.81455707  1
  Zn  Zn123  1  0.17568919  0.43757160  0.42565587  1
  Zn  Zn124  1  0.19215285  0.43116949  0.93861055  1
  Zn  Zn125  1  0.19189458  0.96272446  0.44202771  1
  Zn  Zn126  1  0.19175620  0.93530398  0.93571689  1
  Zn  Zn127  1  0.68285752  0.43726004  0.43919110  1
  Zn  Zn128  1  0.68915255  0.43814286  0.94013471  1
  Zn  Zn129  1  0.68544743  0.93437635  0.43930131  1
  Zn  Zn130  1  0.68864537  0.93778615  0.93707563  1
  Zn  Zn131  1  0.31341513  0.05957024  0.06172695  1
  Zn  Zn132  1  0.31146906  0.07685478  0.56461916  1
  Zn  Zn133  1  0.31543049  0.56074335  0.06043886  1
  Zn  Zn134  1  0.28571360  0.51204899  0.54051408  1
  Zn  Zn135  1  0.81178887  0.06178487  0.06211536  1
  Zn  Zn136  1  0.81453110  0.06163405  0.56372374  1
  Zn  Zn137  1  0.81666510  0.56361320  0.06569346  1
  Zn  Zn138  1  0.81163386  0.56430114  0.56456730  1
  Zn  Zn139  1  0.44289661  0.44327272  0.18799103  1
  Zn  Zn140  1  0.43109268  0.42644105  0.68769027  1
  Zn  Zn141  1  0.43705133  0.94000178  0.19074914  1
  Zn  Zn142  1  0.42020579  0.95436818  0.65556762  1
  Zn  Zn143  1  0.93559696  0.43828370  0.18574123  1
  Zn  Zn144  1  0.93180916  0.43245912  0.68511177  1
  Zn  Zn145  1  0.95334652  0.92755972  0.19524873  1
  Zn  Zn146  1  0.93839991  0.93455756  0.68888944  1
  Zn  Zn147  1  0.06702146  0.05850411  0.31371393  1
  Zn  Zn148  1  0.06144034  0.06826990  0.81778241  1
  Zn  Zn149  1  0.05643338  0.55434543  0.30837261  1
  Zn  Zn150  1  0.06320396  0.55895340  0.80766115  1
  Zn  Zn151  1  0.55975518  0.05688430  0.31731763  1
  Zn  Zn152  1  0.56180056  0.06101924  0.80900551  1
  Zn  Zn153  1  0.56779536  0.56544809  0.31722189  1
  Zn  Zn154  1  0.55826496  0.56338130  0.81144628  1
  Zn  Zn155  1  0.43949816  0.18868469  0.43998587  1
  Zn  Zn156  1  0.43846376  0.18975934  0.93220546  1
  Zn  Zn157  1  0.43136602  0.68654198  0.43512066  1
  Zn  Zn158  1  0.43311541  0.68458317  0.93145803  1
  Zn  Zn159  1  0.97218348  0.21043461  0.46159281  1
  Zn  Zn160  1  0.93506931  0.18564475  0.93703020  1
  Zn  Zn161  1  0.93941494  0.68819932  0.43895530  1
  Zn  Zn162  1  0.93958277  0.68717676  0.93832309  1
  Zn  Zn163  1  0.06107432  0.31422494  0.06195922  1
  Zn  Zn164  1  0.09484502  0.27336966  0.58766017  1
  Zn  Zn165  1  0.07160762  0.81148803  0.06674621  1
  Zn  Zn166  1  0.06290241  0.81472514  0.56284088  1
  Zn  Zn167  1  0.56050756  0.31350934  0.06136069  1
  Zn  Zn168  1  0.56032425  0.31253174  0.55780967  1
  Zn  Zn169  1  0.56313076  0.81532498  0.06241487  1
  Zn  Zn170  1  0.55228240  0.81673223  0.56295422  1
  O  O171  1  0.11980017  0.12394691  0.11424966  1
  O  O172  1  0.12247265  0.16277828  0.61874024  1
  O  O173  1  0.11267942  0.61458899  0.12193518  1
  O  O174  1  0.11838795  0.61275867  0.61826941  1
  O  O175  1  0.61728920  0.11165123  0.12511043  1
  O  O176  1  0.63211264  0.11832127  0.61326383  1
  O  O177  1  0.62220453  0.62000740  0.12046118  1
  O  O178  1  0.61561584  0.62800206  0.62012956  1
  O  O179  1  0.38189271  0.38213848  0.37224134  1
  O  O180  1  0.38486919  0.38516595  0.88170275  1
  O  O181  1  0.35214641  0.86454907  0.38695366  1
  O  O182  1  0.38314437  0.88299592  0.87805458  1
  O  O183  1  0.87710978  0.37570201  0.38588635  1
  O  O184  1  0.87812116  0.38417251  0.87986884  1
  O  O185  1  0.87519217  0.88199708  0.38514128  1
  O  O186  1  0.88389168  0.88012188  0.88259638  1
  O  O187  1  0.25570925  0.01670116  0.36043428  1
  O  O188  1  0.26610488  -0.00147104  0.87315374  1
  O  O189  1  0.25755818  0.50459183  0.35518344  1
  O  O190  1  0.25618810  0.50287150  0.87129800  1
  O  O191  1  0.75993327  0.00152156  0.36952123  1
  O  O192  1  0.75711031  0.00530577  0.86764470  1
  O  O193  1  0.74396335  0.51631905  0.37996901  1
  O  O194  1  0.75748472  0.50365261  0.87131917  1
  O  O195  1  0.24127164  0.50833224  0.13232213  1
  O  O196  1  0.22991178  0.49857667  0.63912195  1
  O  O197  1  0.24993001  1.00209860  0.13697949  1
  O  O198  1  0.25017809  0.98995747  0.63305912  1
  O  O199  1  0.73847036  0.49542358  0.11889562  1
  O  O200  1  0.75397340  0.49344924  0.63525768  1
  O  O201  1  0.74240540  0.99873285  0.13132050  1
  O  O202  1  0.74488177  1.00325737  0.64089163  1
  O  O203  1  0.00300462  0.36851003  0.25097092  1
  O  O204  1  -0.01136410  0.36958063  0.76734198  1
  O  O205  1  0.02147498  0.86507699  0.26261604  1
  O  O206  1  0.01196701  0.86894671  0.75417486  1
  O  O207  1  0.50459245  0.36900088  0.25508403  1
  O  O208  1  0.50686539  0.37799516  0.76227592  1
  O  O209  1  0.50455770  0.86627616  0.24893811  1
  O  O210  1  0.50905438  0.87020951  0.76072849  1
  O  O211  1  0.49534514  0.13164495  0.24429238  1
  O  O212  1  0.50517751  0.14132566  0.75102520  1
  O  O213  1  0.49884061  0.63011173  0.24166203  1
  O  O214  1  0.48823434  0.62999210  0.74977684  1
  O  O215  1  0.99729474  0.13091571  0.24606665  1
  O  O216  1  0.98794853  0.13662908  0.76340922  1
  O  O217  1  0.99955163  0.62738935  0.23989607  1
  O  O218  1  0.99290289  0.63257732  0.75078258  1
  O  O219  1  0.37071638  0.26233561  -0.00418164  1
  O  O220  1  0.38086272  0.24903930  0.51438459  1
  O  O221  1  0.36625928  0.75996959  -0.01380403  1
  O  O222  1  0.36418841  0.75094049  0.50958439  1
  O  O223  1  0.86685907  0.24640985  0.01232345  1
  O  O224  1  0.87033320  0.25866873  0.50161241  1
  O  O225  1  0.87409819  0.75623612  0.00882635  1
  O  O226  1  0.86814041  0.75618718  0.51022623  1
  O  O227  1  0.07998181  0.23800283  0.48254127  1
  O  O228  1  0.12857876  0.24362532  0.99810502  1
  O  O229  1  0.12374978  0.73031992  0.51044726  1
  O  O230  1  0.14554273  0.75271391  0.99520298  1
  O  O231  1  0.63411238  0.23992281  0.49564899  1
  O  O232  1  0.63800852  0.24636643  1.00670200  1
  O  O233  1  0.63891009  0.75644278  0.50583687  1
  O  O234  1  0.63189914  0.74661001  0.99550287  1
  O  O235  1  0.50872538  0.23967629  0.13277597  1
  O  O236  1  0.50825097  0.24561717  0.63339961  1
  O  O237  1  0.50618109  0.73778926  0.12771319  1
  O  O238  1  0.48107544  0.75425622  0.63183683  1
  O  O239  1  0.99045907  0.24465095  0.13077541  1
  O  O240  1  0.99139759  0.26550852  0.64918007  1
  O  O241  1  0.99806417  0.74138072  0.12721262  1
  O  O242  1  0.99005493  0.75028329  0.63337271  1
  O  O243  1  -0.01655375  0.26286061  0.35517260  1
  O  O244  1  0.00248326  0.25973065  0.87759521  1
  O  O245  1  0.00328435  0.75340185  0.37739947  1
  O  O246  1  0.00293012  0.75589356  0.86813317  1
  O  O247  1  0.50191001  0.25875934  0.36705309  1
  O  O248  1  0.49673714  0.26254169  0.86315053  1
  O  O249  1  0.49839020  0.75456700  0.36554650  1
  O  O250  1  0.50508857  0.75579354  0.86817432  1
  O  O251  1  0.24720462  0.12106405  0.48185201  1
  O  O252  1  0.24545685  0.13313199  0.99702686  1
  O  O253  1  0.23045860  0.61040211  0.50405158  1
  O  O254  1  0.26191469  0.63577423  0.98963509  1
  O  O255  1  0.74910493  0.13166512  0.49517434  1
  O  O256  1  0.74888399  0.13092669  0.99256263  1
  O  O257  1  0.75044882  0.63404216  0.49435126  1
  O  O258  1  0.74633882  0.63048141  0.99439748  1
  O  O259  1  0.26830631  0.37307674  0.00449352  1
  O  O260  1  0.25299018  0.41091741  0.49697690  1
  O  O261  1  0.26073310  0.86384045  -0.00268279  1
  O  O262  1  0.24782108  0.88049871  0.51883468  1
  O  O263  1  0.75215068  0.36601753  0.00698269  1
  O  O264  1  0.75484906  0.36888389  0.50021279  1
  O  O265  1  0.75934849  0.86933604  0.00285701  1
  O  O266  1  0.76205239  0.86697037  0.49806922  1
  O  O267  1  0.13223597  0.49426480  0.23890342  1
  O  O268  1  0.12716667  0.49338152  0.73901292  1
  O  O269  1  0.14203405  0.99709117  0.25091665  1
  O  O270  1  0.12066848  0.99287187  0.75316428  1
  O  O271  1  0.63026570  0.49455370  0.24258554  1
  O  O272  1  0.63840916  0.50394707  0.75737320  1
  O  O273  1  0.63030426  0.99325325  0.24326568  1
  O  O274  1  0.63671948  0.99168059  0.74996666  1
  O  O275  1  0.36681841  0.01274466  0.24364561  1
  O  O276  1  0.38343757  -0.00479467  0.76031945  1
  O  O277  1  0.36891898  0.50471657  0.25185690  1
  O  O278  1  0.36672507  0.50221076  0.75381282  1
  O  O279  1  0.87486462  -0.00128485  0.25706495  1
  O  O280  1  0.87125916  0.00455536  0.75610624  1
  O  O281  1  0.86612327  0.50716025  0.23622438  1
  O  O282  1  0.87117489  0.50453422  0.76150117  1
  O  O283  1  0.11023590  0.37888745  0.35543032  1
  O  O284  1  0.11214187  0.36884443  0.88497594  1
  O  O285  1  0.18663140  0.86004877  0.38346018  1
  O  O286  1  0.12198731  0.87293869  0.86213460  1
  O  O287  1  0.61759270  0.37346991  0.36561137  1
  O  O288  1  0.61057941  0.37754902  0.88345533  1
  O  O289  1  0.63082923  0.87128725  0.35953160  1
  O  O290  1  0.61883135  0.87024243  0.86906404  1
  O  O291  1  0.38753888  0.12272844  0.13011543  1
  O  O292  1  0.37285679  0.14860390  0.63134602  1
  O  O293  1  0.38917483  0.61325252  0.13317030  1
  O  O294  1  0.37509184  0.63903321  0.63701523  1
  O  O295  1  0.88139868  0.12796681  0.13095492  1
  O  O296  1  0.86955195  0.12798179  0.64102665  1
  O  O297  1  0.88837024  0.63496507  0.12149126  1
  O  O298  1  0.87791269  0.63330476  0.63397516  1
  O  O299  1  0.24601917  0.24930037  0.11313087  1
  O  O300  1  0.26225597  0.26356851  0.63152712  1
  O  O301  1  0.26140377  0.74782284  0.10575578  1
  O  O302  1  0.25903340  0.74915318  0.63096984  1
  O  O303  1  0.75554189  0.25093586  0.12032924  1
  O  O304  1  0.75218947  0.25610469  0.61270735  1
  O  O305  1  0.76070306  0.74985015  0.11917698  1
  O  O306  1  0.76340223  0.74651326  0.62206011  1
  O  O307  1  0.25449617  0.23933251  0.36827136  1
  O  O308  1  0.23641683  0.26670048  0.89563245  1
  O  O309  1  0.26885251  0.72415864  0.38794795  1
  O  O310  1  0.24899073  0.73858070  0.87929192  1
  O  O311  1  0.75036253  0.24171057  0.38484558  1
  O  O312  1  0.75625074  0.24102537  0.88584705  1
  O  O313  1  0.74719766  0.74292721  0.38726311  1
  O  O314  1  0.74626892  0.74471276  0.88149676  1
  O  O315  1  0.00704253  0.11862454  0.00534308  1
  O  O316  1  -0.02598820  0.10182658  0.50078279  1
  O  O317  1  -0.00089585  0.61188880  0.00367482  1
  O  O318  1  0.00549355  0.61434001  0.50277912  1
  O  O319  1  0.50167666  0.12248747  0.00596877  1
  O  O320  1  0.51184249  0.11806951  0.50063223  1
  O  O321  1  0.50337440  0.62098295  0.00483885  1
  O  O322  1  0.49756955  0.61339169  0.49910732  1
  O  O323  1  0.50212121  0.38442069  0.48503336  1
  O  O324  1  0.49279825  0.37697797  0.99056662  1
  O  O325  1  0.51278301  0.88685385  0.48843471  1
  O  O326  1  0.49595079  0.87661103  0.98751368  1
  O  O327  1  0.98947691  0.38213451  0.48685784  1
  O  O328  1  0.99482637  0.38698939  0.99392217  1
  O  O329  1  0.99414751  0.88767272  0.50041523  1
  O  O330  1  1.00042885  0.87815458  0.99670837  1
  O  O331  1  0.49249059  0.49190517  0.37220823  1
  O  O332  1  0.49374447  0.49314802  0.87961498  1
  O  O333  1  0.48788967  0.99004920  0.36702541  1
  O  O334  1  0.49661935  0.99156655  0.87852376  1
  O  O335  1  0.99795546  0.48843571  0.38138306  1
  O  O336  1  0.99479110  0.49523726  0.87956934  1
  O  O337  1  0.99072006  0.99478762  0.37684836  1
  O  O338  1  0.99532789  0.99426993  0.88364476  1
  O  O339  1  0.00662053  0.00346619  0.12131089  1
  O  O340  1  -0.00089382  -0.00112017  0.61730146  1
  O  O341  1  0.00582376  0.50583532  0.11519326  1
  O  O342  1  0.00701190  0.49632501  0.62149848  1
  O  O343  1  0.50636013  0.00659766  0.11851819  1
  O  O344  1  0.52337835  0.00974535  0.64558326  1
  O  O345  1  0.51414807  0.50842692  0.11931773  1
  O  O346  1  0.48787339  0.49854913  0.60861877  1
  O  O347  1  0.24081086  0.38278797  0.24832299  1
  O  O348  1  0.25538445  0.38137008  0.76330974  1
  O  O349  1  0.26156818  0.89262573  0.24693598  1
  O  O350  1  0.23421009  0.87267501  0.74538377  1
  O  O351  1  0.74302636  0.37288624  0.24469149  1
  O  O352  1  0.75473491  0.38447290  0.73912603  1
  O  O353  1  0.74298401  0.87863296  0.24634703  1
  O  O354  1  0.74255426  0.88366033  0.75874836  1
  O  O355  1  0.26056107  0.12231487  0.25462977  1
  O  O356  1  0.26483466  0.17054527  0.77699839  1
  O  O357  1  0.25644661  0.62236596  0.24876867  1
  O  O358  1  0.25541637  0.61392123  0.75766441  1
  O  O359  1  0.75524837  0.11671764  0.25475603  1
  O  O360  1  0.75621518  0.11977350  0.75760038  1
  O  O361  1  0.74922284  0.62752588  0.26719163  1
  O  O362  1  0.75629125  0.61934275  0.75739245  1
  O  O363  1  0.37134595  0.13059354  0.36439981  1
  O  O364  1  0.38020194  0.10582492  0.87965965  1
  O  O365  1  0.38450949  0.61361910  0.35732337  1
  O  O366  1  0.36915536  0.61011682  0.86502069  1
  O  O367  1  0.86758444  0.11239770  0.36604923  1
  O  O368  1  0.86530002  0.11702614  0.87068495  1
  O  O369  1  0.85901639  0.63018515  0.37665642  1
  O  O370  1  0.86999777  0.61875499  0.87099193  1
  O  O371  1  0.11724531  0.38553238  0.13439677  1
  O  O372  1  0.12016924  0.37954699  0.62390561  1
  O  O373  1  0.13902371  0.87050775  0.13487713  1
  O  O374  1  0.13542876  0.87186018  0.63892393  1
  O  O375  1  0.62857187  0.38323761  0.13057897  1
  O  O376  1  0.63929605  0.37564865  0.61347046  1
  O  O377  1  0.62427503  0.88603503  0.13357278  1
  O  O378  1  0.62376169  0.88035228  0.63932281  1
  O  O379  1  0.11351597  0.25755091  0.23961140  1
  O  O380  1  0.11194912  0.24918015  0.77178723  1
  O  O381  1  0.14574098  0.73563375  0.26234804  1
  O  O382  1  0.11355045  0.74703877  0.75039269  1
  O  O383  1  0.61559954  0.25441910  0.25213265  1
  O  O384  1  0.61409869  0.25398990  0.74935900  1
  O  O385  1  0.61356280  0.75802970  0.24782324  1
  O  O386  1  0.62053682  0.75688290  0.75519101  1
  O  O387  1  0.38887282  0.24318524  0.24690354  1
  O  O388  1  0.39829447  0.27113820  0.73212604  1
  O  O389  1  0.38931548  0.73655724  0.24357743  1
  O  O390  1  0.37853740  0.73894564  0.75525146  1
  O  O391  1  0.87725205  0.24217614  0.23831633  1
  O  O392  1  0.87905638  0.24096813  0.75457642  1
  O  O393  1  0.87427702  0.74813286  0.23919938  1
  O  O394  1  0.88425661  0.74852923  0.74602338  1
  O  O395  1  0.38649936  0.50616965  0.48062544  1
  O  O396  1  0.38153454  0.49104972  0.99246508  1
  O  O397  1  0.39174861  1.00065092  0.55432631  1
  O  O398  1  0.38208565  0.98982887  0.99221991  1
  O  O399  1  0.88648927  0.49519784  0.50698291  1
  O  O400  1  0.88172226  0.50103318  0.98865630  1
  O  O401  1  0.87570181  0.98920891  0.49569187  1
  O  O402  1  0.88221924  0.99224839  0.99823312  1
  O  O403  1  0.12373579  0.00721097  0.00040416  1
  O  O404  1  0.10870050  0.01462773  0.49803229  1
  O  O405  1  0.11983957  0.49308366  0.00934886  1
  O  O406  1  0.11009432  0.50111170  0.51126873  1
  O  O407  1  0.61840766  -0.00073121  0.00802430  1
  O  O408  1  0.63736873  0.00734117  0.51282781  1
  O  O409  1  0.61991826  0.50782263  0.00582366  1
  O  O410  1  0.60426013  0.50099712  0.49391122  1
  O  O411  1  0.38835628  0.37966799  0.10927588  1
  O  O412  1  0.38431509  0.36395387  0.60825393  1
  O  O413  1  0.38003275  0.87785213  0.10799521  1
  O  O414  1  0.35407121  0.85859324  0.64148400  1
  O  O415  1  0.86777295  0.36364942  0.12223486  1
  O  O416  1  0.86393974  0.37407028  0.61069069  1
  O  O417  1  0.88054484  0.86644971  0.12182367  1
  O  O418  1  0.87726722  0.86750733  0.61723478  1
  O  O419  1  0.13994707  0.12869925  0.36771850  1
  O  O420  1  0.12686798  0.13346852  0.88956332  1
  O  O421  1  0.12419458  0.61442754  0.38519234  1
  O  O422  1  0.13837085  0.62081981  0.87192327  1
  O  O423  1  0.63405935  0.12057602  0.38460093  1
  O  O424  1  0.63958045  0.11708890  0.87663877  1
  O  O425  1  0.63495458  0.63239450  0.38368829  1
  O  O426  1  0.62882431  0.63187399  0.88104906  1
