# generated using pymatgen
data_V85Zn86O256
_symmetry_space_group_name_H-M   'P 1'
_cell_length_a   16.91375620
_cell_length_b   16.91424877
_cell_length_c   16.92325675
_cell_angle_alpha   90.02889080
_cell_angle_beta   89.99777962
_cell_angle_gamma   90.02016531
_symmetry_Int_Tables_number   1
_chemical_formula_structural   V85Zn86O256
_chemical_formula_sum   'V85 Zn86 O256'
_cell_volume   4841.46326461
_cell_formula_units_Z   1
loop_
 _symmetry_equiv_pos_site_id
 _symmetry_equiv_pos_as_xyz
  1  'x, y, z'
loop_
 _atom_site_type_symbol
 _atom_site_label
 _atom_site_symmetry_multiplicity
 _atom_site_fract_x
 _atom_site_fract_y
 _atom_site_fract_z
 _atom_site_occupancy
  V  V0  1  -0.01148955  0.87410619  0.37550157  1
  V  V1  1  0.25734103  0.24628628  0.50217525  1
  V  V2  1  0.74944474  0.87520836  0.62370162  1
  V  V3  1  0.50048614  -0.00093597  0.49635761  1
  V  V4  1  0.12982205  -0.00805843  0.62478938  1
  V  V5  1  0.37268643  0.62859204  0.74519161  1
  V  V6  1  0.50297395  0.00697936  0.00298715  1
  V  V7  1  0.11527205  0.00308418  0.12776760  1
  V  V8  1  0.37724819  0.49701884  0.87666841  1
  V  V9  1  0.73242356  0.85561485  0.15748548  1
  V  V10  1  0.49510836  0.62202377  0.61961036  1
  V  V11  1  0.87733425  0.24230214  0.62293604  1
  V  V12  1  0.75196354  0.00651870  0.25407209  1
  V  V13  1  0.50455541  0.25738700  0.74553398  1
  V  V14  1  0.12494932  0.37757399  0.25207909  1
  V  V15  1  0.75189357  0.75140039  -0.00994592  1
  V  V16  1  0.62794650  0.74088808  0.87026958  1
  V  V17  1  0.87537564  0.74948429  0.12349500  1
  V  V18  1  0.74120530  0.49661683  0.75512803  1
  V  V19  1  0.74378959  0.61783729  0.37162427  1
  V  V20  1  0.62773710  0.62295238  0.00590484  1
  V  V21  1  0.87616304  0.00458263  0.87450626  1
  V  V22  1  -0.00177790  0.74664743  0.75140941  1
  V  V23  1  0.12603281  0.62237095  0.00131091  1
  V  V24  1  0.25072480  0.24940603  0.00157725  1
  V  V25  1  0.49623296  0.75090633  0.74238033  1
  V  V26  1  0.25320789  0.37568911  0.13206947  1
  V  V27  1  0.75415844  0.38913025  0.11405925  1
  V  V28  1  0.74747239  0.36931536  0.61668281  1
  V  V29  1  0.37407844  0.13042703  0.74263985  1
  V  V30  1  0.12474407  0.87424464  0.25100353  1
  V  V31  1  0.51049455  0.85900792  0.36529027  1
  V  V32  1  0.24904613  0.62330234  0.87532260  1
  V  V33  1  -0.00755157  -0.00143680  0.49840773  1
  V  V34  1  0.62711825  0.00442525  0.12894393  1
  V  V35  1  0.61979887  0.49440329  0.62292877  1
  V  V36  1  0.38370877  0.24615594  0.12434560  1
  V  V37  1  -0.00273625  0.87251371  0.87885093  1
  V  V38  1  0.12082725  0.49968202  0.61138805  1
  V  V39  1  0.37123768  0.87007154  0.51080894  1
  V  V40  1  0.62889480  0.13430900  0.00273984  1
  V  V41  1  0.76211143  0.12757455  0.37927323  1
  V  V42  1  0.24898259  0.74697701  0.51188763  1
  V  V43  1  0.50181293  0.50119680  0.01075201  1
  V  V44  1  0.13211145  0.87179015  0.75029595  1
  V  V45  1  0.24878701  0.62059058  0.37358452  1
  V  V46  1  0.38024898  0.49917175  0.37463882  1
  V  V47  1  0.00267168  0.37784050  0.38374135  1
  V  V48  1  0.62806862  0.13138622  0.49837872  1
  V  V49  1  0.25237150  0.36842623  0.62573112  1
  V  V50  1  0.75541743  0.00647209  0.74946740  1
  V  V51  1  0.62412667  0.87653152  0.74909483  1
  V  V52  1  0.88420651  0.12856275  0.24090382  1
  V  V53  1  0.12272826  0.12346026  0.50124846  1
  V  V54  1  0.11624386  0.12583634  0.00425007  1
  V  V55  1  0.61892133  0.62186940  0.49687535  1
  V  V56  1  0.24790507  0.49862591  0.74870699  1
  V  V57  1  0.37713261  0.87666474  0.00066563  1
  V  V58  1  0.38048341  0.12418892  0.24667481  1
  V  V59  1  0.87241076  0.25631749  0.11169323  1
  V  V60  1  0.50669648  0.24786062  0.24833734  1
  V  V61  1  0.38066985  0.37727256  0.50117756  1
  V  V62  1  0.74161004  0.74784485  0.49743952  1
  V  V63  1  -0.01056890  0.37706361  0.88000093  1
  V  V64  1  0.12090949  0.37221752  0.75164757  1
  V  V65  1  0.25223087  0.75146375  0.00214550  1
  V  V66  1  0.63235443  0.25249714  0.37463405  1
  V  V67  1  0.87541644  0.74938121  0.62241644  1
  V  V68  1  0.50123918  0.87614684  0.87414403  1
  V  V69  1  0.00123618  0.61817195  0.61261707  1
  V  V70  1  -0.00117588  0.74801072  0.25083577  1
  V  V71  1  0.37739594  0.62311627  0.24975658  1
  V  V72  1  0.38487498  0.75142595  0.13097840  1
  V  V73  1  0.25115248  0.12348101  0.37456704  1
  V  V74  1  0.37689921  -0.00492874  0.37298860  1
  V  V75  1  0.12905533  0.50003279  0.12865772  1
  V  V76  1  0.87950010  0.50189945  0.38631541  1
  V  V77  1  0.86908371  0.62084694  0.75143308  1
  V  V78  1  0.25023775  -0.00057629  0.24849160  1
  V  V79  1  0.75221947  0.13383547  0.87656001  1
  V  V80  1  0.25038488  0.12226229  0.87534926  1
  V  V81  1  0.63500086  0.38928543  0.24612482  1
  V  V82  1  0.12760434  0.74510965  0.37827302  1
  V  V83  1  0.87201453  0.61537797  0.24962369  1
  V  V84  1  0.62417078  0.00271654  0.62459150  1
  Zn  Zn85  1  -0.00385355  0.11862763  0.63509581  1
  Zn  Zn86  1  0.37723867  0.00152098  0.87418571  1
  Zn  Zn87  1  0.12126371  0.74813730  0.87799101  1
  Zn  Zn88  1  0.86612866  0.50081145  0.88131975  1
  Zn  Zn89  1  0.50626329  0.62640710  0.13338477  1
  Zn  Zn90  1  0.49433877  0.12969950  0.62022217  1
  Zn  Zn91  1  0.51019886  0.37688246  0.87347513  1
  Zn  Zn92  1  0.86911319  0.87779740  0.49585547  1
  Zn  Zn93  1  0.00036994  0.62233993  0.12633677  1
  Zn  Zn94  1  0.62879724  0.25604430  0.87335317  1
  Zn  Zn95  1  -0.00520255  0.00217916  0.00497265  1
  Zn  Zn96  1  0.86968058  0.87767345  0.00458151  1
  Zn  Zn97  1  0.50414638  0.37768912  0.37739302  1
  Zn  Zn98  1  -0.00884818  0.24376543  0.75402098  1
  Zn  Zn99  1  0.12173355  0.24961097  0.87486824  1
  Zn  Zn100  1  0.12401638  0.24924604  0.37367641  1
  Zn  Zn101  1  0.00025850  0.25191014  0.24748518  1
  Zn  Zn102  1  0.25060816  0.87621542  0.12570991  1
  Zn  Zn103  1  0.25391721  -0.00514477  0.74684379  1
  Zn  Zn104  1  -0.00591172  0.49450569  0.00490239  1
  Zn  Zn105  1  0.37893363  0.37405456  0.00043156  1
  Zn  Zn106  1  0.87607897  0.37396795  0.49983812  1
  Zn  Zn107  1  0.18798848  0.18855053  0.18747439  1
  Zn  Zn108  1  0.18365826  0.18548753  0.68654342  1
  Zn  Zn109  1  0.19343480  0.68749420  0.18953826  1
  Zn  Zn110  1  0.18183798  0.68470267  0.68734514  1
  Zn  Zn111  1  0.69488999  0.19234013  0.18453340  1
  Zn  Zn112  1  0.68769431  0.18803531  0.68672597  1
  Zn  Zn113  1  0.69097153  0.68440597  0.18678115  1
  Zn  Zn114  1  0.68526869  0.68352062  0.68433210  1
  Zn  Zn115  1  0.31305964  0.31077091  0.31348119  1
  Zn  Zn116  1  0.31415757  0.30982447  0.81315903  1
  Zn  Zn117  1  0.31568511  0.81197994  0.31584766  1
  Zn  Zn118  1  0.31377241  0.81025150  0.81637185  1
  Zn  Zn119  1  0.81382892  0.31453009  0.31051259  1
  Zn  Zn120  1  0.81047677  0.31773701  0.80508804  1
  Zn  Zn121  1  0.79761686  0.80149029  0.30889677  1
  Zn  Zn122  1  0.81292104  0.81567413  0.81016395  1
  Zn  Zn123  1  0.19257459  0.43667847  0.43637997  1
  Zn  Zn124  1  0.18590446  0.43497085  0.93908943  1
  Zn  Zn125  1  0.18590026  0.93313096  0.43737654  1
  Zn  Zn126  1  0.18508295  0.93849783  0.93803347  1
  Zn  Zn127  1  0.68612899  0.44097555  0.43735950  1
  Zn  Zn128  1  0.68177393  0.43657370  0.93672182  1
  Zn  Zn129  1  0.68683343  0.94060638  0.43374519  1
  Zn  Zn130  1  0.68738132  0.93802207  0.93741502  1
  Zn  Zn131  1  0.31099619  0.06273996  0.06428459  1
  Zn  Zn132  1  0.31109314  0.05705673  0.56272778  1
  Zn  Zn133  1  0.31356307  0.56193325  0.06565705  1
  Zn  Zn134  1  0.30857822  0.56009119  0.56045972  1
  Zn  Zn135  1  0.80940771  0.06149997  0.06406836  1
  Zn  Zn136  1  0.81112214  0.06425056  0.56079835  1
  Zn  Zn137  1  0.81020827  0.56426661  0.05893663  1
  Zn  Zn138  1  0.80794709  0.56128251  0.56523604  1
  Zn  Zn139  1  0.43812947  0.43589932  0.19309475  1
  Zn  Zn140  1  0.43433793  0.43869363  0.68594484  1
  Zn  Zn141  1  0.44317154  0.93524078  0.18682875  1
  Zn  Zn142  1  0.43614932  0.94351817  0.68673178  1
  Zn  Zn143  1  0.93965334  0.43540473  0.18910486  1
  Zn  Zn144  1  0.93429230  0.43522642  0.68786027  1
  Zn  Zn145  1  0.93040041  0.93532562  0.19072461  1
  Zn  Zn146  1  0.94045833  0.93618062  0.68866272  1
  Zn  Zn147  1  0.05913749  0.06062519  0.31636828  1
  Zn  Zn148  1  0.06312578  0.06113558  0.81343530  1
  Zn  Zn149  1  0.06188045  0.56068846  0.31246564  1
  Zn  Zn150  1  0.06012409  0.55965440  0.80801839  1
  Zn  Zn151  1  0.56567945  0.06336501  0.31293714  1
  Zn  Zn152  1  0.56294116  0.06781387  0.81416196  1
  Zn  Zn153  1  0.55666404  0.56485373  0.31459834  1
  Zn  Zn154  1  0.56078519  0.56063453  0.81237299  1
  Zn  Zn155  1  0.44040523  0.18879151  0.43326710  1
  Zn  Zn156  1  0.43943121  0.18783426  0.93304865  1
  Zn  Zn157  1  0.43378656  0.68909427  0.43790539  1
  Zn  Zn158  1  0.44012393  0.68571898  0.93632592  1
  Zn  Zn159  1  0.93887666  0.19429468  0.44053679  1
  Zn  Zn160  1  0.93703066  0.18894353  0.93426120  1
  Zn  Zn161  1  0.93422713  0.68856975  0.43698738  1
  Zn  Zn162  1  0.93299325  0.67387316  0.94126975  1
  Zn  Zn163  1  0.05931497  0.31121488  0.06425535  1
  Zn  Zn164  1  0.06428012  0.30927856  0.56292968  1
  Zn  Zn165  1  0.06315290  0.81338280  0.06310846  1
  Zn  Zn166  1  0.06239719  0.81059012  0.56211612  1
  Zn  Zn167  1  0.56629189  0.31975784  0.06416778  1
  Zn  Zn168  1  0.56101369  0.30930069  0.56623339  1
  Zn  Zn169  1  0.56499458  0.81367867  0.06014551  1
  Zn  Zn170  1  0.55975332  0.81198495  0.55921318  1
  O  O171  1  0.12995455  0.11584621  0.11780593  1
  O  O172  1  0.12503786  0.11588923  0.61246035  1
  O  O173  1  0.13030905  0.61627014  0.12101943  1
  O  O174  1  0.11373275  0.61199436  0.63057004  1
  O  O175  1  0.63588998  0.11616485  0.11666306  1
  O  O176  1  0.62454629  0.12021580  0.61446312  1
  O  O177  1  0.62208231  0.63322333  0.11392728  1
  O  O178  1  0.61471090  0.61670375  0.61809801  1
  O  O179  1  0.37318186  0.38241476  0.38152675  1
  O  O180  1  0.37299700  0.38824083  0.87693055  1
  O  O181  1  0.38377596  0.88065009  0.38352580  1
  O  O182  1  0.38300791  0.87749395  0.88223728  1
  O  O183  1  0.88247237  0.38400786  0.37629121  1
  O  O184  1  0.88541935  0.37890623  0.87170994  1
  O  O185  1  0.88615569  0.86143996  0.37599017  1
  O  O186  1  0.88118017  0.88433267  0.87568500  1
  O  O187  1  0.25564057  0.00308798  0.36895451  1
  O  O188  1  0.25110742  0.01235582  0.87546287  1
  O  O189  1  0.25615707  0.51497366  0.38034659  1
  O  O190  1  0.25554655  0.50431085  0.87037413  1
  O  O191  1  0.74613577  0.01461189  0.36759100  1
  O  O192  1  0.75662581  0.00463505  0.86730927  1
  O  O193  1  0.75896675  0.51152241  0.37954922  1
  O  O194  1  0.74784951  0.49815515  0.85847524  1
  O  O195  1  0.24059107  0.48830099  0.11867311  1
  O  O196  1  0.24124073  0.49320054  0.63114221  1
  O  O197  1  0.24095351  0.99817642  0.13394778  1
  O  O198  1  0.23497644  0.99800133  0.62545297  1
  O  O199  1  0.75859983  0.48930869  0.12844583  1
  O  O200  1  0.73842795  0.49191152  0.62891226  1
  O  O201  1  0.74225598  0.98988774  0.13366453  1
  O  O202  1  0.74610639  0.99600363  0.63121421  1
  O  O203  1  0.00982266  0.37555349  0.26119753  1
  O  O204  1  0.00655525  0.37273272  0.75871379  1
  O  O205  1  0.00294272  0.86898278  0.25756153  1
  O  O206  1  0.00612270  0.86738468  0.76070127  1
  O  O207  1  0.51170187  0.36404592  0.25050260  1
  O  O208  1  0.48996605  0.36050128  0.74956372  1
  O  O209  1  0.49904389  0.87659551  0.26607730  1
  O  O210  1  0.50236671  0.86869490  0.75157123  1
  O  O211  1  0.49660757  0.13848906  0.25433690  1
  O  O212  1  0.48699224  0.12990182  0.74877090  1
  O  O213  1  0.48546485  0.62611691  0.24995422  1
  O  O214  1  0.49227192  0.63095759  0.74198409  1
  O  O215  1  0.98748074  0.12788720  0.25488106  1
  O  O216  1  1.01028520  0.13172767  0.74695977  1
  O  O217  1  0.99278545  0.63201127  0.24829978  1
  O  O218  1  0.99144826  0.63001444  0.74151829  1
  O  O219  1  0.37034167  0.24891774  0.00784055  1
  O  O220  1  0.36339635  0.25409056  0.49327391  1
  O  O221  1  0.37055531  0.75529392  0.00422009  1
  O  O222  1  0.36422334  0.76144443  0.49922248  1
  O  O223  1  0.87481485  0.24570326  0.01309817  1
  O  O224  1  0.87433286  0.25521349  0.51510429  1
  O  O225  1  0.86859178  0.74839379  0.00564062  1
  O  O226  1  0.86594857  0.74961254  0.51135960  1
  O  O227  1  0.13542533  0.23912537  0.49916757  1
  O  O228  1  0.13362102  0.24256826  1.00354128  1
  O  O229  1  0.13926791  0.75693270  0.49195640  1
  O  O230  1  0.13669462  0.74496118  1.00119276  1
  O  O231  1  0.61885713  0.23930363  0.49157239  1
  O  O232  1  0.61719246  0.23669610  1.00158170  1
  O  O233  1  0.63109527  0.73624513  0.50847191  1
  O  O234  1  0.62988878  0.74520435  0.98888914  1
  O  O235  1  0.49034002  0.25556473  0.13055846  1
  O  O236  1  0.49750714  0.24598754  0.63864670  1
  O  O237  1  0.48846716  0.75033088  0.11934782  1
  O  O238  1  0.50288354  0.74223417  0.63636131  1
  O  O239  1  0.98065936  0.26154362  0.13039106  1
  O  O240  1  0.98772491  0.24862437  0.62479420  1
  O  O241  1  0.99129329  0.75041790  0.13123524  1
  O  O242  1  0.99166039  0.74411262  0.62988744  1
  O  O243  1  0.00421454  0.26059347  0.37127747  1
  O  O244  1  0.00098028  0.26279843  0.87310135  1
  O  O245  1  0.00847652  0.75321395  0.37208274  1
  O  O246  1  -0.00285531  0.75505082  0.87023707  1
  O  O247  1  0.51285504  0.25353047  0.36663304  1
  O  O248  1  0.49904569  0.25258216  0.86111385  1
  O  O249  1  0.49843493  0.75943239  0.37667411  1
  O  O250  1  0.50533920  0.75506447  0.86266597  1
  O  O251  1  0.24606405  0.12820329  0.49571233  1
  O  O252  1  0.24545767  0.13349739  0.99540644  1
  O  O253  1  0.25714954  0.64040714  0.49189110  1
  O  O254  1  0.24354896  0.63096472  0.99741063  1
  O  O255  1  0.74097023  0.12126480  0.49017741  1
  O  O256  1  0.74062651  0.11893350  0.98908787  1
  O  O257  1  0.73889186  0.62941375  0.49744600  1
  O  O258  1  0.73873415  0.63844309  0.99937604  1
  O  O259  1  0.25081063  0.36241871  0.00877510  1
  O  O260  1  0.25559455  0.36429894  0.50591392  1
  O  O261  1  0.25730777  0.86781238  -0.00058538  1
  O  O262  1  0.26238521  0.86460672  0.49440682  1
  O  O263  1  0.74859668  0.38392117  0.01438904  1
  O  O264  1  0.75060597  0.38039407  0.51334153  1
  O  O265  1  0.74943265  0.86041616  -0.00249982  1
  O  O266  1  0.74847578  0.86714646  0.50383658  1
  O  O267  1  0.12633095  0.48868180  0.24301574  1
  O  O268  1  0.13093573  0.48826615  0.74424593  1
  O  O269  1  0.12904925  0.99633564  0.24594930  1
  O  O270  1  0.12734505  0.98913615  0.74292403  1
  O  O271  1  0.61785898  0.48682578  0.25308140  1
  O  O272  1  0.63435321  0.50691473  0.74062965  1
  O  O273  1  0.63626737  1.00781313  0.24096337  1
  O  O274  1  0.62915109  0.99599837  0.74398654  1
  O  O275  1  0.37167261  0.00421072  0.25223224  1
  O  O276  1  0.37219665  0.01136997  0.75349251  1
  O  O277  1  0.37386932  0.50703483  0.25991407  1
  O  O278  1  0.36903576  0.50930131  0.75663088  1
  O  O279  1  0.87113459  0.02129712  0.24182047  1
  O  O280  1  0.86525834  -0.00625391  0.75780471  1
  O  O281  1  0.88166108  0.51241448  0.25787236  1
  O  O282  1  0.86234930  0.50607533  0.74966435  1
  O  O283  1  0.12207214  0.37619397  0.36801997  1
  O  O284  1  0.11902628  0.37287548  0.86673459  1
  O  O285  1  0.11831739  0.86323776  0.36900754  1
  O  O286  1  0.11521425  0.87327042  0.86979404  1
  O  O287  1  0.62614039  0.36995193  0.36702884  1
  O  O288  1  0.62425846  0.36895156  0.87201166  1
  O  O289  1  0.60905203  0.87497734  0.38388673  1
  O  O290  1  0.61902480  0.86670433  0.86757868  1
  O  O291  1  0.37136305  0.13412438  0.13433865  1
  O  O292  1  0.37228838  0.11989629  0.63871150  1
  O  O293  1  0.37457367  0.63305656  0.13345819  1
  O  O294  1  0.38205477  0.61614580  0.63321705  1
  O  O295  1  0.86893935  0.13779038  0.13435890  1
  O  O296  1  0.87369473  0.13764265  0.62288603  1
  O  O297  1  0.87397794  0.63504833  0.13355682  1
  O  O298  1  0.87987423  0.62996975  0.63020839  1
  O  O299  1  0.26100648  0.25452577  0.11965928  1
  O  O300  1  0.24630523  0.25780019  0.61650009  1
  O  O301  1  0.25962393  0.75152631  0.11401591  1
  O  O302  1  0.24457826  0.74501553  0.61097092  1
  O  O303  1  0.76445333  0.26497251  0.12970827  1
  O  O304  1  0.75420435  0.26341343  0.62915017  1
  O  O305  1  0.75797835  0.75224023  0.10932658  1
  O  O306  1  0.75481657  0.75309824  0.61724250  1
  O  O307  1  0.24714783  0.24070328  0.38171337  1
  O  O308  1  0.24935647  0.24164065  0.88498587  1
  O  O309  1  0.24419833  0.74281846  0.38198291  1
  O  O310  1  0.25016135  0.74165662  0.88756843  1
  O  O311  1  0.73980359  0.24422852  0.37103283  1
  O  O312  1  0.75384947  0.23683979  0.86482470  1
  O  O313  1  0.75475288  0.73494881  0.39201965  1
  O  O314  1  0.74016168  0.75321421  0.87511689  1
  O  O315  1  0.01305009  0.12419334  -0.00388407  1
  O  O316  1  0.00775833  0.11633562  0.49988299  1
  O  O317  1  0.02018533  0.63330401  0.00592232  1
  O  O318  1  -0.00266174  0.63108366  0.51351801  1
  O  O319  1  0.50716764  0.11216507  -0.00553802  1
  O  O320  1  0.50602742  0.11712654  0.49852973  1
  O  O321  1  0.50814816  0.62001067  0.00259749  1
  O  O322  1  0.50228073  0.63076419  0.51169391  1
  O  O323  1  0.48410743  0.36649543  0.49989234  1
  O  O324  1  0.49868485  0.38607989  0.99814983  1
  O  O325  1  0.48906833  0.87952628  0.49460258  1
  O  O326  1  0.49699250  0.88408848  0.99447728  1
  O  O327  1  1.00254847  0.37257863  0.48774954  1
  O  O328  1  1.00579202  0.37740551  0.98418129  1
  O  O329  1  0.99777836  0.87975422  0.49243859  1
  O  O330  1  0.99717578  0.87472456  0.98878587  1
  O  O331  1  0.48552279  0.49696915  0.37741317  1
  O  O332  1  0.49092349  0.50003960  0.88142589  1
  O  O333  1  0.49657855  0.99755891  0.38481775  1
  O  O334  1  0.50214941  0.99296821  0.88310038  1
  O  O335  1  0.99200749  0.49318737  0.37367554  1
  O  O336  1  0.99960798  0.48585763  0.87290376  1
  O  O337  1  1.00471990  0.98604307  0.38503878  1
  O  O338  1  0.99201860  0.99159750  0.87748383  1
  O  O339  1  0.01092222  -0.00752064  0.12587034  1
  O  O340  1  0.00946252  -0.00149488  0.61681880  1
  O  O341  1  0.01385364  0.50037990  0.12364313  1
  O  O342  1  0.00741970  0.50563132  0.62912224  1
  O  O343  1  0.51602311  -0.00592325  0.11757451  1
  O  O344  1  0.50484637  0.00305240  0.61178156  1
  O  O345  1  0.49254867  0.50325433  0.11405622  1
  O  O346  1  0.51039339  0.50691078  0.63161974  1
  O  O347  1  0.24498559  0.36926053  0.23835030  1
  O  O348  1  0.24611653  0.37729532  0.74254431  1
  O  O349  1  0.24408709  0.88260637  0.25212488  1
  O  O350  1  0.23670556  0.87291462  0.75863559  1
  O  O351  1  0.73807773  0.37789067  0.24918957  1
  O  O352  1  0.75055525  0.39057865  0.73551779  1
  O  O353  1  0.77609589  0.90260526  0.25422271  1
  O  O354  1  0.74266457  0.88413604  0.74336868  1
  O  O355  1  0.25615599  0.11888279  0.25614454  1
  O  O356  1  0.25758699  0.12563872  0.75719262  1
  O  O357  1  0.26218256  0.62972207  0.26195318  1
  O  O358  1  0.25571302  0.62126397  0.75383236  1
  O  O359  1  0.76010930  0.12202922  0.25655978  1
  O  O360  1  0.74347423  0.11209439  0.75684686  1
  O  O361  1  0.75731722  0.62613134  0.26123998  1
  O  O362  1  0.75612559  0.60936553  0.73678956  1
  O  O363  1  0.37136074  0.11641929  0.36781555  1
  O  O364  1  0.36651472  0.12319052  0.86636791  1
  O  O365  1  0.36943138  0.61879166  0.37086531  1
  O  O366  1  0.37009748  0.61595016  0.86804220  1
  O  O367  1  0.86610781  0.13387190  0.36722239  1
  O  O368  1  0.86896404  0.11271481  0.87901487  1
  O  O369  1  0.86901014  0.61935700  0.36965742  1
  O  O370  1  0.87375063  0.63063020  0.85299968  1
  O  O371  1  0.13176232  0.37994150  0.13091489  1
  O  O372  1  0.13235573  0.37952752  0.63027644  1
  O  O373  1  0.12820254  0.88165366  0.13347473  1
  O  O374  1  0.11782345  0.87930937  0.63725454  1
  O  O375  1  0.63986105  0.37262132  0.13716801  1
  O  O376  1  0.63384053  0.38147862  0.61928523  1
  O  O377  1  0.63668783  0.88237366  0.12013090  1
  O  O378  1  0.62918035  0.88156658  0.62829631  1
  O  O379  1  0.12424752  0.26254315  0.24958452  1
  O  O380  1  0.12711592  0.26372948  0.74999651  1
  O  O381  1  0.12045202  0.75500519  0.25534953  1
  O  O382  1  0.11738106  0.75450958  0.75411543  1
  O  O383  1  0.62166946  0.25475540  0.25530586  1
  O  O384  1  0.60760547  0.24110354  0.75068806  1
  O  O385  1  0.69561197  0.78776986  0.23567159  1
  O  O386  1  0.61837257  0.75354797  0.75304897  1
  O  O387  1  0.38450547  0.24565627  0.24475711  1
  O  O388  1  0.38101685  0.23645092  0.75237218  1
  O  O389  1  0.36857723  0.74376473  0.23907115  1
  O  O390  1  0.38055730  0.73743578  0.75395639  1
  O  O391  1  0.87512380  0.23997683  0.24542080  1
  O  O392  1  0.87453436  0.25945901  0.72903557  1
  O  O393  1  0.87861979  0.73984011  0.24359634  1
  O  O394  1  0.87517684  0.74522697  0.73699979  1
  O  O395  1  0.36633121  0.48783447  0.49066449  1
  O  O396  1  0.38183025  0.50168349  0.99226187  1
  O  O397  1  0.38018448  0.99083270  0.49453116  1
  O  O398  1  0.38430697  0.99514486  1.00212865  1
  O  O399  1  0.87366564  0.50144335  0.48968744  1
  O  O400  1  0.89041348  0.53929832  0.98582124  1
  O  O401  1  0.88775229  0.99743852  0.50488327  1
  O  O402  1  0.87561724  0.99643911  0.99357167  1
  O  O403  1  0.12408019  0.00737732  0.01062350  1
  O  O404  1  0.11802322  0.00196709  0.50539784  1
  O  O405  1  0.12445606  0.50768794  0.00778829  1
  O  O406  1  0.13059371  0.49662215  0.51228143  1
  O  O407  1  0.62066968  0.00688997  0.00666999  1
  O  O408  1  0.61738795  0.00897876  0.50290914  1
  O  O409  1  0.61612436  0.51390128  -0.00488236  1
  O  O410  1  0.62401532  0.51165771  0.50842281  1
  O  O411  1  0.36815611  0.36741272  0.12490256  1
  O  O412  1  0.36029973  0.38215497  0.61708297  1
  O  O413  1  0.37348731  0.86881475  0.11869232  1
  O  O414  1  0.37706756  0.87944484  0.60982131  1
  O  O415  1  0.86466993  0.36933156  0.13040178  1
  O  O416  1  0.86243095  0.37283852  0.61980111  1
  O  O417  1  0.86113728  0.86137271  0.12823461  1
  O  O418  1  0.86829211  0.86590997  0.62363987  1
  O  O419  1  0.13119644  0.12219872  0.38637009  1
  O  O420  1  0.13419244  0.12680230  0.88527862  1
  O  O421  1  0.13185938  0.63655874  0.36869313  1
  O  O422  1  0.13113529  0.62370176  0.88210495  1
  O  O423  1  0.63377528  0.13359671  0.38021601  1
  O  O424  1  0.63465724  0.12824000  0.88361508  1
  O  O425  1  0.63037514  0.61958267  0.38338419  1
  O  O426  1  0.61815529  0.63722476  0.88022390  1
