# generated using pymatgen
data_V85Zn86O256
_symmetry_space_group_name_H-M   'P 1'
_cell_length_a   16.95358282
_cell_length_b   16.95831555
_cell_length_c   16.95554859
_cell_angle_alpha   90.00846092
_cell_angle_beta   89.94756430
_cell_angle_gamma   89.95356866
_symmetry_Int_Tables_number   1
_chemical_formula_structural   V85Zn86O256
_chemical_formula_sum   'V85 Zn86 O256'
_cell_volume   4874.78785702
_cell_formula_units_Z   1
loop_
 _symmetry_equiv_pos_site_id
 _symmetry_equiv_pos_as_xyz
  1  'x, y, z'
loop_
 _atom_site_type_symbol
 _atom_site_label
 _atom_site_symmetry_multiplicity
 _atom_site_fract_x
 _atom_site_fract_y
 _atom_site_fract_z
 _atom_site_occupancy
  V  V0  1  0.74843784  0.12563406  0.87764155  1
  V  V1  1  0.36965183  0.37161799  -0.00584089  1
  V  V2  1  0.87303937  0.50297235  0.37636304  1
  V  V3  1  0.74450784  0.49842541  0.25471508  1
  V  V4  1  0.88731365  0.88803629  0.48862064  1
  V  V5  1  0.62652370  0.50454174  0.62322978  1
  V  V6  1  0.50714248  0.23935476  0.22840521  1
  V  V7  1  0.12019332  0.87922714  0.75487612  1
  V  V8  1  0.25072939  0.50101290  0.25009105  1
  V  V9  1  0.75032939  0.75193386  0.48415591  1
  V  V10  1  0.25068480  0.86834448  0.12797983  1
  V  V11  1  0.50029481  0.75146215  0.74825452  1
  V  V12  1  0.12684451  0.50157892  0.62619013  1
  V  V13  1  0.50090280  0.62719413  0.62145464  1
  V  V14  1  0.72750849  0.12125392  0.37303251  1
  V  V15  1  0.37311981  0.63683249  0.24872732  1
  V  V16  1  0.37863032  0.87557681  0.00485991  1
  V  V17  1  0.74377467  0.87934310  0.13163798  1
  V  V18  1  0.49916057  0.50127807  0.49695699  1
  V  V19  1  0.87083741  0.62285905  0.25273889  1
  V  V20  1  0.87553588  0.87202079  -0.00498277  1
  V  V21  1  0.87408525  0.74923272  0.12483025  1
  V  V22  1  0.37020840  0.12224199  0.74107439  1
  V  V23  1  0.25508204  0.36538834  0.12141167  1
  V  V24  1  0.36460317  -0.00034239  0.87268228  1
  V  V25  1  0.37378760  0.35733060  0.49858742  1
  V  V26  1  0.37618329  0.62386128  0.75675313  1
  V  V27  1  0.87479575  0.24726467  0.13242559  1
  V  V28  1  0.87478062  0.37452219  0.49980421  1
  V  V29  1  0.25459228  0.36439394  0.62089132  1
  V  V30  1  0.25393196  -0.00318634  0.25326176  1
  V  V31  1  0.12116873  0.75535283  0.37825153  1
  V  V32  1  0.12412968  0.49967855  0.12656837  1
  V  V33  1  0.87364187  0.25051288  0.62505743  1
  V  V34  1  0.00025159  -0.00589370  -0.00687459  1
  V  V35  1  0.37495255  0.50012101  0.37686777  1
  V  V36  1  0.74405251  0.00154927  0.74759657  1
  V  V37  1  -0.00113898  0.12110511  0.61826679  1
  V  V38  1  0.12649467  0.62410024  0.00070236  1
  V  V39  1  0.11806672  0.87213691  0.25123484  1
  V  V40  1  0.93188694  0.06873512  0.30884046  1
  V  V41  1  0.25513407  0.74817056  0.00184904  1
  V  V42  1  0.62727059  0.87756050  0.74709193  1
  V  V43  1  0.87405202  0.75117101  0.62471085  1
  V  V44  1  0.25520027  0.49998645  0.75536708  1
  V  V45  1  -0.00158253  0.12377026  0.12098359  1
  V  V46  1  0.87682571  -0.00334773  0.87258127  1
  V  V47  1  0.63110965  0.62908046  0.48483419  1
  V  V48  1  0.87767521  0.37422118  -0.00108370  1
  V  V49  1  -0.00178391  0.25324870  0.75622758  1
  V  V50  1  0.12162334  0.37727856  0.75461573  1
  V  V51  1  0.62223366  0.25447413  0.87466012  1
  V  V52  1  0.74905371  0.37508232  0.62379433  1
  V  V53  1  0.12680892  0.36979010  0.24980851  1
  V  V54  1  0.62681589  0.75093172  0.87617878  1
  V  V55  1  0.73564284  0.24601633  0.49372081  1
  V  V56  1  0.14012104  0.25640024  0.38569907  1
  V  V57  1  0.12410574  0.62658635  0.50085049  1
  V  V58  1  0.50060334  0.01404406  0.49972852  1
  V  V59  1  0.50526863  0.87031563  0.38809269  1
  V  V60  1  0.25209944  0.88190666  0.63060090  1
  V  V61  1  0.13965720  0.12953568  0.50681555  1
  V  V62  1  0.52024330  0.75464129  0.25445374  1
  V  V63  1  0.75045281  0.50180758  0.75093289  1
  V  V64  1  0.00184790  0.37527742  0.37657175  1
  V  V65  1  0.87961836  0.49718810  0.87432379  1
  V  V66  1  0.62213994  0.49552330  0.12614933  1
  V  V67  1  0.13170208  0.12452527  -0.00307110  1
  V  V68  1  0.49419027  0.38579120  0.87322746  1
  V  V69  1  0.62534249  0.62406527  0.00116302  1
  V  V70  1  0.74701800  0.37309660  0.12992907  1
  V  V71  1  0.00222976  0.49406642  -0.00304070  1
  V  V72  1  0.37532936  0.75553135  0.62210890  1
  V  V73  1  0.12293372  -0.00157075  0.62429284  1
  V  V74  1  0.25283041  0.75695588  0.50027585  1
  V  V75  1  0.87569254  0.12368532  0.74840999  1
  V  V76  1  0.61033805  0.00476185  0.12701808  1
  V  V77  1  0.74993205  0.24862471  0.00132562  1
  V  V78  1  0.49550244  0.62941863  0.12697396  1
  V  V79  1  0.49902009  0.87978554  0.87803862  1
  V  V80  1  0.13032570  0.25162059  0.87724145  1
  V  V81  1  0.49171759  0.25175080  0.74536922  1
  V  V82  1  0.51235989  0.36687603  0.36365672  1
  V  V83  1  0.11861311  0.75239930  0.87645992  1
  V  V84  1  -0.00457638  0.75067820  0.25561904  1
  Zn  Zn85  1  0.38558205  0.12884387  0.24216884  1
  Zn  Zn86  1  0.25021752  0.62763664  0.37492230  1
  Zn  Zn87  1  0.49134300  0.50344453  -0.00259832  1
  Zn  Zn88  1  0.75168646  0.87843404  0.61798906  1
  Zn  Zn89  1  0.50446417  0.13581280  0.61999653  1
  Zn  Zn90  1  -0.00187810  0.24859766  0.25310677  1
  Zn  Zn91  1  0.24799222  0.12262137  0.87017497  1
  Zn  Zn92  1  0.37345356  -0.00558011  0.38049573  1
  Zn  Zn93  1  -0.00196049  0.62254939  0.12605114  1
  Zn  Zn94  1  0.00012177  0.50108654  0.50283002  1
  Zn  Zn95  1  0.62052436  0.37800247  0.74876918  1
  Zn  Zn96  1  0.12192238  -0.00520737  0.12144192  1
  Zn  Zn97  1  0.75138058  0.00325223  0.25493211  1
  Zn  Zn98  1  0.25677016  0.12639385  0.37808044  1
  Zn  Zn99  1  0.60176602  0.12627355  0.01402901  1
  Zn  Zn100  1  0.62660852  0.01117437  0.61561146  1
  Zn  Zn101  1  0.25450469  0.62226237  0.87842119  1
  Zn  Zn102  1  0.75070646  0.62444985  0.87604526  1
  Zn  Zn103  1  0.00077379  0.62703996  0.62959979  1
  Zn  Zn104  1  0.87787816  0.62637458  0.75104082  1
  Zn  Zn105  1  0.75013858  0.75041319  0.00122969  1
  Zn  Zn106  1  -0.00266681  0.75168242  0.75471459  1
  Zn  Zn107  1  0.22147291  0.16236498  0.16350202  1
  Zn  Zn108  1  0.18777334  0.18782533  0.69026326  1
  Zn  Zn109  1  0.18698388  0.68753694  0.18711577  1
  Zn  Zn110  1  0.18827635  0.69022689  0.69003958  1
  Zn  Zn111  1  0.67841814  0.18723339  0.19520641  1
  Zn  Zn112  1  0.68252550  0.18821760  0.68788891  1
  Zn  Zn113  1  0.69190462  0.68396487  0.18612765  1
  Zn  Zn114  1  0.69149401  0.68809099  0.68387092  1
  Zn  Zn115  1  0.32273788  0.31199059  0.30623395  1
  Zn  Zn116  1  0.31174294  0.31224398  0.81147383  1
  Zn  Zn117  1  0.31488447  0.81597718  0.31778317  1
  Zn  Zn118  1  0.30773283  0.81079599  0.81297273  1
  Zn  Zn119  1  0.80760843  0.31058919  0.31412023  1
  Zn  Zn120  1  0.81163243  0.31662818  0.81250645  1
  Zn  Zn121  1  0.81461139  0.81750987  0.31400178  1
  Zn  Zn122  1  0.81112604  0.81260503  0.81212851  1
  Zn  Zn123  1  0.19260541  0.43936430  0.44013969  1
  Zn  Zn124  1  0.18904965  0.43644959  0.93553947  1
  Zn  Zn125  1  0.18268317  0.93794267  0.44181734  1
  Zn  Zn126  1  0.18807428  0.93458123  0.93794653  1
  Zn  Zn127  1  0.68809102  0.43854365  0.43957624  1
  Zn  Zn128  1  0.68701594  0.43750240  0.93949871  1
  Zn  Zn129  1  0.68224896  0.93475040  0.43255672  1
  Zn  Zn130  1  0.68685754  0.94065043  0.94382993  1
  Zn  Zn131  1  0.31865623  0.05298195  0.06452389  1
  Zn  Zn132  1  0.32073149  0.05795965  0.56201744  1
  Zn  Zn133  1  0.31404730  0.55683356  0.06354818  1
  Zn  Zn134  1  0.31044291  0.56548053  0.56506163  1
  Zn  Zn135  1  0.81219620  0.06175143  0.06257374  1
  Zn  Zn136  1  0.80802656  0.06406505  0.55826541  1
  Zn  Zn137  1  0.81126998  0.56182952  0.06365497  1
  Zn  Zn138  1  0.81196783  0.56764196  0.56116739  1
  Zn  Zn139  1  0.43436050  0.43755555  0.18730131  1
  Zn  Zn140  1  0.43568404  0.43774520  0.68255403  1
  Zn  Zn141  1  0.43595775  0.93000610  0.18937707  1
  Zn  Zn142  1  0.43998616  0.94148599  0.68549436  1
  Zn  Zn143  1  0.93750480  0.43545393  0.18738969  1
  Zn  Zn144  1  0.93930566  0.43839731  0.68743716  1
  Zn  Zn145  1  0.93652173  0.93405189  0.18281789  1
  Zn  Zn146  1  0.93772765  0.93438062  0.68252525  1
  Zn  Zn147  1  0.09809183  0.07612680  0.30316823  1
  Zn  Zn148  1  0.06282076  0.06166266  0.80881388  1
  Zn  Zn149  1  0.06122278  0.56317152  0.31482120  1
  Zn  Zn150  1  0.06170462  0.56676470  0.81414504  1
  Zn  Zn151  1  0.56287964  0.05305581  0.30752003  1
  Zn  Zn152  1  0.53789647  0.08448238  0.84837599  1
  Zn  Zn153  1  0.55950735  0.56000013  0.30949455  1
  Zn  Zn154  1  0.56396263  0.56477838  0.81036455  1
  Zn  Zn155  1  0.43760771  0.18368505  0.42102761  1
  Zn  Zn156  1  0.42885474  0.19430814  0.93785371  1
  Zn  Zn157  1  0.43810451  0.68974076  0.43499837  1
  Zn  Zn158  1  0.43986570  0.69118461  0.93849577  1
  Zn  Zn159  1  0.94284055  0.19405709  0.44346826  1
  Zn  Zn160  1  0.93841602  0.18626242  0.93782039  1
  Zn  Zn161  1  0.93652472  0.68837831  0.44007599  1
  Zn  Zn162  1  0.93866075  0.68135566  0.93831044  1
  Zn  Zn163  1  0.06483064  0.31049100  0.06300559  1
  Zn  Zn164  1  0.06300196  0.31262928  0.56652779  1
  Zn  Zn165  1  0.06037458  0.80960391  0.06468314  1
  Zn  Zn166  1  0.05886591  0.81582793  0.56385850  1
  Zn  Zn167  1  0.55995697  0.31455552  0.05793619  1
  Zn  Zn168  1  0.55886566  0.31801778  0.56148955  1
  Zn  Zn169  1  0.56260843  0.81214186  0.06617073  1
  Zn  Zn170  1  0.56919081  0.81296563  0.56177220  1
  O  O171  1  0.11493688  0.12352930  0.11439060  1
  O  O172  1  0.12001773  0.11981052  0.62442444  1
  O  O173  1  0.12376126  0.61722657  0.11846103  1
  O  O174  1  0.12597162  0.61927461  0.61897986  1
  O  O175  1  0.63028690  0.11062288  0.12353257  1
  O  O176  1  0.61653504  0.12295733  0.63014432  1
  O  O177  1  0.62061606  0.61615475  0.11848472  1
  O  O178  1  0.61932803  0.62082715  0.61947002  1
  O  O179  1  0.37990489  0.38406686  0.38269205  1
  O  O180  1  0.37913666  0.37550490  0.88300942  1
  O  O181  1  0.39728644  0.87826668  0.36233673  1
  O  O182  1  0.38004934  0.87630278  0.87933559  1
  O  O183  1  0.88291459  0.38136721  0.37804859  1
  O  O184  1  0.87007854  0.38750714  0.88386937  1
  O  O185  1  0.87548549  0.87528534  0.38868773  1
  O  O186  1  0.87004100  0.87859188  0.88762125  1
  O  O187  1  0.25015011  -0.00484542  0.36869950  1
  O  O188  1  0.26144870  -0.00543000  0.87170837  1
  O  O189  1  0.25743296  0.50348737  0.36817265  1
  O  O190  1  0.24607089  0.50266880  0.85961787  1
  O  O191  1  0.74482577  0.01661239  0.37691076  1
  O  O192  1  0.75559008  0.00860120  0.87097289  1
  O  O193  1  0.75961467  0.49046945  0.36423636  1
  O  O194  1  0.75500205  0.49996085  0.86654664  1
  O  O195  1  0.24155161  0.49178999  0.13231909  1
  O  O196  1  0.24006468  0.49622796  0.63331476  1
  O  O197  1  0.24064516  0.98179542  0.13157159  1
  O  O198  1  0.24709510  0.98620644  0.62089738  1
  O  O199  1  0.74401146  0.49214261  0.13172933  1
  O  O200  1  0.74683865  0.49672893  0.63050500  1
  O  O201  1  0.75522807  0.98680282  0.12774423  1
  O  O202  1  0.74623130  0.99874928  0.63326133  1
  O  O203  1  0.00879888  0.37649612  0.25876974  1
  O  O204  1  0.01021180  0.36649604  0.74457964  1
  O  O205  1  0.00468270  0.86243960  0.24524453  1
  O  O206  1  0.01485246  0.87110145  0.74452320  1
  O  O207  1  0.49712416  0.37545813  0.26071234  1
  O  O208  1  0.49636614  0.37241628  0.75626384  1
  O  O209  1  0.50299110  0.85489770  0.24409884  1
  O  O210  1  0.50811216  0.86953719  0.75592564  1
  O  O211  1  0.50382581  0.13450513  0.24794732  1
  O  O212  1  0.48801307  0.13682673  0.75589584  1
  O  O213  1  0.49371851  0.63385597  0.24588277  1
  O  O214  1  0.49485933  0.63130943  0.74267460  1
  O  O215  1  1.00070874  0.12593450  0.24330908  1
  O  O216  1  0.99413827  0.13266130  0.74099396  1
  O  O217  1  0.98804375  0.62798651  0.24887498  1
  O  O218  1  0.99673625  0.63165336  0.74800896  1
  O  O219  1  0.37140309  0.26930825  -0.00133678  1
  O  O220  1  0.38003771  0.25911346  0.49320625  1
  O  O221  1  0.36166875  0.75683319  -0.00553621  1
  O  O222  1  0.36483495  0.74321019  0.50971796  1
  O  O223  1  0.87154863  0.25589573  0.00758965  1
  O  O224  1  0.86902960  0.25840675  0.50749603  1
  O  O225  1  0.87571089  0.75538757  0.00402151  1
  O  O226  1  0.86576440  0.75338909  0.50563144  1
  O  O227  1  0.12656283  0.24614547  0.49689651  1
  O  O228  1  0.11356217  0.23935880  0.98735004  1
  O  O229  1  0.12810711  0.74586739  0.49505884  1
  O  O230  1  0.13251681  0.74439437  0.99710975  1
  O  O231  1  0.63814332  0.25597221  0.50419886  1
  O  O232  1  0.63006818  0.24739222  0.98890135  1
  O  O233  1  0.64168201  0.74361737  0.50377913  1
  O  O234  1  0.62463104  0.74252054  0.99286350  1
  O  O235  1  0.50333542  0.24626189  0.12767558  1
  O  O236  1  0.50350885  0.25699744  0.64155340  1
  O  O237  1  0.50752771  0.73663479  0.13680577  1
  O  O238  1  0.49357104  0.74811616  0.62871816  1
  O  O239  1  0.99303476  0.24257498  0.12694693  1
  O  O240  1  0.99378369  0.24492564  0.63585190  1
  O  O241  1  0.99263794  0.74502563  0.13678757  1
  O  O242  1  0.98512644  0.74915852  0.62381870  1
  O  O243  1  0.00951947  0.26386091  0.37525168  1
  O  O244  1  0.00586174  0.24438036  0.86149062  1
  O  O245  1  0.00626993  0.74283715  0.36376093  1
  O  O246  1  0.01445286  0.74647691  0.88017293  1
  O  O247  1  0.50359235  0.26606536  0.37475281  1
  O  O248  1  0.50685736  0.26537414  0.86554950  1
  O  O249  1  0.49913352  0.75606310  0.36284660  1
  O  O250  1  0.51008716  0.75738159  0.86852676  1
  O  O251  1  0.24300509  0.12345050  0.50424983  1
  O  O252  1  0.23349354  0.11372594  0.99589889  1
  O  O253  1  0.23869856  0.63663009  0.50148162  1
  O  O254  1  0.24626233  0.63118452  1.00217329  1
  O  O255  1  0.75361145  0.13887765  0.48850222  1
  O  O256  1  0.75393427  0.13317111  0.99059898  1
  O  O257  1  0.74345309  0.63863552  0.50135760  1
  O  O258  1  0.73704145  0.62645001  1.00008512  1
  O  O259  1  0.25577522  0.38119721  0.01109585  1
  O  O260  1  0.26244380  0.37946437  0.50774006  1
  O  O261  1  0.25432206  0.86659929  0.00828529  1
  O  O262  1  0.24298801  0.86227540  0.51061124  1
  O  O263  1  0.75555774  0.37004821  0.01086599  1
  O  O264  1  0.75501396  0.36494494  0.50254679  1
  O  O265  1  0.75924635  0.87259591  0.00920121  1
  O  O266  1  0.75306267  0.86331706  0.49857639  1
  O  O267  1  0.12990145  0.49142432  0.24879049  1
  O  O268  1  0.12972666  0.49440520  0.74517995  1
  O  O269  1  0.12625664  0.97857212  0.24787922  1
  O  O270  1  0.12490108  0.99304208  0.73872288  1
  O  O271  1  0.63669968  0.50659092  0.24128788  1
  O  O272  1  0.63325961  0.50041568  0.74215188  1
  O  O273  1  0.63300876  0.99893366  0.23284048  1
  O  O274  1  0.63783801  0.99245826  0.75649229  1
  O  O275  1  0.35877590  -0.00425504  0.24630501  1
  O  O276  1  0.38093900  0.01369677  0.75638593  1
  O  O277  1  0.37058563  0.50714383  0.26036531  1
  O  O278  1  0.36641488  0.51115081  0.74081954  1
  O  O279  1  0.87428620  0.00416435  0.25136795  1
  O  O280  1  0.86533160  0.00087049  0.75386551  1
  O  O281  1  0.86861506  0.50420351  0.25579975  1
  O  O282  1  0.86932207  0.49913190  0.75792809  1
  O  O283  1  0.12067145  0.37489487  0.37295541  1
  O  O284  1  0.12741195  0.36932200  0.86251609  1
  O  O285  1  0.12520031  0.86167788  0.37021318  1
  O  O286  1  0.12954623  0.86694907  0.86613156  1
  O  O287  1  0.60941330  0.38487214  0.37743879  1
  O  O288  1  0.61748485  0.36952884  0.87522920  1
  O  O289  1  0.60541867  0.87490037  0.36933748  1
  O  O290  1  0.61936472  0.87006062  0.87064226  1
  O  O291  1  0.32897644  0.12709772  0.14399801  1
  O  O292  1  0.38333233  0.12219185  0.63796957  1
  O  O293  1  0.38544921  0.61773717  0.13482824  1
  O  O294  1  0.38025881  0.63588341  0.63240150  1
  O  O295  1  0.88812297  0.13352600  0.11783308  1
  O  O296  1  0.88116531  0.12941736  0.62880503  1
  O  O297  1  0.87427378  0.63092455  0.13340844  1
  O  O298  1  0.87763645  0.63703660  0.62506511  1
  O  O299  1  0.23403463  0.26936987  0.12413808  1
  O  O300  1  0.24574891  0.26593862  0.63002694  1
  O  O301  1  0.24452853  0.75932225  0.11730494  1
  O  O302  1  0.25707190  0.75673743  0.61975679  1
  O  O303  1  0.75432502  0.25498523  0.12263925  1
  O  O304  1  0.75503405  0.25473727  0.61731937  1
  O  O305  1  0.75514347  0.76029784  0.12385917  1
  O  O306  1  0.76244571  0.75343843  0.61942172  1
  O  O307  1  0.24172841  0.25405621  0.36924286  1
  O  O308  1  0.23377647  0.24822149  0.86994540  1
  O  O309  1  0.24271785  0.75018185  0.38400896  1
  O  O310  1  0.23968743  0.74654509  0.88562660  1
  O  O311  1  0.74993945  0.24330241  0.38692195  1
  O  O312  1  0.74436352  0.24737929  0.87936809  1
  O  O313  1  0.75527419  0.74790502  0.38554026  1
  O  O314  1  0.73746083  0.74772014  0.87662669  1
  O  O315  1  0.00468308  0.11428732  0.00424455  1
  O  O316  1  0.01108126  0.13450855  0.51576246  1
  O  O317  1  0.00727539  0.61191930  0.00401658  1
  O  O318  1  0.01310732  0.62346039  0.50225938  1
  O  O319  1  0.50887927  0.12128107  -0.04552146  1
  O  O320  1  0.49795212  0.11668457  0.49731328  1
  O  O321  1  0.50688477  0.62550835  0.00841623  1
  O  O322  1  0.50748485  0.62203088  0.50354420  1
  O  O323  1  0.49039522  0.38375785  0.49304211  1
  O  O324  1  0.48880340  0.37811980  0.99099082  1
  O  O325  1  0.49821154  0.86599909  0.48975909  1
  O  O326  1  0.48873828  0.86232028  0.99207891  1
  O  O327  1  0.99425868  0.37747853  0.49447123  1
  O  O328  1  0.99554626  0.38661388  1.00558259  1
  O  O329  1  0.98699188  0.87452232  0.49974234  1
  O  O330  1  0.99252236  0.88612005  1.00613676  1
  O  O331  1  0.49140136  0.49425282  0.37823477  1
  O  O332  1  0.50543841  0.48917109  0.87397978  1
  O  O333  1  0.49987193  0.98982445  0.38487314  1
  O  O334  1  0.48763161  0.98159025  0.86857111  1
  O  O335  1  0.99410510  0.48967821  0.37824030  1
  O  O336  1  0.99207309  0.50149097  0.88389897  1
  O  O337  1  1.00073040  1.02020489  0.35954000  1
  O  O338  1  0.98948925  1.00568351  0.88126609  1
  O  O339  1  0.00044075  0.00754011  0.11560493  1
  O  O340  1  0.00859697  0.01086533  0.63106484  1
  O  O341  1  0.00700805  0.50008117  0.11875426  1
  O  O342  1  0.01453215  0.50094693  0.62383194  1
  O  O343  1  0.51100619  -0.00607947  0.12885950  1
  O  O344  1  0.50199777  -0.00101225  0.60929274  1
  O  O345  1  0.50839341  0.50952979  0.12849858  1
  O  O346  1  0.50620759  0.50621510  0.61635666  1
  O  O347  1  0.24667651  0.37972040  0.24068211  1
  O  O348  1  0.24562026  0.38341269  0.74314367  1
  O  O349  1  0.24143130  0.87458768  0.24526468  1
  O  O350  1  0.23665972  0.86656244  0.73906165  1
  O  O351  1  0.75392527  0.38234329  0.23755922  1
  O  O352  1  0.74820438  0.38648771  0.74280644  1
  O  O353  1  0.75801908  0.87653669  0.23447828  1
  O  O354  1  0.74282361  0.88345990  0.75014999  1
  O  O355  1  0.21220410  0.10215878  0.26241625  1
  O  O356  1  0.26540956  0.12781064  0.74877772  1
  O  O357  1  0.25650245  0.61970519  0.25000361  1
  O  O358  1  0.25938762  0.61875204  0.74982094  1
  O  O359  1  0.74743495  0.12977211  0.26954014  1
  O  O360  1  0.75790374  0.11904938  0.75493419  1
  O  O361  1  0.76287396  0.61430768  0.24728008  1
  O  O362  1  0.75270896  0.61261495  0.75080503  1
  O  O363  1  0.36996624  0.11550292  0.36107216  1
  O  O364  1  0.36742741  0.11492991  0.86808658  1
  O  O365  1  0.37327695  0.61828856  0.36707212  1
  O  O366  1  0.37668090  0.63119680  0.86106702  1
  O  O367  1  0.88014724  0.13171760  0.36994861  1
  O  O368  1  0.86614964  0.12120891  0.86810650  1
  O  O369  1  0.88088519  0.60997821  0.37010554  1
  O  O370  1  0.87046950  0.61132343  0.87577424  1
  O  O371  1  0.12958003  0.38142617  0.13284128  1
  O  O372  1  0.13166140  0.38317805  0.63364750  1
  O  O373  1  0.12984328  0.87043146  0.13458164  1
  O  O374  1  0.13064178  0.88172804  0.62953257  1
  O  O375  1  0.63218114  0.38795720  0.11602937  1
  O  O376  1  0.63130807  0.38717209  0.62442263  1
  O  O377  1  0.63926541  0.88204460  0.11888221  1
  O  O378  1  0.62758958  0.87626544  0.63966980  1
  O  O379  1  0.12161484  0.26610777  0.26138623  1
  O  O380  1  0.11698626  0.25763459  0.75478178  1
  O  O381  1  0.11744820  0.75363678  0.25775498  1
  O  O382  1  0.12379868  0.75607979  0.76033728  1
  O  O383  1  0.60663182  0.25902484  0.24543767  1
  O  O384  1  0.61994942  0.25715151  0.76229096  1
  O  O385  1  0.61826436  0.74225894  0.25216758  1
  O  O386  1  0.62289092  0.75640128  0.75656433  1
  O  O387  1  0.39981863  0.25096214  0.25283313  1
  O  O388  1  0.38129310  0.23795522  0.75729442  1
  O  O389  1  0.37542728  0.73786270  0.25266858  1
  O  O390  1  0.37960135  0.74364159  0.74336037  1
  O  O391  1  0.87745028  0.25864660  0.23571458  1
  O  O392  1  0.88008649  0.24694768  0.74586596  1
  O  O393  1  0.87936269  0.74143489  0.24901901  1
  O  O394  1  0.87492447  0.75064502  0.73955905  1
  O  O395  1  0.37759454  0.50471906  0.48837605  1
  O  O396  1  0.37730785  0.48437380  1.00408524  1
  O  O397  1  0.39297143  0.99679723  0.49803441  1
  O  O398  1  0.37061430  0.98441016  0.99048361  1
  O  O399  1  0.87381679  0.49421711  0.49212008  1
  O  O400  1  0.88199699  0.49564625  0.99534956  1
  O  O401  1  0.87178499  0.98626481  0.50583578  1
  O  O402  1  0.88092851  0.99235133  0.99301839  1
  O  O403  1  0.11491149  0.00361980  -0.00288898  1
  O  O404  1  0.12721397  0.01058857  0.51530482  1
  O  O405  1  0.11951834  0.50316121  0.00348676  1
  O  O406  1  0.12764064  0.50922160  0.50819473  1
  O  O407  1  0.63045392  0.00365050  0.01906028  1
  O  O408  1  0.60616868  -0.01094213  0.50113314  1
  O  O409  1  0.62037186  0.50843921  0.00708019  1
  O  O410  1  0.62323406  0.50929804  0.50659214  1
  O  O411  1  0.36070583  0.37662252  0.11938396  1
  O  O412  1  0.36723528  0.38066593  0.60990938  1
  O  O413  1  0.36519408  0.87507159  0.11551658  1
  O  O414  1  0.36767038  0.86318945  0.63494961  1
  O  O415  1  0.86757680  0.36949595  0.11796977  1
  O  O416  1  0.86864221  0.37209805  0.61989512  1
  O  O417  1  0.86849476  0.86817294  0.11410816  1
  O  O418  1  0.87260631  0.86489010  0.61594077  1
  O  O419  1  0.12832433  0.14112355  0.39294547  1
  O  O420  1  0.12619733  0.13176831  0.87785051  1
  O  O421  1  0.12712747  0.63508920  0.38224013  1
  O  O422  1  0.12986418  0.63090165  0.88582976  1
  O  O423  1  0.62926869  0.12426152  0.37560146  1
  O  O424  1  0.64251216  0.13616477  0.86584109  1
  O  O425  1  0.62185895  0.61809294  0.38655286  1
  O  O426  1  0.62397881  0.63315550  0.88306419  1
