# generated using pymatgen
data_V85Zn86O256
_symmetry_space_group_name_H-M   'P 1'
_cell_length_a   16.98621536
_cell_length_b   16.98077474
_cell_length_c   17.00254449
_cell_angle_alpha   89.87503492
_cell_angle_beta   90.04316910
_cell_angle_gamma   89.80454813
_symmetry_Int_Tables_number   1
_chemical_formula_structural   V85Zn86O256
_chemical_formula_sum   'V85 Zn86 O256'
_cell_volume   4904.15695716
_cell_formula_units_Z   1
loop_
 _symmetry_equiv_pos_site_id
 _symmetry_equiv_pos_as_xyz
  1  'x, y, z'
loop_
 _atom_site_type_symbol
 _atom_site_label
 _atom_site_symmetry_multiplicity
 _atom_site_fract_x
 _atom_site_fract_y
 _atom_site_fract_z
 _atom_site_occupancy
  V  V0  1  0.12120100  0.25496312  0.87901466  1
  V  V1  1  0.26859833  0.87085823  0.12467687  1
  V  V2  1  0.25345270  0.24631224  0.00371444  1
  V  V3  1  0.49706120  0.87737745  0.86716755  1
  V  V4  1  0.49804725  0.50246528  -0.00389517  1
  V  V5  1  0.37831956  0.63663877  0.24518148  1
  V  V6  1  0.12705581  0.38369506  0.75469874  1
  V  V7  1  0.51753336  0.12453442  0.62335531  1
  V  V8  1  0.75106266  0.62656150  0.37424910  1
  V  V9  1  0.74918646  0.11525234  0.38085362  1
  V  V10  1  0.00028226  -0.00333477  0.00123826  1
  V  V11  1  0.63637515  0.63477489  -0.00381329  1
  V  V12  1  0.12274377  0.49411059  0.12954575  1
  V  V13  1  0.74590930  0.74767264  0.49932399  1
  V  V14  1  0.86256352  0.86428937  0.00159128  1
  V  V15  1  0.42928401  -0.05814164  0.31488820  1
  V  V16  1  0.52292651  -0.02702482  0.02468810  1
  V  V17  1  0.00820873  0.11513602  0.62638701  1
  V  V18  1  0.49859664  0.74683437  0.75116415  1
  V  V19  1  0.00252903  0.74287744  0.75038721  1
  V  V20  1  0.00007167  0.12433994  0.12541073  1
  V  V21  1  0.49300406  0.24348661  0.75384895  1
  V  V22  1  0.12543464  0.87491890  0.24347909  1
  V  V23  1  -0.00633228  0.75828199  0.24707312  1
  V  V24  1  -0.00422444  0.63021382  0.12405147  1
  V  V25  1  0.62261489  0.37384398  0.75245305  1
  V  V26  1  0.87361939  0.62938039  0.24752024  1
  V  V27  1  0.49488554  0.63766611  0.12247821  1
  V  V28  1  0.25352987  0.37854756  0.63150882  1
  V  V29  1  0.63446900  0.10251365  0.01482542  1
  V  V30  1  0.86587218  0.11148863  0.24991712  1
  V  V31  1  0.25164036  0.11611928  0.37646587  1
  V  V32  1  0.50220321  0.25586008  0.25270304  1
  V  V33  1  0.87805852  0.00546896  0.87573065  1
  V  V34  1  0.12718905  0.12411716  0.00122170  1
  V  V35  1  0.75233898  0.37632537  0.62223335  1
  V  V36  1  0.24039007  0.88183760  0.62635502  1
  V  V37  1  0.49124016  0.49987013  0.49367467  1
  V  V38  1  0.00088985  0.24692620  0.25905617  1
  V  V39  1  0.12759136  0.62430271  0.00147346  1
  V  V40  1  0.25776573  0.62182541  0.37553381  1
  V  V41  1  0.24940015  0.74905474  0.50057100  1
  V  V42  1  -0.00441981  0.61945864  0.61743900  1
  V  V43  1  0.88905901  0.37975031  0.49227330  1
  V  V44  1  0.61197294  0.75593912  0.35987467  1
  V  V45  1  0.74806295  0.00580263  0.74330615  1
  V  V46  1  0.12317375  0.49821310  0.61634720  1
  V  V47  1  0.37225398  0.23788929  0.62843133  1
  V  V48  1  -0.00011965  0.25828248  0.75409980  1
  V  V49  1  0.12739170  0.11430235  0.50415213  1
  V  V50  1  0.62382519  0.50050175  0.62325907  1
  V  V51  1  0.81573922  0.66617099  0.80735213  1
  V  V52  1  0.24958681  0.24949101  0.49885295  1
  V  V53  1  0.75127455  0.50053657  0.75427074  1
  V  V54  1  0.37205205  0.12670642  0.25218853  1
  V  V55  1  0.37741708  0.00311808  0.86794162  1
  V  V56  1  0.54977341  0.07372772  0.18218904  1
  V  V57  1  0.06498040  0.41913668  0.30730423  1
  V  V58  1  0.00027968  0.49227206  -0.00398656  1
  V  V59  1  0.25938418  0.74775258  0.00249707  1
  V  V60  1  0.49653191  0.62302872  0.62622161  1
  V  V61  1  0.74663512  0.37844526  0.12603472  1
  V  V62  1  0.74568329  0.25183937  0.49685649  1
  V  V63  1  0.25240134  0.61159018  0.87202924  1
  V  V64  1  0.11997519  0.75750819  0.37595896  1
  V  V65  1  0.37226292  0.75326478  0.62590631  1
  V  V66  1  0.49652212  -0.00443352  0.51120371  1
  V  V67  1  0.38154631  0.24564874  0.12419196  1
  V  V68  1  0.87581504  0.87935211  0.48551657  1
  V  V69  1  0.24942182  0.37299741  0.13166374  1
  V  V70  1  0.74704632  0.25508959  -0.00263588  1
  V  V71  1  0.26331925  0.49425230  0.25471525  1
  V  V72  1  0.25761494  0.12589801  0.87177737  1
  V  V73  1  0.87891800  0.49297955  0.87054142  1
  V  V74  1  0.37596191  0.37784625  -0.00400928  1
  V  V75  1  0.87347099  0.74417349  0.62646935  1
  V  V76  1  0.74871001  0.50068359  0.25282387  1
  V  V77  1  0.37048960  0.61049463  0.75275828  1
  V  V78  1  0.62099779  0.24758450  0.87866515  1
  V  V79  1  0.87415243  0.25095536  0.12632804  1
  V  V80  1  0.75232968  0.87895360  0.62526270  1
  V  V81  1  0.87962381  0.25233569  0.61907397  1
  V  V82  1  0.62234950  0.87981248  0.74349202  1
  V  V83  1  0.12904303  0.75120703  0.87368851  1
  V  V84  1  0.87837298  0.12788945  0.74759823  1
  Zn  Zn85  1  0.25250837  -0.00310837  0.24946006  1
  Zn  Zn86  1  0.75140786  0.13133931  0.87003324  1
  Zn  Zn87  1  0.62258527  0.37957903  0.25584147  1
  Zn  Zn88  1  0.24451586  0.00897848  0.74588537  1
  Zn  Zn89  1  0.62121037  0.62559469  0.49630137  1
  Zn  Zn90  1  0.11856641  0.88351215  0.74556637  1
  Zn  Zn91  1  0.81454929  0.80462500  0.16906492  1
  Zn  Zn92  1  0.62189175  0.50251601  0.12310811  1
  Zn  Zn93  1  0.12709606  0.25067657  0.37059277  1
  Zn  Zn94  1  0.62211179  0.25433812  0.38221813  1
  Zn  Zn95  1  0.00171925  0.87404447  0.87294511  1
  Zn  Zn96  1  0.00582290  -0.01580856  0.49294597  1
  Zn  Zn97  1  0.12158531  0.62198938  0.49655045  1
  Zn  Zn98  1  0.13358834  -0.00135838  0.12152696  1
  Zn  Zn99  1  0.37663416  0.87695122  0.49185632  1
  Zn  Zn100  1  0.89049690  0.50141994  0.37733763  1
  Zn  Zn101  1  0.37440303  0.87417317  -0.00634675  1
  Zn  Zn102  1  0.63868735  0.74575918  0.87176902  1
  Zn  Zn103  1  0.37423055  0.37511197  0.49789269  1
  Zn  Zn104  1  0.87794015  0.37424300  -0.00379657  1
  Zn  Zn105  1  0.49318101  0.37934343  0.87301145  1
  Zn  Zn106  1  0.49402001  0.38003307  0.37226781  1
  Zn  Zn107  1  0.18661543  0.18722620  0.18906995  1
  Zn  Zn108  1  0.18543047  0.19050320  0.69028635  1
  Zn  Zn109  1  0.18806891  0.68696803  0.18686971  1
  Zn  Zn110  1  0.18615847  0.68338637  0.68830162  1
  Zn  Zn111  1  0.69078623  0.19274480  0.19404287  1
  Zn  Zn112  1  0.68842151  0.19247268  0.68739089  1
  Zn  Zn113  1  0.67829496  0.68634080  0.18658053  1
  Zn  Zn114  1  0.67990891  0.69052104  0.68030337  1
  Zn  Zn115  1  0.31783540  0.31302343  0.31902674  1
  Zn  Zn116  1  0.31075723  0.31074248  0.81437801  1
  Zn  Zn117  1  0.30629658  0.80646518  0.30992503  1
  Zn  Zn118  1  0.31085301  0.80913967  0.80978948  1
  Zn  Zn119  1  0.81582540  0.31224807  0.31478716  1
  Zn  Zn120  1  0.81245094  0.31706293  0.81137267  1
  Zn  Zn121  1  0.76343245  0.84700888  0.32570749  1
  Zn  Zn122  1  0.81874999  0.82973145  0.81073536  1
  Zn  Zn123  1  0.19647169  0.43786040  0.44187672  1
  Zn  Zn124  1  0.18786400  0.43376412  0.94330573  1
  Zn  Zn125  1  0.18994008  0.93519760  0.43796025  1
  Zn  Zn126  1  0.18877078  0.93632985  0.93540132  1
  Zn  Zn127  1  0.68436527  0.43596308  0.43685593  1
  Zn  Zn128  1  0.68263050  0.44061632  0.93675731  1
  Zn  Zn129  1  0.67925735  0.93490141  0.45026611  1
  Zn  Zn130  1  0.69216358  0.93272268  0.92228844  1
  Zn  Zn131  1  0.32536163  0.05429665  0.06059538  1
  Zn  Zn132  1  0.31730847  0.06184277  0.56212185  1
  Zn  Zn133  1  0.31322488  0.56021236  0.06472294  1
  Zn  Zn134  1  0.30932339  0.56333142  0.56758360  1
  Zn  Zn135  1  0.80832572  0.06491980  0.05924540  1
  Zn  Zn136  1  0.81622423  0.06400655  0.56080311  1
  Zn  Zn137  1  0.81401483  0.56327433  0.06167362  1
  Zn  Zn138  1  0.81425527  0.55959042  0.56087599  1
  Zn  Zn139  1  0.43780513  0.43927849  0.18031947  1
  Zn  Zn140  1  0.43855746  0.43125792  0.68409026  1
  Zn  Zn141  1  0.48894464  0.84819782  0.15035817  1
  Zn  Zn142  1  0.42985149  0.94236224  0.68832025  1
  Zn  Zn143  1  0.92853928  0.44166800  0.18324930  1
  Zn  Zn144  1  0.93836022  0.43905091  0.68726665  1
  Zn  Zn145  1  0.93753198  0.93794665  0.18338930  1
  Zn  Zn146  1  0.93763951  0.93553532  0.68595749  1
  Zn  Zn147  1  0.06654705  0.05684468  0.31362683  1
  Zn  Zn148  1  0.06699993  0.06568492  0.81298552  1
  Zn  Zn149  1  0.06844105  0.58267835  0.30968158  1
  Zn  Zn150  1  0.06180597  0.56480749  0.81141433  1
  Zn  Zn151  1  0.58654460  0.04408720  0.36033757  1
  Zn  Zn152  1  0.56576970  0.06543186  0.81373191  1
  Zn  Zn153  1  0.56434504  0.56947022  0.31018683  1
  Zn  Zn154  1  0.56187369  0.56214770  0.81675031  1
  Zn  Zn155  1  0.43650766  0.18597518  0.43798340  1
  Zn  Zn156  1  0.44929423  0.17228123  0.94898403  1
  Zn  Zn157  1  0.43610283  0.68681471  0.43789113  1
  Zn  Zn158  1  0.43819251  0.68424249  0.93296311  1
  Zn  Zn159  1  0.95709844  0.14036205  0.41708796  1
  Zn  Zn160  1  0.93822116  0.18830399  0.93882736  1
  Zn  Zn161  1  0.93469835  0.69269312  0.43617843  1
  Zn  Zn162  1  0.94429202  0.68569184  0.94030974  1
  Zn  Zn163  1  0.06261738  0.31188381  0.06815470  1
  Zn  Zn164  1  0.06638324  0.30671985  0.56476162  1
  Zn  Zn165  1  0.06672054  0.81408049  0.06159923  1
  Zn  Zn166  1  0.05910560  0.80790727  0.56151902  1
  Zn  Zn167  1  0.56261155  0.31266285  0.06381298  1
  Zn  Zn168  1  0.56135166  0.31457473  0.56491262  1
  Zn  Zn169  1  0.66835984  0.82842017  0.07550740  1
  Zn  Zn170  1  0.56329836  0.81175044  0.56480601  1
  O  O171  1  0.12054742  0.12158608  0.11760517  1
  O  O172  1  0.11936447  0.12869978  0.62007299  1
  O  O173  1  0.11775406  0.61240113  0.12474600  1
  O  O174  1  0.11980217  0.61398608  0.62327133  1
  O  O175  1  0.61011636  0.14016530  0.12847126  1
  O  O176  1  0.61570623  0.12923859  0.62301288  1
  O  O177  1  0.61005831  0.62333034  0.11228460  1
  O  O178  1  0.61526097  0.61572366  0.62265228  1
  O  O179  1  0.38009476  0.37583028  0.38479101  1
  O  O180  1  0.37431438  0.36603741  0.89186827  1
  O  O181  1  0.36968338  0.87911852  0.37216174  1
  O  O182  1  0.37972329  0.88165675  0.86898554  1
  O  O183  1  0.87673277  0.37781729  0.38849682  1
  O  O184  1  0.87489323  0.38814749  0.87720984  1
  O  O185  1  0.86091004  0.87108012  0.38854520  1
  O  O186  1  0.88031077  0.88790617  0.88584187  1
  O  O187  1  0.24817512  0.01217829  0.37460367  1
  O  O188  1  0.26017404  0.01012502  0.88221524  1
  O  O189  1  0.24282808  0.51010049  0.36557823  1
  O  O190  1  0.24230900  0.51286471  0.88175725  1
  O  O191  1  0.74204343  0.01579898  0.38662977  1
  O  O192  1  0.76309554  0.00364351  0.86167615  1
  O  O193  1  0.74680429  0.51319419  0.37010294  1
  O  O194  1  0.75492133  0.49609751  0.86081897  1
  O  O195  1  0.24069419  0.49631397  0.13634082  1
  O  O196  1  0.24236714  0.48667506  0.62355124  1
  O  O197  1  0.25410553  0.98634699  0.12471365  1
  O  O198  1  0.25634915  0.98402620  0.62484721  1
  O  O199  1  0.75048539  0.49344183  0.13321206  1
  O  O200  1  0.74282238  0.49684885  0.63286582  1
  O  O201  1  0.69894222  1.03857885  0.06766994  1
  O  O202  1  0.75647420  0.99442570  0.63456594  1
  O  O203  1  -0.00310806  0.36749493  0.24573818  1
  O  O204  1  0.00777130  0.36401362  0.74673696  1
  O  O205  1  0.00793317  0.86658061  0.24150101  1
  O  O206  1  -0.00098971  0.86042911  0.75055297  1
  O  O207  1  0.49890758  0.36968966  0.24943305  1
  O  O208  1  0.50553944  0.36448284  0.75267165  1
  O  O209  1  0.48732049  0.88491080  0.25817094  1
  O  O210  1  0.50541373  0.86860632  0.74626104  1
  O  O211  1  0.48962173  0.13466176  0.24521629  1
  O  O212  1  0.50583436  0.13177194  0.73596677  1
  O  O213  1  0.49165635  0.61718984  0.23358954  1
  O  O214  1  0.49385560  0.63081199  0.74604046  1
  O  O215  1  0.98772383  0.13047642  0.24229329  1
  O  O216  1  0.99785841  0.13601401  0.74387493  1
  O  O217  1  0.99504808  0.63569118  0.24079030  1
  O  O218  1  1.00520920  0.63628384  0.73806324  1
  O  O219  1  0.37521645  0.24920588  0.00938360  1
  O  O220  1  0.36385167  0.24682686  0.51079979  1
  O  O221  1  0.36154292  0.74983155  -0.00858256  1
  O  O222  1  0.36717939  0.75266552  0.50734231  1
  O  O223  1  0.87063590  0.25382124  0.01002936  1
  O  O224  1  0.86673531  0.26269155  0.51308703  1
  O  O225  1  0.88072388  0.76736383  -0.00993837  1
  O  O226  1  0.86238263  0.75829727  0.50436586  1
  O  O227  1  0.13961148  0.24306622  0.50165870  1
  O  O228  1  0.12943353  0.24659237  0.99580706  1
  O  O229  1  0.13145019  0.74905602  0.49174417  1
  O  O230  1  0.13081094  0.74223016  0.99153297  1
  O  O231  1  0.64168926  0.25651059  0.50648374  1
  O  O232  1  0.63118605  0.24463608  0.99583459  1
  O  O233  1  0.63780415  0.74781512  0.50396792  1
  O  O234  1  0.62682721  0.73760817  0.99179482  1
  O  O235  1  0.48643380  0.25698691  0.13220227  1
  O  O236  1  0.49458178  0.24047639  0.63088061  1
  O  O237  1  0.49670985  0.73643412  0.12001215  1
  O  O238  1  0.49130652  0.74492044  0.63214452  1
  O  O239  1  0.99086030  0.24403878  0.12992870  1
  O  O240  1  0.99399414  0.24521762  0.63536404  1
  O  O241  1  1.01083116  0.73931797  0.13177431  1
  O  O242  1  0.99266526  0.74321268  0.63249931  1
  O  O243  1  -0.00158326  0.24024585  0.36112473  1
  O  O244  1  0.00936244  0.24658842  0.86805634  1
  O  O245  1  0.00968292  0.74385127  0.36155027  1
  O  O246  1  0.00960680  0.74717696  0.86711910  1
  O  O247  1  0.50117598  0.24870250  0.36625303  1
  O  O248  1  0.50577332  0.24409055  0.87003675  1
  O  O249  1  0.51571795  0.75214555  0.38788017  1
  O  O250  1  0.49485668  0.75650252  0.85905720  1
  O  O251  1  0.24660690  0.12867376  0.49645306  1
  O  O252  1  0.24704887  0.12894322  0.99564832  1
  O  O253  1  0.24878412  0.63109949  0.49328136  1
  O  O254  1  0.24522453  0.62947100  0.99637291  1
  O  O255  1  0.76376277  0.13606447  0.48758153  1
  O  O256  1  0.75374382  0.14743935  0.98952814  1
  O  O257  1  0.74966955  0.63134535  0.49234319  1
  O  O258  1  0.73388630  0.61580135  1.00068982  1
  O  O259  1  0.25705345  0.36687876  0.00968869  1
  O  O260  1  0.25151660  0.36538162  0.51197907  1
  O  O261  1  0.25222545  0.86573784  0.00667629  1
  O  O262  1  0.25359605  0.86726047  0.50985947  1
  O  O263  1  0.74976734  0.36935077  0.00636650  1
  O  O264  1  0.75808455  0.37136410  0.50592644  1
  O  O265  1  0.75810253  0.87602604  -0.00265728  1
  O  O266  1  0.75492706  0.86932628  0.50959606  1
  O  O267  1  0.12548444  0.49257739  0.24732579  1
  O  O268  1  0.11868641  0.48644110  0.74559028  1
  O  O269  1  0.12803160  0.98649272  0.24820748  1
  O  O270  1  0.13278732  0.99521748  0.75942374  1
  O  O271  1  0.63730003  0.50248708  0.24625218  1
  O  O272  1  0.62961010  0.49644188  0.74341845  1
  O  O273  1  0.60421368  1.02213623  0.24683407  1
  O  O274  1  0.63684563  0.99266962  0.75443746  1
  O  O275  1  0.37340738  0.00884287  0.25522171  1
  O  O276  1  0.36227352  -0.00077241  0.76236168  1
  O  O277  1  0.36450115  0.50802774  0.24415772  1
  O  O278  1  0.38055653  0.51183686  0.74177774  1
  O  O279  1  0.87586211  0.01374900  0.24267317  1
  O  O280  1  0.87200309  0.00603706  0.75582066  1
  O  O281  1  0.86347953  0.50788816  0.25468817  1
  O  O282  1  0.86635186  0.49931295  0.75705266  1
  O  O283  1  0.12551408  0.37092421  0.37636941  1
  O  O284  1  0.13204133  0.36314040  0.87039475  1
  O  O285  1  0.13298097  0.86354355  0.36617718  1
  O  O286  1  0.12395860  0.86074568  0.87479042  1
  O  O287  1  0.61568254  0.37219229  0.37320778  1
  O  O288  1  0.61968269  0.36351332  0.87116425  1
  O  O289  1  0.64484505  0.85537790  0.37463077  1
  O  O290  1  0.61864380  0.86608431  0.85719864  1
  O  O291  1  0.36533181  0.13415958  0.13885313  1
  O  O292  1  0.37504335  0.13595396  0.63101746  1
  O  O293  1  0.38550846  0.62212130  0.12997129  1
  O  O294  1  0.37632351  0.63542693  0.63164751  1
  O  O295  1  0.87409031  0.13163675  0.13209128  1
  O  O296  1  0.88363317  0.13512891  0.62882434  1
  O  O297  1  0.88857961  0.61977676  0.12915006  1
  O  O298  1  0.88264249  0.63015660  0.62072882  1
  O  O299  1  0.25797739  0.25401351  0.12224465  1
  O  O300  1  0.25603760  0.25604034  0.62250093  1
  O  O301  1  0.24270994  0.75591054  0.11253639  1
  O  O302  1  0.25342568  0.75170848  0.61523017  1
  O  O303  1  0.75585045  0.25733274  0.11868138  1
  O  O304  1  0.76062611  0.25623020  0.62202981  1
  O  O305  1  0.73637131  0.74651645  0.11367711  1
  O  O306  1  0.75484137  0.75558769  0.61928022  1
  O  O307  1  0.24951670  0.24102475  0.38496691  1
  O  O308  1  0.24494538  0.24382329  0.88545532  1
  O  O309  1  0.24498223  0.74468764  0.38659578  1
  O  O310  1  0.24327977  0.74270372  0.88120688  1
  O  O311  1  0.75073574  0.24853712  0.38506024  1
  O  O312  1  0.74125214  0.25671598  0.88077115  1
  O  O313  1  0.74578481  0.73943878  0.38289371  1
  O  O314  1  0.75823862  0.74078269  0.85482202  1
  O  O315  1  0.00421959  0.11630375  0.00515997  1
  O  O316  1  0.01622415  0.14004342  0.51569083  1
  O  O317  1  0.00777354  0.61668863  0.00830333  1
  O  O318  1  0.00293885  0.63384035  0.51247112  1
  O  O319  1  0.52421919  0.10481037  0.00645313  1
  O  O320  1  0.49192629  0.11946137  0.51815427  1
  O  O321  1  0.49918292  0.62017561  0.00714486  1
  O  O322  1  0.49926902  0.61572969  0.50874505  1
  O  O323  1  0.49849428  0.39069709  0.50565972  1
  O  O324  1  0.49242499  0.38207626  1.00037095  1
  O  O325  1  0.49641788  0.88974061  0.51572847  1
  O  O326  1  0.49488218  0.87385776  0.97258700  1
  O  O327  1  0.98665758  0.36732393  0.50626003  1
  O  O328  1  1.00005330  0.38911323  1.00682888  1
  O  O329  1  0.98195072  0.86909634  0.50124922  1
  O  O330  1  0.99834413  0.88762950  0.99621436  1
  O  O331  1  0.50662086  0.50715118  0.39249501  1
  O  O332  1  0.50023597  0.49771821  0.88937394  1
  O  O333  1  0.48437931  0.99715379  0.38177962  1
  O  O334  1  0.49004006  0.98944161  0.85429093  1
  O  O335  1  1.00937692  0.49402590  0.35720584  1
  O  O336  1  0.99285258  0.50640306  0.88394793  1
  O  O337  1  0.99367691  1.03348597  0.39212859  1
  O  O338  1  0.98972764  1.00342811  0.88077378  1
  O  O339  1  0.00365412  0.00674310  0.11507861  1
  O  O340  1  -0.00547936  0.01291638  0.61974399  1
  O  O341  1  0.00569039  0.50615406  0.12074747  1
  O  O342  1  0.00860996  0.50918959  0.63014658  1
  O  O343  1  0.48999668  0.01155234  0.12666064  1
  O  O344  1  0.49869711  0.01203725  0.62093775  1
  O  O345  1  0.50158546  0.50698989  0.11186855  1
  O  O346  1  0.50806979  0.50316959  0.62060376  1
  O  O347  1  0.25633925  0.38259787  0.24447675  1
  O  O348  1  0.24005332  0.36752227  0.74259988  1
  O  O349  1  0.24406656  0.87327132  0.23939362  1
  O  O350  1  0.24534702  0.86734497  0.73225470  1
  O  O351  1  0.75089691  0.38384480  0.24444041  1
  O  O352  1  0.74346405  0.38247259  0.74218902  1
  O  O353  1  0.75205236  0.87815994  0.22401535  1
  O  O354  1  0.74403779  0.88519668  0.74329656  1
  O  O355  1  0.25491765  0.12288755  0.25880291  1
  O  O356  1  0.24610558  0.13061469  0.76856906  1
  O  O357  1  0.25575538  0.61838145  0.25584406  1
  O  O358  1  0.25819743  0.62744850  0.75945093  1
  O  O359  1  0.75969547  0.12662565  0.25700611  1
  O  O360  1  0.75777146  0.12087481  0.74802513  1
  O  O361  1  0.75317552  0.62124937  0.25568030  1
  O  O362  1  0.74792237  0.61678173  0.74281582  1
  O  O363  1  0.36637125  0.13265303  0.36127076  1
  O  O364  1  0.36927747  0.11672767  0.88407689  1
  O  O365  1  0.36405446  0.62880315  0.36731039  1
  O  O366  1  0.36510515  0.62650114  0.86432728  1
  O  O367  1  0.86042880  0.13279191  0.35638635  1
  O  O368  1  0.87458112  0.12185284  0.86637333  1
  O  O369  1  0.86839949  0.62279344  0.36863752  1
  O  O370  1  0.87556671  0.61529046  0.87700925  1
  O  O371  1  0.13171191  0.38683685  0.12201354  1
  O  O372  1  0.13127715  0.37981451  0.63339154  1
  O  O373  1  0.13501572  0.87678297  0.13151348  1
  O  O374  1  0.13751757  0.86945920  0.62197768  1
  O  O375  1  0.63765734  0.37685815  0.12725467  1
  O  O376  1  0.63009200  0.38319215  0.63264086  1
  O  O377  1  0.57759506  0.89719209  0.09186784  1
  O  O378  1  0.63809159  0.87081407  0.63496053  1
  O  O379  1  0.11032704  0.24743656  0.24989433  1
  O  O380  1  0.11770878  0.25907774  0.75943081  1
  O  O381  1  0.12029276  0.75930744  0.25506934  1
  O  O382  1  0.11818617  0.75086105  0.75693602  1
  O  O383  1  0.60972881  0.25503911  0.24798190  1
  O  O384  1  0.61647178  0.25281727  0.75882425  1
  O  O385  1  0.61277309  0.74590176  0.26062132  1
  O  O386  1  0.61394494  0.75572263  0.74904127  1
  O  O387  1  0.38257249  0.24443779  0.24430126  1
  O  O388  1  0.38753127  0.25443295  0.74614207  1
  O  O389  1  0.37093033  0.73610518  0.24795464  1
  O  O390  1  0.38065473  0.74215464  0.74176950  1
  O  O391  1  0.87873579  0.24640282  0.23800367  1
  O  O392  1  0.88179357  0.25004210  0.74269506  1
  O  O393  1  0.88625241  0.74485052  0.24343607  1
  O  O394  1  0.87850611  0.74109172  0.75070654  1
  O  O395  1  0.38924291  0.50140069  0.50993953  1
  O  O396  1  0.38110123  0.48788969  1.00612173  1
  O  O397  1  0.38985666  0.99707912  0.50300164  1
  O  O398  1  0.39799188  0.99360600  0.99082506  1
  O  O399  1  0.87575316  0.48508538  0.49733984  1
  O  O400  1  0.88347710  0.49897565  0.99152638  1
  O  O401  1  0.87330747  0.98036770  0.50612095  1
  O  O402  1  0.87960262  0.99811771  0.99249121  1
  O  O403  1  0.11593216  0.00579493  -0.00317025  1
  O  O404  1  0.12574842  0.01026532  0.50065774  1
  O  O405  1  0.11931986  0.50482519  0.00900236  1
  O  O406  1  0.12692135  0.49981340  0.51274547  1
  O  O407  1  0.60647213  -0.00367802  -0.03660059  1
  O  O408  1  0.59712582  0.00791463  0.47819881  1
  O  O409  1  0.61509648  0.50812039  0.00112526  1
  O  O410  1  0.61891486  0.50196923  0.51235747  1
  O  O411  1  0.36800887  0.36603938  0.11609083  1
  O  O412  1  0.36706509  0.36299554  0.62399394  1
  O  O413  1  0.37108610  0.86798382  0.11990199  1
  O  O414  1  0.36495779  0.86209005  0.62702763  1
  O  O415  1  0.86280997  0.36850420  0.12172451  1
  O  O416  1  0.87113186  0.37066982  0.62005572  1
  O  O417  1  0.88275145  0.87519465  0.10377791  1
  O  O418  1  0.86307014  0.86531581  0.62630312  1
  O  O419  1  0.13585140  0.13013937  0.38511372  1
  O  O420  1  0.13202381  0.13813380  0.88366596  1
  O  O421  1  0.13879190  0.63995097  0.37571636  1
  O  O422  1  0.13148259  0.63368807  0.87864820  1
  O  O423  1  0.64668496  0.13912557  0.37097756  1
  O  O424  1  0.63082821  0.13617967  0.88206508  1
  O  O425  1  0.63227729  0.63818560  0.37701444  1
  O  O426  1  0.61863992  0.62881053  0.88992417  1
