# generated using pymatgen
data_V85Zn86O256
_symmetry_space_group_name_H-M   'P 1'
_cell_length_a   16.92316094
_cell_length_b   16.92833046
_cell_length_c   16.92414453
_cell_angle_alpha   89.94057842
_cell_angle_beta   90.09090911
_cell_angle_gamma   89.96009252
_symmetry_Int_Tables_number   1
_chemical_formula_structural   V85Zn86O256
_chemical_formula_sum   'V85 Zn86 O256'
_cell_volume   4848.43360216
_cell_formula_units_Z   1
loop_
 _symmetry_equiv_pos_site_id
 _symmetry_equiv_pos_as_xyz
  1  'x, y, z'
loop_
 _atom_site_type_symbol
 _atom_site_label
 _atom_site_symmetry_multiplicity
 _atom_site_fract_x
 _atom_site_fract_y
 _atom_site_fract_z
 _atom_site_occupancy
  V  V0  1  0.37510767  0.75725905  0.12446367  1
  V  V1  1  0.87468248  0.24943652  0.12508909  1
  V  V2  1  -0.00424443  0.50370347  0.49450561  1
  V  V3  1  0.61233006  0.75007256  0.87465691  1
  V  V4  1  0.62403608  0.12332065  0.49819935  1
  V  V5  1  0.37246647  0.62883179  0.24911908  1
  V  V6  1  0.48778343  0.12535952  0.13000523  1
  V  V7  1  0.37169701  0.50238432  0.37583751  1
  V  V8  1  0.25195411  0.12088083  0.37311461  1
  V  V9  1  -0.00696409  0.00029150  -0.00893437  1
  V  V10  1  0.62621530  0.62589445  0.00253081  1
  V  V11  1  -0.00102275  0.74803327  0.74938971  1
  V  V12  1  0.62559121  0.63006297  0.48226919  1
  V  V13  1  0.12544526  0.87459179  0.75085997  1
  V  V14  1  0.75975629  0.87072787  0.12636397  1
  V  V15  1  0.75029553  0.62626681  0.87466614  1
  V  V16  1  0.12837750  0.11899437  0.00176549  1
  V  V17  1  0.11565276  0.11952333  0.49871090  1
  V  V18  1  0.13495452  0.62932066  0.50068597  1
  V  V19  1  0.37304140  0.37422871  0.50032612  1
  V  V20  1  0.12179164  0.38512907  0.24489281  1
  V  V21  1  0.25297190  0.00577433  0.23918064  1
  V  V22  1  0.74842866  0.37552384  0.13252328  1
  V  V23  1  0.13184782  0.75332551  0.37573279  1
  V  V24  1  -0.00561217  0.37891958  0.37468088  1
  V  V25  1  0.62390046  0.12769202  -0.00326768  1
  V  V26  1  0.24962564  0.49542683  0.75244003  1
  V  V27  1  0.62566579  0.25387689  0.36255373  1
  V  V28  1  0.74777281  0.11645959  0.37107954  1
  V  V29  1  0.62689862  0.49776916  0.13345224  1
  V  V30  1  0.50046110  0.49462510  -0.00034269  1
  V  V31  1  0.11802401  -0.00166359  0.62206114  1
  V  V32  1  -0.00277904  0.75206133  0.24313262  1
  V  V33  1  0.37876145  0.74937934  0.62820842  1
  V  V34  1  0.00217855  0.25575678  0.74835872  1
  V  V35  1  0.25816263  -0.00090965  0.75155636  1
  V  V36  1  0.62988937  0.87244645  0.25162683  1
  V  V37  1  0.87095548  0.74854487  0.62396044  1
  V  V38  1  0.49818672  0.00129769  0.49881416  1
  V  V39  1  0.38045750  0.62435209  0.75217166  1
  V  V40  1  0.00032566  0.62410664  0.62388106  1
  V  V41  1  0.25612919  0.12259156  0.87401844  1
  V  V42  1  0.12389452  0.49532077  0.62939445  1
  V  V43  1  0.12545877  0.88017004  0.23782938  1
  V  V44  1  0.12762608  0.61868622  0.00846599  1
  V  V45  1  0.24834064  0.37448669  0.62567147  1
  V  V46  1  -0.00801666  0.61958027  0.12294263  1
  V  V47  1  0.24692683  0.24893834  0.49916464  1
  V  V48  1  0.62984100  -0.00060367  0.12816394  1
  V  V49  1  0.87625256  0.88297508  0.50027624  1
  V  V50  1  0.12903191  0.25658305  0.87271357  1
  V  V51  1  0.50555518  0.86898182  0.37445947  1
  V  V52  1  0.37634623  0.24814513  0.63138134  1
  V  V53  1  0.49836684  0.12628102  0.62907019  1
  V  V54  1  0.37825683  0.87703734  -0.01640651  1
  V  V55  1  0.51091752  0.62874471  0.62732024  1
  V  V56  1  0.87868324  0.37511500  -0.00100367  1
  V  V57  1  0.37188290  0.87022583  0.49766725  1
  V  V58  1  0.87025011  0.11874542  0.24888338  1
  V  V59  1  0.74770418  0.25241425  -0.00921598  1
  V  V60  1  0.50440007  0.37661912  0.36658050  1
  V  V61  1  0.12301098  0.25164225  0.37503373  1
  V  V62  1  0.61569217  0.86961861  0.75570887  1
  V  V63  1  0.73666304  0.49422856  0.74238620  1
  V  V64  1  0.24990844  0.37549661  0.12559725  1
  V  V65  1  0.50051408  0.62635634  0.12661148  1
  V  V66  1  0.37958256  0.49198833  0.87210590  1
  V  V67  1  0.75488847  0.11576801  0.87671413  1
  V  V68  1  0.00589908  0.11887107  0.12588335  1
  V  V69  1  0.75313385  0.50181704  0.26357178  1
  V  V70  1  0.37785173  0.36654713  0.00607184  1
  V  V71  1  -0.00024803  0.25076225  0.24854756  1
  V  V72  1  0.24834484  0.86871402  0.62017259  1
  V  V73  1  0.00089534  0.88250695  0.37643733  1
  V  V74  1  0.87081060  0.62680404  0.26458529  1
  V  V75  1  0.12430928  0.74791134  0.87738450  1
  V  V76  1  0.74992590  0.25009377  0.50182562  1
  V  V77  1  0.50605745  0.49953904  0.50916739  1
  V  V78  1  0.87051850  0.38136769  0.50249311  1
  V  V79  1  0.49974718  -0.00320619  -0.01331475  1
  V  V80  1  0.62854973  -0.00238471  0.62942672  1
  V  V81  1  0.74780726  0.74715017  0.48437305  1
  V  V82  1  0.56630230  0.31028992  0.81921755  1
  V  V83  1  0.87626369  0.49928587  0.87217873  1
  V  V84  1  0.87744550  0.11895551  0.75248477  1
  Zn  Zn85  1  0.48847901  0.25445646  0.23664517  1
  Zn  Zn86  1  -0.00742499  0.88042150  0.86897789  1
  Zn  Zn87  1  0.25059431  0.62342414  0.87865409  1
  Zn  Zn88  1  0.37642122  -0.00235519  0.36700543  1
  Zn  Zn89  1  0.75753260  0.74697947  0.00501650  1
  Zn  Zn90  1  0.87138344  0.87192716  -0.01124405  1
  Zn  Zn91  1  0.50405080  0.75012199  0.25464085  1
  Zn  Zn92  1  0.87261670  0.25044987  0.62791838  1
  Zn  Zn93  1  -0.00397155  0.12360125  0.62234920  1
  Zn  Zn94  1  0.24900394  0.75185446  0.00042946  1
  Zn  Zn95  1  0.00625448  0.37784433  0.87092019  1
  Zn  Zn96  1  0.24460903  0.50631338  0.24606811  1
  Zn  Zn97  1  0.24925962  0.88039931  0.11798434  1
  Zn  Zn98  1  0.25383532  0.24548679  0.00634735  1
  Zn  Zn99  1  0.25332015  0.63239478  0.37742274  1
  Zn  Zn100  1  0.00510624  0.49616001  0.00151467  1
  Zn  Zn101  1  0.38219555  0.12365235  0.75767991  1
  Zn  Zn102  1  0.72610527  0.36942695  0.63038022  1
  Zn  Zn103  1  0.87254496  0.62187199  0.74759529  1
  Zn  Zn104  1  0.75662089  -0.01020059  0.76003834  1
  Zn  Zn105  1  0.74823559  0.87173789  0.62724119  1
  Zn  Zn106  1  0.87695394  0.00190951  0.37639988  1
  Zn  Zn107  1  0.18879944  0.19219096  0.18710729  1
  Zn  Zn108  1  0.18642252  0.18556564  0.68812590  1
  Zn  Zn109  1  0.18655123  0.69148031  0.18504555  1
  Zn  Zn110  1  0.19090063  0.68494924  0.68906567  1
  Zn  Zn111  1  0.68495979  0.18743013  0.18437218  1
  Zn  Zn112  1  0.68601152  0.18718535  0.69199448  1
  Zn  Zn113  1  0.68959631  0.69027160  0.19241316  1
  Zn  Zn114  1  0.68852952  0.68892640  0.69037880  1
  Zn  Zn115  1  0.31062753  0.31333781  0.30654197  1
  Zn  Zn116  1  0.31647453  0.31377690  0.81371350  1
  Zn  Zn117  1  0.31221060  0.81771653  0.30930172  1
  Zn  Zn118  1  0.31029018  0.80822924  0.80951789  1
  Zn  Zn119  1  0.81353522  0.31161014  0.31504958  1
  Zn  Zn120  1  0.81208360  0.31163972  0.81061152  1
  Zn  Zn121  1  0.81488214  0.81577373  0.30743238  1
  Zn  Zn122  1  0.81127101  0.81311328  0.81344216  1
  Zn  Zn123  1  0.18451362  0.44102492  0.43605984  1
  Zn  Zn124  1  0.19133898  0.43801707  0.94035443  1
  Zn  Zn125  1  0.18729430  0.93821808  0.43520728  1
  Zn  Zn126  1  0.18581309  0.93803715  0.93631102  1
  Zn  Zn127  1  0.68277936  0.43633447  0.44367006  1
  Zn  Zn128  1  0.68882147  0.43862741  0.93862462  1
  Zn  Zn129  1  0.68816982  0.93436181  0.43964443  1
  Zn  Zn130  1  0.68510816  0.93472523  0.94069884  1
  Zn  Zn131  1  0.31489119  0.05737129  0.05767158  1
  Zn  Zn132  1  0.30907616  0.05991044  0.56103390  1
  Zn  Zn133  1  0.31086581  0.55938925  0.06448197  1
  Zn  Zn134  1  0.31511185  0.56208905  0.56631797  1
  Zn  Zn135  1  0.81152330  0.06032985  0.06440980  1
  Zn  Zn136  1  0.81178266  0.06487255  0.56565510  1
  Zn  Zn137  1  0.81496355  0.56267415  0.06389135  1
  Zn  Zn138  1  0.80877768  0.56511088  0.56043276  1
  Zn  Zn139  1  0.43326144  0.44026118  0.18682594  1
  Zn  Zn140  1  0.55402778  0.43443718  0.68645232  1
  Zn  Zn141  1  0.44057543  0.94056680  0.18385834  1
  Zn  Zn142  1  0.43932424  0.93641713  0.68725412  1
  Zn  Zn143  1  0.93356227  0.44309674  0.18827075  1
  Zn  Zn144  1  0.93391618  0.43573490  0.68612365  1
  Zn  Zn145  1  0.94075285  0.94211010  0.18575629  1
  Zn  Zn146  1  0.93670229  0.93563862  0.68818903  1
  Zn  Zn147  1  0.06602556  0.06079242  0.30926904  1
  Zn  Zn148  1  0.06826044  0.06773904  0.81095617  1
  Zn  Zn149  1  0.05991787  0.56717926  0.31413153  1
  Zn  Zn150  1  0.06312159  0.56359684  0.81446227  1
  Zn  Zn151  1  0.56313205  0.05815755  0.31006287  1
  Zn  Zn152  1  0.56911695  0.06646060  0.81222235  1
  Zn  Zn153  1  0.55907388  0.56079694  0.31204128  1
  Zn  Zn154  1  0.56066689  0.56318473  0.81691362  1
  Zn  Zn155  1  0.41833180  0.20565035  0.39936098  1
  Zn  Zn156  1  0.44056156  0.18570392  0.93838683  1
  Zn  Zn157  1  0.43743417  0.68943520  0.44083426  1
  Zn  Zn158  1  0.43480268  0.68413518  0.94068771  1
  Zn  Zn159  1  0.93429658  0.19026879  0.43616331  1
  Zn  Zn160  1  0.93910573  0.18805830  0.93457556  1
  Zn  Zn161  1  0.94284625  0.69558677  0.43699906  1
  Zn  Zn162  1  0.93485371  0.69125953  0.93876609  1
  Zn  Zn163  1  0.06623846  0.30794681  0.06168155  1
  Zn  Zn164  1  0.05952883  0.31311798  0.56372348  1
  Zn  Zn165  1  0.05670681  0.80958364  0.06011278  1
  Zn  Zn166  1  0.06053968  0.81194434  0.56064579  1
  Zn  Zn167  1  0.56508597  0.31103305  0.06175917  1
  Zn  Zn168  1  0.55887739  0.30671519  0.55374810  1
  Zn  Zn169  1  0.56322927  0.81338949  0.06090686  1
  Zn  Zn170  1  0.56321516  0.81190076  0.56344720  1
  O  O171  1  0.11652729  0.13370545  0.11581463  1
  O  O172  1  0.12492227  0.11489639  0.61611757  1
  O  O173  1  0.11250925  0.63117803  0.11880533  1
  O  O174  1  0.12109841  0.61849035  0.61824396  1
  O  O175  1  0.62571853  0.11556581  0.11452698  1
  O  O176  1  0.61828279  0.11829656  0.61980800  1
  O  O177  1  0.62177502  0.62016180  0.12191518  1
  O  O178  1  0.61306243  0.63445299  0.61954623  1
  O  O179  1  0.37768843  0.38541884  0.38390410  1
  O  O180  1  0.36936685  0.38642866  0.88710802  1
  O  O181  1  0.38081677  0.87751141  0.38296582  1
  O  O182  1  0.37480356  0.86739276  0.88500309  1
  O  O183  1  0.88285178  0.37021698  0.38871273  1
  O  O184  1  0.87507070  0.38121855  0.88335335  1
  O  O185  1  0.88220598  0.87791604  0.38034866  1
  O  O186  1  0.87941652  0.87712739  0.87324700  1
  O  O187  1  0.24838012  0.00591575  0.36318417  1
  O  O188  1  0.24284939  0.00840983  0.86308198  1
  O  O189  1  0.26191299  0.50400575  0.37419047  1
  O  O190  1  0.25664068  0.50145170  0.86791051  1
  O  O191  1  0.75030630  0.01359201  0.37917708  1
  O  O192  1  0.74718438  0.01186423  0.87913892  1
  O  O193  1  0.74339788  0.49290996  0.36200941  1
  O  O194  1  0.75381529  0.50725497  0.86662327  1
  O  O195  1  0.25173389  0.48419112  0.12958937  1
  O  O196  1  0.24349449  0.49577245  0.63101295  1
  O  O197  1  0.24851076  1.00181009  0.13528419  1
  O  O198  1  0.24134422  0.98897492  0.63042441  1
  O  O199  1  0.74479550  0.49381621  0.13162349  1
  O  O200  1  0.75295223  0.50057694  0.64088763  1
  O  O201  1  0.73769436  0.99134516  0.12066987  1
  O  O202  1  0.73581709  0.99887842  0.62383207  1
  O  O203  1  0.00308011  0.37324450  0.25322358  1
  O  O204  1  -0.00498630  0.36092435  0.75129629  1
  O  O205  1  0.00538110  0.87011668  0.25236822  1
  O  O206  1  0.00808092  0.86481001  0.74688075  1
  O  O207  1  0.49416600  0.37600993  0.26257869  1
  O  O208  1  0.50391811  0.37414839  0.76667123  1
  O  O209  1  0.50655469  0.87680710  0.25833012  1
  O  O210  1  0.51594815  0.87860212  0.74935477  1
  O  O211  1  0.50326364  0.12002390  0.23265651  1
  O  O212  1  0.49855372  0.11588196  0.73413841  1
  O  O213  1  0.48904181  0.62789987  0.24524964  1
  O  O214  1  0.48885427  0.61671169  0.74167374  1
  O  O215  1  0.99669532  0.12997050  0.24291197  1
  O  O216  1  0.99321831  0.13291117  0.75003432  1
  O  O217  1  0.99267811  0.63050645  0.24256366  1
  O  O218  1  0.99932251  0.63159448  0.74150237  1
  O  O219  1  0.37559853  0.26382138  -0.00428829  1
  O  O220  1  0.36485379  0.25842109  0.49694173  1
  O  O221  1  0.37500768  0.76047837  0.00563347  1
  O  O222  1  0.37653194  0.76219741  0.50869105  1
  O  O223  1  0.87004309  0.25645236  0.00537864  1
  O  O224  1  0.86215318  0.25580052  0.49977437  1
  O  O225  1  0.87140982  0.75658258  0.00041866  1
  O  O226  1  0.86604539  0.75490791  0.50437426  1
  O  O227  1  0.12876780  0.24473500  0.49498174  1
  O  O228  1  0.12710499  0.23744066  0.99106240  1
  O  O229  1  0.11862856  0.74070621  0.49047121  1
  O  O230  1  0.12401850  0.74176712  0.99266115  1
  O  O231  1  0.63570396  0.24096764  0.49147816  1
  O  O232  1  0.63754980  0.24004585  1.00851255  1
  O  O233  1  0.64041913  0.74736635  0.50279858  1
  O  O234  1  0.63009077  0.74314369  0.99309435  1
  O  O235  1  0.50599800  0.23181250  0.12354564  1
  O  O236  1  0.48720602  0.23663182  0.61033469  1
  O  O237  1  0.49012793  0.74395569  0.12478389  1
  O  O238  1  0.48814076  0.74348372  0.62121892  1
  O  O239  1  0.99362036  0.24076794  0.12837007  1
  O  O240  1  0.99994089  0.24587298  0.63401985  1
  O  O241  1  1.00203935  0.74135439  0.13742696  1
  O  O242  1  0.99077162  0.74460140  0.62820452  1
  O  O243  1  0.00434656  0.25703503  0.36884685  1
  O  O244  1  0.01030412  0.25146343  0.86800889  1
  O  O245  1  0.00910856  0.75976852  0.36310897  1
  O  O246  1  0.01013274  0.74653104  0.86544575  1
  O  O247  1  0.51552613  0.26395429  0.38940850  1
  O  O248  1  0.50847321  0.24431254  0.87143644  1
  O  O249  1  0.49694632  0.76519803  0.37685838  1
  O  O250  1  0.51318501  0.73986028  0.87842738  1
  O  O251  1  0.23684198  0.12852045  0.49426113  1
  O  O252  1  0.24510594  0.12429200  0.99416793  1
  O  O253  1  0.23847171  0.62184791  0.50047894  1
  O  O254  1  0.24225592  0.62905420  1.00201505  1
  O  O255  1  0.74628192  0.13229988  0.49197759  1
  O  O256  1  0.74678548  0.13213957  0.99607782  1
  O  O257  1  0.74148181  0.63728680  0.50000294  1
  O  O258  1  0.74411570  0.62198615  0.99256198  1
  O  O259  1  0.25712481  0.37379488  0.01151571  1
  O  O260  1  0.25405295  0.37173875  0.50309784  1
  O  O261  1  0.26212867  0.87556490  -0.00080827  1
  O  O262  1  0.25892816  0.88060208  0.50803123  1
  O  O263  1  0.76051471  0.36993020  0.00800716  1
  O  O264  1  0.75550197  0.36883010  0.50218985  1
  O  O265  1  0.75001844  0.87500445  0.01445433  1
  O  O266  1  0.75668304  0.86289985  0.50309225  1
  O  O267  1  0.12442173  0.48878413  0.25778939  1
  O  O268  1  0.13400758  0.50625466  0.74024607  1
  O  O269  1  0.13558460  0.99040177  0.25072727  1
  O  O270  1  0.13310324  0.99445970  0.74174301  1
  O  O271  1  0.63295984  0.50767817  0.23939589  1
  O  O272  1  0.63261387  0.50063792  0.75051349  1
  O  O273  1  0.62159346  0.98920652  0.23784092  1
  O  O274  1  0.62894199  0.99036540  0.74532368  1
  O  O275  1  0.35798245  -0.00458810  0.24909907  1
  O  O276  1  0.36197291  0.00077055  0.74241593  1
  O  O277  1  0.37360167  0.51097609  0.25908724  1
  O  O278  1  0.36789959  0.50675683  0.76136350  1
  O  O279  1  0.87983714  0.01534308  0.25237129  1
  O  O280  1  0.87339113  0.01318896  0.74379816  1
  O  O281  1  0.86716370  0.51495117  0.24948437  1
  O  O282  1  0.86855012  0.49956238  0.76065968  1
  O  O283  1  0.11624711  0.37073277  0.36980517  1
  O  O284  1  0.12650821  0.36122803  0.88247285  1
  O  O285  1  0.11876047  0.87004206  0.36849334  1
  O  O286  1  0.11930768  0.86666898  0.86863818  1
  O  O287  1  0.61619696  0.36790717  0.37744215  1
  O  O288  1  0.62485938  0.36523152  0.88385683  1
  O  O289  1  0.61812989  0.88292982  0.36516588  1
  O  O290  1  0.62936782  0.86522138  0.86515973  1
  O  O291  1  0.38893640  0.12171333  0.11909565  1
  O  O292  1  0.38068693  0.13115628  0.62178524  1
  O  O293  1  0.37937097  0.63109767  0.13191130  1
  O  O294  1  0.38220974  0.63227392  0.63014669  1
  O  O295  1  0.88004775  0.13000405  0.13130295  1
  O  O296  1  0.87662667  0.12960890  0.63370747  1
  O  O297  1  0.88789934  0.62440352  0.13223367  1
  O  O298  1  0.88206510  0.63138119  0.62440837  1
  O  O299  1  0.25002240  0.26616852  0.12512093  1
  O  O300  1  0.25408245  0.25292815  0.61797885  1
  O  O301  1  0.26357063  0.75457930  0.12358777  1
  O  O302  1  0.25694331  0.76190641  0.62871573  1
  O  O303  1  0.75571498  0.25839886  0.11976760  1
  O  O304  1  0.74863404  0.25174886  0.61549729  1
  O  O305  1  0.74568994  0.76679018  0.12523049  1
  O  O306  1  0.76251138  0.74703136  0.62006803  1
  O  O307  1  0.23998849  0.24177751  0.37877406  1
  O  O308  1  0.24458992  0.24339750  0.87541560  1
  O  O309  1  0.23651907  0.75292008  0.37054978  1
  O  O310  1  0.23606390  0.74627410  0.87454779  1
  O  O311  1  0.74221262  0.24455245  0.38065267  1
  O  O312  1  0.75612622  0.24266813  0.88768063  1
  O  O313  1  0.75449746  0.75251375  0.38609603  1
  O  O314  1  0.74287261  0.73362809  0.87136781  1
  O  O315  1  0.00544610  0.11784547  0.00506438  1
  O  O316  1  0.01129752  0.13014832  0.49889812  1
  O  O317  1  0.00390905  0.62478054  0.01234198  1
  O  O318  1  0.00671967  0.61984271  0.50435854  1
  O  O319  1  0.50794797  0.11826925  0.00717800  1
  O  O320  1  0.50440444  0.11009436  0.50697475  1
  O  O321  1  0.50359427  0.61411676  0.00893273  1
  O  O322  1  0.50658505  0.62105259  0.50655590  1
  O  O323  1  0.48948203  0.38477304  0.49051461  1
  O  O324  1  0.49286791  0.38682616  1.01251748  1
  O  O325  1  0.49649538  0.88275451  0.49494104  1
  O  O326  1  0.48889881  0.88212750  1.00099210  1
  O  O327  1  0.99337382  0.38442201  0.49562593  1
  O  O328  1  0.98921519  0.37489700  1.00093605  1
  O  O329  1  0.98878671  0.86675228  0.48860777  1
  O  O330  1  1.00293258  0.89272680  1.00151142  1
  O  O331  1  0.48969155  0.49562068  0.38206859  1
  O  O332  1  0.49206816  0.50472447  0.88884603  1
  O  O333  1  0.49693307  0.99338469  0.38308927  1
  O  O334  1  0.50398301  1.00829849  0.88749894  1
  O  O335  1  1.00415442  0.49638982  0.38806359  1
  O  O336  1  0.99111242  0.49697802  0.87701830  1
  O  O337  1  1.00055964  0.98671699  0.37090605  1
  O  O338  1  1.00601371  1.00406047  0.88809864  1
  O  O339  1  0.00077893  0.01371690  0.11626769  1
  O  O340  1  0.01420670  -0.00003035  0.62787632  1
  O  O341  1  -0.00092627  0.51484120  0.12372818  1
  O  O342  1  0.00676507  0.50340939  0.61899873  1
  O  O343  1  0.50878676  0.00910816  0.11597537  1
  O  O344  1  0.50979106  0.00252025  0.61814555  1
  O  O345  1  0.50824257  0.50573299  0.12330692  1
  O  O346  1  0.49538980  0.51120665  0.61392758  1
  O  O347  1  0.24093031  0.37759477  0.24328680  1
  O  O348  1  0.25717954  0.38752367  0.74208191  1
  O  O349  1  0.24196466  0.88707839  0.24616996  1
  O  O350  1  0.24425592  0.88033980  0.74283182  1
  O  O351  1  0.76073048  0.38300793  0.23899040  1
  O  O352  1  0.75247959  0.38921852  0.74749918  1
  O  O353  1  0.74405088  0.87594759  0.23937196  1
  O  O354  1  0.73848711  0.87492782  0.74535214  1
  O  O355  1  0.24091942  0.11356084  0.25674724  1
  O  O356  1  0.25202725  0.11593621  0.75605488  1
  O  O357  1  0.26047251  0.62613075  0.25091713  1
  O  O358  1  0.26180529  0.61302820  0.74812494  1
  O  O359  1  0.75841749  0.13356789  0.25800133  1
  O  O360  1  0.75696928  0.12346100  0.76082850  1
  O  O361  1  0.76368379  0.62069510  0.24838432  1
  O  O362  1  0.74904895  0.61220538  0.75636627  1
  O  O363  1  0.35442047  0.11161365  0.39236066  1
  O  O364  1  0.36164765  0.12911770  0.87504550  1
  O  O365  1  0.37452580  0.62162730  0.36954896  1
  O  O366  1  0.37317781  0.61688846  0.86838487  1
  O  O367  1  0.86666705  0.12496688  0.36788056  1
  O  O368  1  0.86726998  0.12809476  0.86689197  1
  O  O369  1  0.88381750  0.62686658  0.36295055  1
  O  O370  1  0.86761041  0.61609686  0.87298184  1
  O  O371  1  0.13289148  0.37270605  0.13309402  1
  O  O372  1  0.13067461  0.38863828  0.61803503  1
  O  O373  1  0.12665022  0.86800832  0.13484994  1
  O  O374  1  0.13145512  0.87801331  0.62710589  1
  O  O375  1  0.63691417  0.38442894  0.12144833  1
  O  O376  1  0.61606615  0.38491037  0.60769157  1
  O  O377  1  0.63017607  0.88248806  0.13012080  1
  O  O378  1  0.62487321  0.88020671  0.63485648  1
  O  O379  1  0.11782600  0.26104226  0.25583041  1
  O  O380  1  0.11654810  0.24352434  0.75973607  1
  O  O381  1  0.11821044  0.75805960  0.25643177  1
  O  O382  1  0.11999782  0.75270513  0.75451441  1
  O  O383  1  0.61748715  0.24675956  0.26031155  1
  O  O384  1  0.62399418  0.26036136  0.75026174  1
  O  O385  1  0.62112540  0.76573160  0.24613422  1
  O  O386  1  0.62556884  0.76077080  0.75706873  1
  O  O387  1  0.39019770  0.23960393  0.28998023  1
  O  O388  1  0.37051009  0.24710416  0.73433682  1
  O  O389  1  0.37817908  0.74594635  0.24326829  1
  O  O390  1  0.37084390  0.73869925  0.74064124  1
  O  O391  1  0.88183980  0.24197176  0.24556725  1
  O  O392  1  0.88292414  0.24079683  0.75004057  1
  O  O393  1  0.88277283  0.73855862  0.25269045  1
  O  O394  1  0.88079210  0.74584400  0.74039113  1
  O  O395  1  0.38104106  0.49544403  0.49508974  1
  O  O396  1  0.38291717  0.49349436  0.99590353  1
  O  O397  1  0.38359193  0.98657490  0.50482327  1
  O  O398  1  0.38322857  0.98526172  0.99938687  1
  O  O399  1  0.88300220  0.49490914  0.50437446  1
  O  O400  1  0.87462036  0.49210334  0.98944853  1
  O  O401  1  0.86942644  0.98666340  0.50041617  1
  O  O402  1  0.89058945  1.00157999  1.00248376  1
  O  O403  1  0.11742521  0.01313936  -0.00243989  1
  O  O404  1  0.12915064  0.00792212  0.50767082  1
  O  O405  1  0.12315574  0.51426137  -0.00527600  1
  O  O406  1  0.11707959  0.50910965  0.50684861  1
  O  O407  1  0.61759465  0.00464731  0.00703215  1
  O  O408  1  0.61878962  0.00285620  0.50726419  1
  O  O409  1  0.61921409  0.50501397  0.01036312  1
  O  O410  1  0.61460416  0.51410972  0.49320164  1
  O  O411  1  0.36515847  0.37647581  0.11967575  1
  O  O412  1  0.36789716  0.36456456  0.60890681  1
  O  O413  1  0.37539975  0.86877536  0.11769098  1
  O  O414  1  0.36972725  0.86711673  0.62087263  1
  O  O415  1  0.86970848  0.37217527  0.11795814  1
  O  O416  1  0.87458898  0.37076377  0.61093428  1
  O  O417  1  0.86104184  0.88358681  0.12720781  1
  O  O418  1  0.87455454  0.86625035  0.61703722  1
  O  O419  1  0.13036056  0.12902673  0.38077726  1
  O  O420  1  0.13645441  0.13332360  0.88136970  1
  O  O421  1  0.12674248  0.63441751  0.38228190  1
  O  O422  1  0.12652508  0.63201394  0.88423952  1
  O  O423  1  0.63001457  0.13010504  0.37786203  1
  O  O424  1  0.63510254  0.12342721  0.88942835  1
  O  O425  1  0.61498055  0.63187153  0.38296785  1
  O  O426  1  0.63145115  0.62845017  0.88187314  1
