# generated using pymatgen
data_V85Zn86O256
_symmetry_space_group_name_H-M   'P 1'
_cell_length_a   16.92736166
_cell_length_b   16.92332969
_cell_length_c   16.92962083
_cell_angle_alpha   90.01872193
_cell_angle_beta   89.93004114
_cell_angle_gamma   89.95689905
_symmetry_Int_Tables_number   1
_chemical_formula_structural   V85Zn86O256
_chemical_formula_sum   'V85 Zn86 O256'
_cell_volume   4849.77789837
_cell_formula_units_Z   1
loop_
 _symmetry_equiv_pos_site_id
 _symmetry_equiv_pos_as_xyz
  1  'x, y, z'
loop_
 _atom_site_type_symbol
 _atom_site_label
 _atom_site_symmetry_multiplicity
 _atom_site_fract_x
 _atom_site_fract_y
 _atom_site_fract_z
 _atom_site_occupancy
  V  V0  1  0.75109415  0.24831025  -0.00970039  1
  V  V1  1  0.63431802  -0.00071358  0.12602038  1
  V  V2  1  0.86907759  0.11581472  0.25232596  1
  V  V3  1  0.75325413  0.24853865  0.49721748  1
  V  V4  1  -0.00569245  0.24435480  0.74825933  1
  V  V5  1  0.62678864  0.25024461  0.37634872  1
  V  V6  1  0.74759981  0.37534737  0.62494903  1
  V  V7  1  0.75173670  0.75363733  0.50350076  1
  V  V8  1  0.49750574  0.87897729  0.87824899  1
  V  V9  1  0.87304731  0.01222806  0.86726733  1
  V  V10  1  0.24929745  0.25000830  -0.00372665  1
  V  V11  1  0.49707036  0.37698949  0.37695796  1
  V  V12  1  0.75443831  0.37539056  0.11899901  1
  V  V13  1  0.49445463  0.00040966  -0.00070033  1
  V  V14  1  0.25342594  0.74897428  -0.00709699  1
  V  V15  1  0.13369138  0.24726261  0.37293808  1
  V  V16  1  0.63222298  0.12623182  -0.00844990  1
  V  V17  1  0.87852928  0.49899483  0.37713110  1
  V  V18  1  0.50215762  0.12394340  0.12877506  1
  V  V19  1  0.87649311  0.62231874  0.24690948  1
  V  V20  1  0.12518475  -0.00135967  0.62356399  1
  V  V21  1  0.13050055  0.00150574  0.12026043  1
  V  V22  1  0.63334237  0.87535328  0.25071642  1
  V  V23  1  0.50078081  0.87413025  0.37778927  1
  V  V24  1  0.36332551  0.37601073  0.50380256  1
  V  V25  1  0.49892790  0.49963090  0.50229416  1
  V  V26  1  0.87884505  0.37908649  0.50124395  1
  V  V27  1  0.87936127  0.62511758  0.75421500  1
  V  V28  1  0.01319173  0.62048585  0.11987711  1
  V  V29  1  0.75159758  0.49827108  0.24940784  1
  V  V30  1  0.12153484  0.87107010  0.74847501  1
  V  V31  1  0.49966450  0.00027588  0.50662922  1
  V  V32  1  0.49951186  0.62488393  0.12109101  1
  V  V33  1  0.37411786  0.87510578  0.50422422  1
  V  V34  1  0.25033360  0.87810812  0.63182996  1
  V  V35  1  0.62542748  0.12493703  0.50338506  1
  V  V36  1  0.37645036  0.75922286  0.11975687  1
  V  V37  1  0.25709226  0.50446498  0.75916495  1
  V  V38  1  0.00047619  0.25171357  0.24931665  1
  V  V39  1  0.62550078  0.49951211  0.12758533  1
  V  V40  1  0.37373612  0.00717192  0.37815109  1
  V  V41  1  0.13248304  0.49188580  0.62049755  1
  V  V42  1  -0.01350965  0.38142635  0.87154581  1
  V  V43  1  0.49959759  0.74942889  0.25067448  1
  V  V44  1  0.74453431  0.01530062  0.75283247  1
  V  V45  1  -0.00190504  0.61635657  0.62374691  1
  V  V46  1  0.87606375  0.25422969  0.12020652  1
  V  V47  1  0.37318573  0.12929738  0.25413691  1
  V  V48  1  0.36545039  0.12891100  0.75238090  1
  V  V49  1  0.49912420  0.24950729  0.25199040  1
  V  V50  1  0.49658550  0.47757392  -0.00046864  1
  V  V51  1  0.74798045  0.49984236  0.75355446  1
  V  V52  1  0.75089411  0.75057454  -0.00085729  1
  V  V53  1  0.12124314  0.25145641  0.87790886  1
  V  V54  1  0.88186210  0.75305442  0.62846416  1
  V  V55  1  0.62524448  0.62525989  0.50415187  1
  V  V56  1  0.12507097  0.74077282  0.87282346  1
  V  V57  1  0.12796279  0.11927855  0.49624271  1
  V  V58  1  0.49148903  0.62595546  0.62837724  1
  V  V59  1  0.25769756  -0.00374199  0.25077042  1
  V  V60  1  0.62382854  0.75059022  0.87464578  1
  V  V61  1  0.23879352  0.11871055  0.87644362  1
  V  V62  1  0.24447083  0.50411381  0.24479796  1
  V  V63  1  0.00516142  0.12606299  0.12062896  1
  V  V64  1  -0.00086117  0.86829857  0.87036529  1
  V  V65  1  0.75082001  0.62028170  0.87528771  1
  V  V66  1  -0.00378228  0.49156240  0.00283359  1
  V  V67  1  0.75087494  0.62311097  0.37684186  1
  V  V68  1  0.49564629  0.13569308  0.62856005  1
  V  V69  1  0.87907577  0.74881739  0.12309666  1
  V  V70  1  0.88700893  0.88567458  0.48690379  1
  V  V71  1  0.37405292  0.25647536  0.12033376  1
  V  V72  1  0.62482988  0.36258908  0.76323951  1
  V  V73  1  0.08916787  0.90036434  0.26546596  1
  V  V74  1  0.00502055  0.00301776  -0.00297409  1
  V  V75  1  0.36127093  0.25588414  0.63162969  1
  V  V76  1  0.87500481  0.87704376  -0.00048241  1
  V  V77  1  0.11824374  0.62341700  0.49689606  1
  V  V78  1  -0.00654895  0.11702130  0.62265141  1
  V  V79  1  0.00370624  0.74386241  0.25613790  1
  V  V80  1  0.24368788  0.38127981  0.11691132  1
  V  V81  1  0.00232968  0.37896633  0.37705586  1
  V  V82  1  0.24783212  0.75002372  0.49960143  1
  V  V83  1  0.49205555  0.74995032  0.75163402  1
  V  V84  1  0.36945121  -0.00222434  0.87193207  1
  Zn  Zn85  1  0.62666492  0.62271423  0.00032596  1
  Zn  Zn86  1  0.25161524  0.87568173  0.12299367  1
  Zn  Zn87  1  0.12307173  0.37918245  0.24433899  1
  Zn  Zn88  1  0.62231037  0.49948615  0.63158306  1
  Zn  Zn89  1  0.37512738  0.49377707  0.87838650  1
  Zn  Zn90  1  0.24826029  0.24805269  0.49921934  1
  Zn  Zn91  1  0.62355750  0.00011346  0.63201750  1
  Zn  Zn92  1  0.12483074  0.37444078  0.74513642  1
  Zn  Zn93  1  0.37136594  0.50237873  0.37353019  1
  Zn  Zn94  1  0.13400476  0.61388281  -0.00468789  1
  Zn  Zn95  1  0.62902077  0.87970597  0.75230584  1
  Zn  Zn96  1  0.75134672  0.87781020  0.63114857  1
  Zn  Zn97  1  0.62584245  0.37334541  0.25134149  1
  Zn  Zn98  1  0.62443855  0.74832014  0.37666855  1
  Zn  Zn99  1  0.77328857  0.09709580  0.38378979  1
  Zn  Zn100  1  0.25043735  0.62588783  0.37384128  1
  Zn  Zn101  1  0.47308822  0.31812371  0.83921819  1
  Zn  Zn102  1  0.75413829  0.87661263  0.12820227  1
  Zn  Zn103  1  0.12537825  0.75590655  0.37333508  1
  Zn  Zn104  1  0.37428101  0.62446768  0.25130863  1
  Zn  Zn105  1  0.87518377  0.24665811  0.62692581  1
  Zn  Zn106  1  0.37016288  0.74763188  0.63058579  1
  Zn  Zn107  1  0.18983687  0.18593571  0.18665836  1
  Zn  Zn108  1  0.18279933  0.18597365  0.69059667  1
  Zn  Zn109  1  0.18792687  0.69298880  0.18668280  1
  Zn  Zn110  1  0.18504912  0.68537379  0.68713731  1
  Zn  Zn111  1  0.68953518  0.18764745  0.18687122  1
  Zn  Zn112  1  0.69068529  0.18569063  0.68582954  1
  Zn  Zn113  1  0.68883157  0.68839525  0.18645866  1
  Zn  Zn114  1  0.68590003  0.68969083  0.68942169  1
  Zn  Zn115  1  0.31120373  0.32058727  0.30910301  1
  Zn  Zn116  1  0.30247139  0.32277276  0.81035314  1
  Zn  Zn117  1  0.31559448  0.81418226  0.31435216  1
  Zn  Zn118  1  0.31169056  0.81461349  0.81495554  1
  Zn  Zn119  1  0.81392075  0.31098280  0.30986773  1
  Zn  Zn120  1  0.81244468  0.30828006  0.80950987  1
  Zn  Zn121  1  0.81471614  0.80806967  0.31436673  1
  Zn  Zn122  1  0.81113659  0.81435923  0.81070673  1
  Zn  Zn123  1  0.18431870  0.44109705  0.43345013  1
  Zn  Zn124  1  0.18349536  0.43607730  0.93261273  1
  Zn  Zn125  1  0.18874587  0.93992116  0.43848921  1
  Zn  Zn126  1  0.18864036  0.93022503  0.93868947  1
  Zn  Zn127  1  0.68674284  0.43796635  0.43961569  1
  Zn  Zn128  1  0.68542896  0.43750974  0.93929948  1
  Zn  Zn129  1  0.68937798  0.93459631  0.44163098  1
  Zn  Zn130  1  0.68815795  0.94111823  0.93469468  1
  Zn  Zn131  1  0.31242846  0.06898933  0.06023276  1
  Zn  Zn132  1  0.30742679  0.06419912  0.56484515  1
  Zn  Zn133  1  0.31682839  0.56641696  0.06138840  1
  Zn  Zn134  1  0.30973978  0.56324116  0.56192502  1
  Zn  Zn135  1  0.81679178  0.06350459  0.06335820  1
  Zn  Zn136  1  0.81260259  0.05868655  0.56491527  1
  Zn  Zn137  1  0.81854192  0.56074894  0.05783637  1
  Zn  Zn138  1  0.81244736  0.56089019  0.56575822  1
  Zn  Zn139  1  0.43321644  0.43701071  0.18801383  1
  Zn  Zn140  1  0.43836438  0.43604933  0.69023934  1
  Zn  Zn141  1  0.44419257  0.93760174  0.18894428  1
  Zn  Zn142  1  0.43576689  0.94024634  0.69417681  1
  Zn  Zn143  1  0.93920527  0.43723156  0.18490587  1
  Zn  Zn144  1  0.93514781  0.43948517  0.68962843  1
  Zn  Zn145  1  0.93736561  0.94305078  0.19375549  1
  Zn  Zn146  1  0.93548909  0.93592884  0.68697048  1
  Zn  Zn147  1  0.06212384  0.06917061  0.30817842  1
  Zn  Zn148  1  0.06171011  0.05762061  0.80565508  1
  Zn  Zn149  1  0.06696169  0.56227423  0.31250283  1
  Zn  Zn150  1  0.06149577  0.55817026  0.80720826  1
  Zn  Zn151  1  0.59504316  0.04577353  0.33079714  1
  Zn  Zn152  1  0.54718174  0.11690767  0.82621475  1
  Zn  Zn153  1  0.56254996  0.56346897  0.31309647  1
  Zn  Zn154  1  0.53189766  0.57574175  0.83176296  1
  Zn  Zn155  1  0.43604889  0.19036669  0.44168210  1
  Zn  Zn156  1  0.43197032  0.18349322  0.94301682  1
  Zn  Zn157  1  0.43356062  0.68676462  0.43825367  1
  Zn  Zn158  1  0.43069843  0.68047696  0.93635130  1
  Zn  Zn159  1  0.94291875  0.18774660  0.43812770  1
  Zn  Zn160  1  0.93863727  0.18985751  0.93892997  1
  Zn  Zn161  1  0.93604111  0.68999628  0.43988251  1
  Zn  Zn162  1  0.93979902  0.68355492  0.93797489  1
  Zn  Zn163  1  0.06490198  0.31438416  0.05587133  1
  Zn  Zn164  1  0.06092998  0.30723422  0.55894681  1
  Zn  Zn165  1  0.06699657  0.81357823  0.06439884  1
  Zn  Zn166  1  0.05858666  0.81049488  0.56100771  1
  Zn  Zn167  1  0.57005383  0.30716353  0.06657557  1
  Zn  Zn168  1  0.56101226  0.31353673  0.56571561  1
  Zn  Zn169  1  0.56289867  0.81490642  0.06025594  1
  Zn  Zn170  1  0.56584085  0.81442610  0.56913394  1
  O  O171  1  0.11432642  0.11587050  0.12987711  1
  O  O172  1  0.11911639  0.11530753  0.61973769  1
  O  O173  1  0.11506955  0.62758551  0.12211597  1
  O  O174  1  0.11531165  0.61832972  0.61763931  1
  O  O175  1  0.62038097  0.11641202  0.12528819  1
  O  O176  1  0.61329712  0.12511647  0.62101548  1
  O  O177  1  0.62060632  0.61590854  0.12524563  1
  O  O178  1  0.62063758  0.62523325  0.61438205  1
  O  O179  1  0.38249690  0.37630421  0.38387270  1
  O  O180  1  0.38313183  0.37804286  0.86556670  1
  O  O181  1  0.38305367  0.88463262  0.38303033  1
  O  O182  1  0.38241662  0.88583999  0.87324617  1
  O  O183  1  0.88156610  0.37845448  0.38041259  1
  O  O184  1  0.88816159  0.37091552  0.87261775  1
  O  O185  1  0.87265803  0.87028871  0.38780400  1
  O  O186  1  0.88259275  0.87842067  0.88403996  1
  O  O187  1  0.26604357  -0.00221683  0.36796111  1
  O  O188  1  0.25618545  0.00727371  0.88637223  1
  O  O189  1  0.24976268  0.50077903  0.35904562  1
  O  O190  1  0.25247169  0.50152702  0.86573781  1
  O  O191  1  0.70345833  0.01419859  0.36616102  1
  O  O192  1  0.76498806  -0.00099619  0.86787555  1
  O  O193  1  0.75564537  0.50354103  0.37004411  1
  O  O194  1  0.74555044  0.51288760  0.87214988  1
  O  O195  1  0.25628096  0.49234421  0.13004445  1
  O  O196  1  0.23467877  0.50031416  0.62337920  1
  O  O197  1  0.24616925  0.99989874  0.12676781  1
  O  O198  1  0.23938092  0.98983164  0.62159383  1
  O  O199  1  0.74583422  0.49464075  0.12642988  1
  O  O200  1  0.74724496  0.49137878  0.63235321  1
  O  O201  1  0.73816804  0.99758133  0.12070491  1
  O  O202  1  0.75050044  1.00122838  0.64160384  1
  O  O203  1  0.00270602  0.36751602  0.25418408  1
  O  O204  1  0.00030078  0.36918717  0.75828187  1
  O  O205  1  -0.00397030  0.84858961  0.22618118  1
  O  O206  1  0.00611383  0.87606162  0.75937894  1
  O  O207  1  0.49993415  0.36898162  0.25933714  1
  O  O208  1  0.52005562  0.37609043  0.74740063  1
  O  O209  1  0.50703721  0.86592732  0.25671148  1
  O  O210  1  0.50296450  0.87071482  0.76182043  1
  O  O211  1  0.48948124  0.13199802  0.24547912  1
  O  O212  1  0.48081210  0.11520245  0.73643216  1
  O  O213  1  0.50208357  0.63268648  0.24093294  1
  O  O214  1  0.51464966  0.63790073  0.73554604  1
  O  O215  1  0.99041161  0.13457942  0.23989028  1
  O  O216  1  1.00578743  0.12992490  0.73409187  1
  O  O217  1  0.99804675  0.62679814  0.24012327  1
  O  O218  1  0.98646902  0.62097756  0.74258860  1
  O  O219  1  0.36441700  0.24549640  0.00995328  1
  O  O220  1  0.36853705  0.25772024  0.50735865  1
  O  O221  1  0.36515056  0.74596617  0.00359985  1
  O  O222  1  0.36663819  0.75853127  0.50408817  1
  O  O223  1  0.86881733  0.24247694  0.01367614  1
  O  O224  1  0.86842574  0.25943005  0.49816631  1
  O  O225  1  0.87221937  0.75755579  0.00351482  1
  O  O226  1  0.86749089  0.75532395  0.50775700  1
  O  O227  1  0.12773065  0.24271134  0.48979888  1
  O  O228  1  0.12847055  0.24714059  0.98557451  1
  O  O229  1  0.13077934  0.74463849  0.49683661  1
  O  O230  1  0.13385872  0.74745081  0.99126300  1
  O  O231  1  0.63340027  0.24739571  0.49681483  1
  O  O232  1  0.63468436  0.23428269  1.00707579  1
  O  O233  1  0.63323400  0.74298236  0.50111515  1
  O  O234  1  0.63124996  0.75003138  0.99009677  1
  O  O235  1  0.49303771  0.24592795  0.13193571  1
  O  O236  1  0.48827799  0.23962560  0.61918048  1
  O  O237  1  0.49790277  0.74427429  0.12935978  1
  O  O238  1  0.49796264  0.74551360  0.63463986  1
  O  O239  1  0.99684826  0.24559462  0.12678268  1
  O  O240  1  1.00096186  0.23920524  0.63191912  1
  O  O241  1  0.99583645  0.73626827  0.12270839  1
  O  O242  1  0.98778713  0.73812162  0.62171854  1
  O  O243  1  0.00514790  0.25939750  0.36533692  1
  O  O244  1  0.00340504  0.25519196  0.86986953  1
  O  O245  1  0.00031638  0.74359750  0.35995438  1
  O  O246  1  0.00785107  0.76266502  0.88372948  1
  O  O247  1  0.50377264  0.26227554  0.37438051  1
  O  O248  1  0.50818041  0.21885302  0.87102238  1
  O  O249  1  0.50024690  0.75433424  0.36719700  1
  O  O250  1  0.50561752  0.75919603  0.87256150  1
  O  O251  1  0.23374331  0.12644531  0.50117115  1
  O  O252  1  0.24945274  0.13796730  0.99006950  1
  O  O253  1  0.23907415  0.63421925  0.50085266  1
  O  O254  1  0.24761532  0.64054580  1.00539901  1
  O  O255  1  0.74790527  0.13206971  0.49731184  1
  O  O256  1  0.73957096  0.13185474  1.01144317  1
  O  O257  1  0.74428897  0.63107981  0.49807613  1
  O  O258  1  0.75004867  0.63073728  0.99219728  1
  O  O259  1  0.24481708  0.36248349  0.00348851  1
  O  O260  1  0.26085587  0.37521741  0.49394382  1
  O  O261  1  0.24535200  0.85663259  0.00646807  1
  O  O262  1  0.25293393  0.86975169  0.50986936  1
  O  O263  1  0.74391857  0.36636933  0.01188340  1
  O  O264  1  0.75563628  0.36877367  0.50599528  1
  O  O265  1  0.75936077  0.86971576  -0.00158326  1
  O  O266  1  0.75295735  0.86294796  0.50351165  1
  O  O267  1  0.13867134  0.49883584  0.24713053  1
  O  O268  1  0.12641196  0.49869610  0.73349376  1
  O  O269  1  0.14357697  1.00350203  0.24217158  1
  O  O270  1  0.12202910  0.98524176  0.73621089  1
  O  O271  1  0.63138778  0.49878984  0.24197495  1
  O  O272  1  0.64014548  0.48921771  0.74988135  1
  O  O273  1  0.60920168  0.98512706  0.23517595  1
  O  O274  1  0.63964409  1.00717897  0.75582390  1
  O  O275  1  0.37775054  0.00847505  0.25774515  1
  O  O276  1  0.37217223  0.00793144  0.76487899  1
  O  O277  1  0.36184301  0.50182174  0.25049042  1
  O  O278  1  0.35900535  0.49796153  0.74327452  1
  O  O279  1  0.86309606  0.01723856  0.24011995  1
  O  O280  1  0.87073851  -0.00253734  0.76296590  1
  O  O281  1  0.87081231  0.50386010  0.25509417  1
  O  O282  1  0.86089751  0.51108549  0.74527104  1
  O  O283  1  0.11689317  0.36712639  0.37216462  1
  O  O284  1  0.11309443  0.36406424  0.87046257  1
  O  O285  1  0.13112000  0.87763731  0.35873881  1
  O  O286  1  0.11802818  0.86980234  0.86610829  1
  O  O287  1  0.61781550  0.36602093  0.37597479  1
  O  O288  1  0.63518263  0.36855792  0.86274473  1
  O  O289  1  0.61708037  0.86944678  0.36816614  1
  O  O290  1  0.61728292  0.86953208  0.87501085  1
  O  O291  1  0.38146778  0.13536055  0.13180068  1
  O  O292  1  0.37475636  0.13278441  0.63203140  1
  O  O293  1  0.38529862  0.63700756  0.12874525  1
  O  O294  1  0.38751282  0.62849279  0.61834423  1
  O  O295  1  0.88500764  0.13180904  0.13294998  1
  O  O296  1  0.89026139  0.12620723  0.61750698  1
  O  O297  1  0.88370466  0.62748903  0.13041374  1
  O  O298  1  0.88104774  0.62964688  0.62923367  1
  O  O299  1  0.25523537  0.25283821  0.11646801  1
  O  O300  1  0.25753352  0.24791376  0.62414263  1
  O  O301  1  0.25982899  0.75394092  0.11866311  1
  O  O302  1  0.24882189  0.75663775  0.61540603  1
  O  O303  1  0.75865013  0.25792986  0.12143879  1
  O  O304  1  0.75412130  0.25503502  0.61312598  1
  O  O305  1  0.75875827  0.75086536  0.11664155  1
  O  O306  1  0.75966523  0.74812570  0.61763252  1
  O  O307  1  0.23633065  0.25363011  0.36953487  1
  O  O308  1  0.24038439  0.24480940  0.87886602  1
  O  O309  1  0.24987790  0.75271152  0.38763160  1
  O  O310  1  0.24278608  0.75319967  0.88438516  1
  O  O311  1  0.74227231  0.25426094  0.38488884  1
  O  O312  1  0.76044518  0.24964325  0.89121615  1
  O  O313  1  0.74904180  0.73978682  0.38535775  1
  O  O314  1  0.74253750  0.74213279  0.87852807  1
  O  O315  1  -0.00348507  0.11335788  0.00722069  1
  O  O316  1  0.01148431  0.13106432  0.51410346  1
  O  O317  1  0.00383953  0.61518677  0.00572373  1
  O  O318  1  0.00998470  0.62911390  0.50635507  1
  O  O319  1  0.51349102  0.11813482  0.00892896  1
  O  O320  1  0.50085318  0.11836770  0.50980713  1
  O  O321  1  0.50609435  0.62209982  0.01509873  1
  O  O322  1  0.50794008  0.62206608  0.50647787  1
  O  O323  1  0.49407066  0.38024656  0.49431189  1
  O  O324  1  0.49927586  0.37901971  1.01442008  1
  O  O325  1  0.49532708  0.88191110  0.49941723  1
  O  O326  1  0.50431746  0.88564433  0.98789164  1
  O  O327  1  0.98980135  0.36855293  0.48971119  1
  O  O328  1  0.99974900  0.38231492  0.98812967  1
  O  O329  1  0.98677917  0.87410478  0.49929189  1
  O  O330  1  0.99525023  0.88485124  0.99538786  1
  O  O331  1  0.50074375  0.48932358  0.37969753  1
  O  O332  1  0.52058392  0.48290167  0.90031453  1
  O  O333  1  0.49571476  0.99663825  0.38966993  1
  O  O334  1  0.49232511  0.99870187  0.88173263  1
  O  O335  1  0.99656857  0.48672416  0.36830526  1
  O  O336  1  0.99957547  0.48581655  0.87619001  1
  O  O337  1  1.01167321  0.96942666  0.29688285  1
  O  O338  1  0.99317194  0.99198490  0.87935140  1
  O  O339  1  0.00626320  0.00813502  0.11680728  1
  O  O340  1  0.00482986  0.01083802  0.62788052  1
  O  O341  1  -0.00078860  0.50329640  0.11225270  1
  O  O342  1  0.00466603  0.51107498  0.62595881  1
  O  O343  1  0.50495263  0.00437438  0.11545616  1
  O  O344  1  0.49386218  0.00695746  0.61620224  1
  O  O345  1  0.50735345  0.50465696  0.12380720  1
  O  O346  1  0.50266263  0.50892373  0.62114933  1
  O  O347  1  0.24653911  0.38625736  0.23933200  1
  O  O348  1  0.23853106  0.39338924  0.74706702  1
  O  O349  1  0.26346971  0.89066223  0.24392472  1
  O  O350  1  0.24295014  0.87015652  0.73791603  1
  O  O351  1  0.75022362  0.38104355  0.24018411  1
  O  O352  1  0.74857785  0.37966214  0.74296670  1
  O  O353  1  0.73715763  0.86523165  0.24910738  1
  O  O354  1  0.74947413  0.88891240  0.75166899  1
  O  O355  1  0.26607077  0.11505750  0.24315755  1
  O  O356  1  0.25723265  0.12549547  0.75797186  1
  O  O357  1  0.25010724  0.61559495  0.24670159  1
  O  O358  1  0.24238686  0.60457865  0.74163884  1
  O  O359  1  0.76835735  0.13979464  0.25556494  1
  O  O360  1  0.75533242  0.11502066  0.74943071  1
  O  O361  1  0.75517401  0.61871429  0.25578593  1
  O  O362  1  0.75343555  0.61871938  0.75653505  1
  O  O363  1  0.38156529  0.11858254  0.36817684  1
  O  O364  1  0.36081745  0.11958653  0.86888563  1
  O  O365  1  0.37033767  0.62148291  0.37091643  1
  O  O366  1  0.42091822  0.59986912  0.86302884  1
  O  O367  1  0.88300674  0.12532092  0.35997218  1
  O  O368  1  0.88241234  0.10989302  0.87690408  1
  O  O369  1  0.87165373  0.61784298  0.37027589  1
  O  O370  1  0.86471254  0.63395807  0.86450922  1
  O  O371  1  0.13934413  0.36734193  0.12583208  1
  O  O372  1  0.11442956  0.38983337  0.61972255  1
  O  O373  1  0.12268179  0.89108183  0.14062364  1
  O  O374  1  0.12767926  0.87803356  0.62903784  1
  O  O375  1  0.63454832  0.38156788  0.13121520  1
  O  O376  1  0.63804523  0.37525302  0.62765223  1
  O  O377  1  0.62699917  0.88104984  0.13133665  1
  O  O378  1  0.63007577  0.88166136  0.63288614  1
  O  O379  1  0.11435019  0.24658741  0.25424413  1
  O  O380  1  0.11362209  0.25141109  0.75827636  1
  O  O381  1  0.11609825  0.75890472  0.25126541  1
  O  O382  1  0.12887102  0.76120185  0.75663511  1
  O  O383  1  0.61922708  0.25042391  0.25950529  1
  O  O384  1  0.63421838  0.26349143  0.74668380  1
  O  O385  1  0.61452442  0.75554532  0.24944826  1
  O  O386  1  0.61886836  0.75332954  0.76285632  1
  O  O387  1  0.37719174  0.24524584  0.24593668  1
  O  O388  1  0.36981413  0.24379123  0.74372084  1
  O  O389  1  0.38687597  0.75067715  0.24307149  1
  O  O390  1  0.38772208  0.75306522  0.75158669  1
  O  O391  1  0.88620315  0.24773867  0.24006858  1
  O  O392  1  0.88887202  0.25027810  0.74636973  1
  O  O393  1  0.88061218  0.74054249  0.24255516  1
  O  O394  1  0.86714621  0.73979606  0.73914109  1
  O  O395  1  0.38096108  0.49284652  0.49954087  1
  O  O396  1  0.39383547  0.50045386  1.00364661  1
  O  O397  1  0.37872115  0.99815549  0.49486390  1
  O  O398  1  0.38767690  1.01127309  0.99152918  1
  O  O399  1  0.86920075  0.48704687  0.49400518  1
  O  O400  1  0.89523943  0.50499664  0.99411074  1
  O  O401  1  0.86721176  0.98524649  0.49678748  1
  O  O402  1  0.88114699  0.99414435  0.99136953  1
  O  O403  1  0.11698524  -0.00619241  0.00768449  1
  O  O404  1  0.12450956  0.00449839  0.50974494  1
  O  O405  1  0.10701770  0.50168621  -0.01060585  1
  O  O406  1  0.12724615  0.50950233  0.50876015  1
  O  O407  1  0.61913795  0.00683266  0.00761655  1
  O  O408  1  0.61433988  0.00692174  0.50825096  1
  O  O409  1  0.61906227  0.49859984  0.01610597  1
  O  O410  1  0.61827536  0.50768387  0.50367681  1
  O  O411  1  0.36370662  0.36156692  0.13034895  1
  O  O412  1  0.38217292  0.36506439  0.61632651  1
  O  O413  1  0.38215362  0.86250566  0.12488458  1
  O  O414  1  0.36624313  0.87588166  0.62257726  1
  O  O415  1  0.86772981  0.36660685  0.12700202  1
  O  O416  1  0.86594179  0.37388094  0.61760564  1
  O  O417  1  0.87537608  0.87346759  0.11253504  1
  O  O418  1  0.87378688  0.86634352  0.61762216  1
  O  O419  1  0.11428488  0.13312186  0.38325122  1
  O  O420  1  0.13358199  0.12769169  0.86611932  1
  O  O421  1  0.12804215  0.62874053  0.38377172  1
  O  O422  1  0.11484180  0.63858351  0.87129677  1
  O  O423  1  0.60949077  0.14530141  0.38752649  1
  O  O424  1  0.63738102  0.11254311  0.89355265  1
  O  O425  1  0.62990204  0.62513223  0.38761999  1
  O  O426  1  0.62922471  0.63387074  0.87836163  1
