# generated using pymatgen
data_V85Zn86O256
_symmetry_space_group_name_H-M   'P 1'
_cell_length_a   16.92456175
_cell_length_b   16.93035261
_cell_length_c   16.92572539
_cell_angle_alpha   90.02762876
_cell_angle_beta   90.04547633
_cell_angle_gamma   89.99305120
_symmetry_Int_Tables_number   1
_chemical_formula_structural   V85Zn86O256
_chemical_formula_sum   'V85 Zn86 O256'
_cell_volume   4849.87488221
_cell_formula_units_Z   1
loop_
 _symmetry_equiv_pos_site_id
 _symmetry_equiv_pos_as_xyz
  1  'x, y, z'
loop_
 _atom_site_type_symbol
 _atom_site_label
 _atom_site_symmetry_multiplicity
 _atom_site_fract_x
 _atom_site_fract_y
 _atom_site_fract_z
 _atom_site_occupancy
  V  V0  1  0.38890572  0.12845862  0.25121729  1
  V  V1  1  0.37385237  0.24972663  0.62411652  1
  V  V2  1  0.63675373  0.24635206  0.37991016  1
  V  V3  1  0.38702994  0.63310195  0.25089005  1
  V  V4  1  0.62533654  0.87076766  0.74692619  1
  V  V5  1  0.88051910  0.49333639  0.87234839  1
  V  V6  1  0.74411413  0.50491876  0.24903599  1
  V  V7  1  0.37108014  0.86940891  0.50039141  1
  V  V8  1  0.49822801  0.86781862  0.37339070  1
  V  V9  1  0.24828434  0.12571589  0.86454883  1
  V  V10  1  0.37843313  0.37987434  0.50166350  1
  V  V11  1  0.00425801  0.75193567  0.25303930  1
  V  V12  1  0.69448774  0.04594308  0.19245672  1
  V  V13  1  0.61691872  0.61904974  0.00905140  1
  V  V14  1  0.00228865  0.11786045  0.62468602  1
  V  V15  1  0.87488095  -0.00063473  0.87168521  1
  V  V16  1  0.12758557  0.11892962  0.50456780  1
  V  V17  1  0.00076767  0.25165889  0.25155389  1
  V  V18  1  0.74691448  0.87217233  0.12981937  1
  V  V19  1  0.36357228  0.74563163  0.62539337  1
  V  V20  1  0.49866464  0.24755630  0.75214962  1
  V  V21  1  0.00013840  0.00007057  0.49142478  1
  V  V22  1  0.00638729  0.50490133  0.49993526  1
  V  V23  1  0.74894073  0.36662739  0.62135610  1
  V  V24  1  0.12730688  0.38035849  0.24937150  1
  V  V25  1  0.62378683  0.37345202  0.75201342  1
  V  V26  1  0.38689087  0.75216395  0.13020552  1
  V  V27  1  0.13607789  0.61921762  0.00249788  1
  V  V28  1  0.86155997  -0.00329408  0.37435622  1
  V  V29  1  0.00016325  0.12472480  0.12568992  1
  V  V30  1  0.75593964  0.85876622  0.62006304  1
  V  V31  1  -0.00232074  0.25521063  0.75342394  1
  V  V32  1  0.62850705  -0.00327603  0.62002874  1
  V  V33  1  0.12495855  0.37942387  0.75796744  1
  V  V34  1  0.87348209  0.50190232  0.37511098  1
  V  V35  1  0.62155138  0.86647563  0.24720482  1
  V  V36  1  0.49407603  0.74192249  0.74787511  1
  V  V37  1  0.49411567  0.61830917  0.61979299  1
  V  V38  1  0.87861270  0.74786139  0.12509260  1
  V  V39  1  0.12507345  0.24357893  0.37551882  1
  V  V40  1  0.87159641  0.36948201  0.49871524  1
  V  V41  1  0.25107431  0.37104784  0.12652810  1
  V  V42  1  0.37324247  0.87542233  0.00147876  1
  V  V43  1  0.25585526  0.61959365  0.85746001  1
  V  V44  1  0.50038969  0.87536319  0.87301299  1
  V  V45  1  0.12874677  0.74862928  0.87583462  1
  V  V46  1  0.12653385  0.50822764  0.62551048  1
  V  V47  1  0.24600601  0.62817738  0.38622061  1
  V  V48  1  0.38915594  0.24553037  0.12537596  1
  V  V49  1  0.24778727  0.89137134  0.62693693  1
  V  V50  1  0.00185980  -0.00146413  0.00037294  1
  V  V51  1  0.50002368  0.36590769  0.37700666  1
  V  V52  1  0.87581161  0.87228406  0.00036710  1
  V  V53  1  0.00473982  0.49401392  -0.00310939  1
  V  V54  1  0.87544356  0.62739135  0.74223893  1
  V  V55  1  0.25030476  0.50621355  0.24575498  1
  V  V56  1  0.37794118  0.49873190  0.86556767  1
  V  V57  1  0.38326136  0.50354192  0.37835446  1
  V  V58  1  0.87826763  0.86316882  0.49789384  1
  V  V59  1  0.00216533  0.87317701  0.87418466  1
  V  V60  1  0.87514240  0.25338538  0.12284030  1
  V  V61  1  0.12507981  0.87511165  0.25719269  1
  V  V62  1  0.37076305  0.00049776  0.86771278  1
  V  V63  1  -0.00131804  0.75047427  0.74338985  1
  V  V64  1  0.61879943  0.37632486  0.24801649  1
  V  V65  1  0.12635023  -0.00136122  0.12755370  1
  V  V66  1  0.24978812  0.24722442  0.49498779  1
  V  V67  1  0.13051211  0.88742949  0.74979109  1
  V  V68  1  0.62910030  0.62046323  0.50192335  1
  V  V69  1  0.24618254  0.37897533  0.62841695  1
  V  V70  1  0.74771955  0.74634523  -0.00256411  1
  V  V71  1  0.24910590  0.00942924  0.25310570  1
  V  V72  1  0.74848679  0.50026399  0.74776725  1
  V  V73  1  0.50159469  0.12284056  0.62177622  1
  V  V74  1  0.74596344  0.38332561  0.12043112  1
  V  V75  1  0.12672830  0.74921147  0.38684776  1
  V  V76  1  0.75084393  -0.00333768  0.74866311  1
  V  V77  1  0.87442163  0.11910997  0.25543456  1
  V  V78  1  0.74349371  0.12447940  0.87562307  1
  V  V79  1  0.50486044  0.00577105  0.01066119  1
  V  V80  1  0.00279619  0.37622907  0.37542414  1
  V  V81  1  0.00809715  0.62019054  0.12291830  1
  V  V82  1  0.63207357  0.75082824  0.38190446  1
  V  V83  1  0.37137674  0.00338130  0.37715055  1
  V  V84  1  0.12898037  0.12700854  -0.00006819  1
  Zn  Zn85  1  0.25541836  0.74606290  0.00355768  1
  Zn  Zn86  1  0.74926126  0.62298026  0.87524824  1
  Zn  Zn87  1  0.25132619  0.87388364  0.12787495  1
  Zn  Zn88  1  0.62224139  0.74635949  0.87522615  1
  Zn  Zn89  1  0.25288293  0.24916430  0.00083608  1
  Zn  Zn90  1  0.87455355  0.62564842  0.24961074  1
  Zn  Zn91  1  0.12351330  0.25616955  0.87862844  1
  Zn  Zn92  1  0.36887892  0.11940782  0.74396020  1
  Zn  Zn93  1  0.50128944  -0.00075477  0.49946150  1
  Zn  Zn94  1  0.49897921  0.37529798  0.87707442  1
  Zn  Zn95  1  0.62428416  0.12227967  0.01421894  1
  Zn  Zn96  1  0.61624918  0.49554748  0.62128514  1
  Zn  Zn97  1  0.75317001  0.63054072  0.37934279  1
  Zn  Zn98  1  0.37770641  0.37590588  -0.00121811  1
  Zn  Zn99  1  0.00036852  0.63129652  0.61808221  1
  Zn  Zn100  1  0.50630351  0.49374290  0.01207415  1
  Zn  Zn101  1  0.62281281  0.24749068  0.88041383  1
  Zn  Zn102  1  0.87363441  0.24334314  0.61745672  1
  Zn  Zn103  1  0.74604781  0.25145149  -0.00178513  1
  Zn  Zn104  1  0.63975582  0.12835934  0.50087136  1
  Zn  Zn105  1  0.87534825  0.12705092  0.74858750  1
  Zn  Zn106  1  0.87716626  0.37446159  -0.00376027  1
  Zn  Zn107  1  0.19109165  0.18788210  0.18826084  1
  Zn  Zn108  1  0.18332147  0.19217228  0.68509088  1
  Zn  Zn109  1  0.19490585  0.68970112  0.18676891  1
  Zn  Zn110  1  0.18343778  0.69401997  0.68494035  1
  Zn  Zn111  1  0.68402335  0.20941976  0.18913633  1
  Zn  Zn112  1  0.68757040  0.18511772  0.68852177  1
  Zn  Zn113  1  0.68389575  0.68828540  0.18858924  1
  Zn  Zn114  1  0.68299201  0.68452316  0.68716951  1
  Zn  Zn115  1  0.31343094  0.31069099  0.31281468  1
  Zn  Zn116  1  0.31066965  0.31109113  0.81184792  1
  Zn  Zn117  1  0.30804811  0.81272638  0.31264853  1
  Zn  Zn118  1  0.31172309  0.81085066  0.81113541  1
  Zn  Zn119  1  0.81354424  0.32002201  0.30456050  1
  Zn  Zn120  1  0.81246310  0.31236423  0.81172179  1
  Zn  Zn121  1  0.81377510  0.81476430  0.31313880  1
  Zn  Zn122  1  0.81366886  0.81126001  0.81038523  1
  Zn  Zn123  1  0.19169085  0.43951292  0.43723659  1
  Zn  Zn124  1  0.19615052  0.44217095  0.93997278  1
  Zn  Zn125  1  0.18952029  0.93579654  0.43862869  1
  Zn  Zn126  1  0.19037479  0.94017169  0.93596150  1
  Zn  Zn127  1  0.68588376  0.44055528  0.43820626  1
  Zn  Zn128  1  0.68731141  0.43967735  0.93488469  1
  Zn  Zn129  1  0.69107079  0.93365897  0.43952258  1
  Zn  Zn130  1  0.68506653  0.93580730  0.93969398  1
  Zn  Zn131  1  0.31434214  0.06214366  0.06261409  1
  Zn  Zn132  1  0.31284554  0.06372449  0.55869832  1
  Zn  Zn133  1  0.35242027  0.54546729  0.07867910  1
  Zn  Zn134  1  0.31122584  0.56093226  0.56557690  1
  Zn  Zn135  1  0.81831751  0.06610575  0.05625559  1
  Zn  Zn136  1  0.81657755  0.05565070  0.56523340  1
  Zn  Zn137  1  0.81411388  0.56330860  0.06070762  1
  Zn  Zn138  1  0.81107308  0.55877040  0.56338867  1
  Zn  Zn139  1  0.43847870  0.43559478  0.19067404  1
  Zn  Zn140  1  0.43316881  0.43806126  0.69302307  1
  Zn  Zn141  1  0.43844797  0.93766810  0.18983065  1
  Zn  Zn142  1  0.43796822  0.93511268  0.68617325  1
  Zn  Zn143  1  0.93642942  0.44066178  0.18600544  1
  Zn  Zn144  1  0.93841916  0.43708518  0.68400026  1
  Zn  Zn145  1  0.93868607  0.93531754  0.19094172  1
  Zn  Zn146  1  0.93959413  0.93530636  0.68292478  1
  Zn  Zn147  1  0.05893480  0.06330684  0.31755850  1
  Zn  Zn148  1  0.06101193  0.06699459  0.81341054  1
  Zn  Zn149  1  0.06496578  0.56494898  0.31141561  1
  Zn  Zn150  1  0.06366294  0.56299768  0.81173052  1
  Zn  Zn151  1  0.55891996  0.06211088  0.32067032  1
  Zn  Zn152  1  0.55998295  0.05860920  0.80894891  1
  Zn  Zn153  1  0.56282583  0.56004481  0.31812473  1
  Zn  Zn154  1  0.56455071  0.56478175  0.81636233  1
  Zn  Zn155  1  0.43920002  0.18650696  0.43759002  1
  Zn  Zn156  1  0.43595143  0.18508434  0.93833185  1
  Zn  Zn157  1  0.44004305  0.68908421  0.44030726  1
  Zn  Zn158  1  0.43540765  0.68625629  0.93747979  1
  Zn  Zn159  1  0.81183484  0.18708980  0.43712120  1
  Zn  Zn160  1  0.93759699  0.18650614  0.93569903  1
  Zn  Zn161  1  0.94223005  0.68520994  0.43396319  1
  Zn  Zn162  1  0.93905548  0.68011839  0.93263999  1
  Zn  Zn163  1  0.06530130  0.31400797  0.06532843  1
  Zn  Zn164  1  0.05967472  0.31239413  0.56502794  1
  Zn  Zn165  1  0.06664036  0.81052471  0.06411019  1
  Zn  Zn166  1  0.06364464  0.82051680  0.56455557  1
  Zn  Zn167  1  0.56301464  0.31170692  0.05948228  1
  Zn  Zn168  1  0.56189410  0.31164553  0.56216165  1
  Zn  Zn169  1  0.56270049  0.81275977  0.06070009  1
  Zn  Zn170  1  0.55900198  0.80797183  0.56065998  1
  O  O171  1  0.12023130  0.11964908  0.11992739  1
  O  O172  1  0.11948372  0.12829729  0.61333205  1
  O  O173  1  0.11917974  0.63208339  0.11577800  1
  O  O174  1  0.12417612  0.61254088  0.62935020  1
  O  O175  1  0.63834357  0.11226203  0.13744719  1
  O  O176  1  0.61931511  0.11523766  0.62428920  1
  O  O177  1  0.62768141  0.63050494  0.10840666  1
  O  O178  1  0.61655791  0.62291293  0.61513328  1
  O  O179  1  0.38037629  0.38090001  0.38062959  1
  O  O180  1  0.37413655  0.38526246  0.87261861  1
  O  O181  1  0.37912641  0.87813279  0.38130040  1
  O  O182  1  0.37972936  0.88060234  0.88080891  1
  O  O183  1  0.87999563  0.38528843  0.37765580  1
  O  O184  1  0.87276802  0.38808866  0.87592277  1
  O  O185  1  0.87340021  0.88122066  0.38667024  1
  O  O186  1  0.87983073  0.88282006  0.88022589  1
  O  O187  1  0.26377121  -0.00493548  0.36904033  1
  O  O188  1  0.25989495  0.01020739  0.87828746  1
  O  O189  1  0.25738558  0.51014277  0.36835519  1
  O  O190  1  0.25413963  0.51410906  0.86999971  1
  O  O191  1  0.76122682  -0.00193309  0.37543891  1
  O  O192  1  0.75669748  0.00124820  0.87072464  1
  O  O193  1  0.75801651  0.50181277  0.36762200  1
  O  O194  1  0.75726997  0.49943796  0.86101526  1
  O  O195  1  0.26266966  0.48852644  0.13986047  1
  O  O196  1  0.24085120  0.48964141  0.62062585  1
  O  O197  1  0.24359868  0.99888930  0.13335787  1
  O  O198  1  0.25643100  0.99004692  0.62873902  1
  O  O199  1  0.75708828  0.49111107  0.13278008  1
  O  O200  1  0.74828623  0.48978839  0.63616277  1
  O  O201  1  0.75350350  0.99226566  0.12477470  1
  O  O202  1  0.74372011  0.98939334  0.63166890  1
  O  O203  1  0.00851013  0.37364275  0.25293416  1
  O  O204  1  0.00757453  0.36238688  0.74299463  1
  O  O205  1  0.01148309  0.86403070  0.24561770  1
  O  O206  1  0.00604304  0.86890997  0.75552508  1
  O  O207  1  0.51078471  0.38210580  0.26070834  1
  O  O208  1  0.50715886  0.36547939  0.74908710  1
  O  O209  1  0.51018237  0.88232721  0.26017220  1
  O  O210  1  0.50545902  0.86735818  0.75474419  1
  O  O211  1  0.48732540  0.11880904  0.24837849  1
  O  O212  1  0.49915526  0.13039491  0.73810048  1
  O  O213  1  0.48534862  0.62362044  0.26008071  1
  O  O214  1  0.50669755  0.63755557  0.74259194  1
  O  O215  1  0.99261121  0.13080222  0.24522638  1
  O  O216  1  1.00164859  0.13493763  0.74251129  1
  O  O217  1  1.00073738  0.63089250  0.23926983  1
  O  O218  1  0.99355998  0.63389741  0.74923238  1
  O  O219  1  0.37493452  0.24932413  0.01457648  1
  O  O220  1  0.36736642  0.25502899  0.50328569  1
  O  O221  1  0.37638687  0.75835168  0.00801788  1
  O  O222  1  0.37779418  0.76256193  0.50769851  1
  O  O223  1  0.87692359  0.25047681  0.01204331  1
  O  O224  1  0.87680773  0.26580663  0.49553702  1
  O  O225  1  0.87154715  0.75266425  0.00547162  1
  O  O226  1  0.88612434  0.76390330  0.49480016  1
  O  O227  1  0.13032896  0.24561572  0.49419731  1
  O  O228  1  0.12341856  0.23827622  0.99977637  1
  O  O229  1  0.11549243  0.75564332  0.48591546  1
  O  O230  1  0.12682695  0.74399769  0.98830718  1
  O  O231  1  0.62469742  0.25292295  0.48447433  1
  O  O232  1  0.62688655  0.23899709  0.99852900  1
  O  O233  1  0.62252971  0.73859468  0.49310778  1
  O  O234  1  0.63317779  0.74496794  0.99780697  1
  O  O235  1  0.48789484  0.25001032  0.12854286  1
  O  O236  1  0.49607175  0.24279918  0.63222120  1
  O  O237  1  0.48702578  0.75779372  0.12635601  1
  O  O238  1  0.48928237  0.74328251  0.63085573  1
  O  O239  1  0.99441601  0.24562475  0.13168619  1
  O  O240  1  0.99868043  0.23992365  0.63377543  1
  O  O241  1  0.99627488  0.74256536  0.13072355  1
  O  O242  1  1.00972173  0.74943205  0.63916616  1
  O  O243  1  0.01106992  0.26150727  0.36609192  1
  O  O244  1  0.00269270  0.24425766  0.85904233  1
  O  O245  1  0.01092174  0.74011470  0.35945306  1
  O  O246  1  0.00869407  0.75397841  0.86876406  1
  O  O247  1  0.50542224  0.26186308  0.37776849  1
  O  O248  1  0.49891068  0.24719149  0.86182138  1
  O  O249  1  0.50853846  0.76245596  0.37879908  1
  O  O250  1  0.49520444  0.76065622  0.86693218  1
  O  O251  1  0.24162131  0.13440090  0.50275626  1
  O  O252  1  0.24145585  0.12459220  0.99428491  1
  O  O253  1  0.25263257  0.62159164  0.48477210  1
  O  O254  1  0.23913924  0.62415506  0.99539316  1
  O  O255  1  0.75275093  0.12693069  0.50826924  1
  O  O256  1  0.74596052  0.12407859  0.99056419  1
  O  O257  1  0.73536470  0.62189178  0.50100029  1
  O  O258  1  0.74447057  0.63274540  0.99895535  1
  O  O259  1  0.25057879  0.37240140  0.01512224  1
  O  O260  1  0.25849186  0.36851461  0.50665116  1
  O  O261  1  0.26443086  0.87615684  -0.00061593  1
  O  O262  1  0.25626315  0.87871875  0.51498502  1
  O  O263  1  0.75244419  0.37520151  0.00711023  1
  O  O264  1  0.75758892  0.38420179  0.50976062  1
  O  O265  1  0.75391957  0.86860338  0.01065571  1
  O  O266  1  0.76589944  0.87514467  0.50731611  1
  O  O267  1  0.13601490  0.49172475  0.25548552  1
  O  O268  1  0.11608444  0.48978792  0.73950350  1
  O  O269  1  0.12948284  0.99561633  0.25088634  1
  O  O270  1  0.12066759  0.98622973  0.75852857  1
  O  O271  1  0.63607870  0.49395292  0.25754748  1
  O  O272  1  0.63150970  0.49254820  0.74798181  1
  O  O273  1  0.63117482  0.99352513  0.25550362  1
  O  O274  1  0.62843196  0.99117879  0.73807011  1
  O  O275  1  0.36899962  0.00964465  0.25457637  1
  O  O276  1  0.38142057  0.00035612  0.76321486  1
  O  O277  1  0.36827188  0.51140704  0.26222565  1
  O  O278  1  0.36908641  0.49989674  0.76422059  1
  O  O279  1  0.88034874  0.00628948  0.25889393  1
  O  O280  1  0.87234098  -0.00232969  0.75905172  1
  O  O281  1  0.86572295  0.50073321  0.25817025  1
  O  O282  1  0.87060309  0.50381014  0.75372370  1
  O  O283  1  0.12450730  0.36853303  0.36636700  1
  O  O284  1  0.13477074  0.37682846  0.86179589  1
  O  O285  1  0.13153114  0.86630235  0.36474165  1
  O  O286  1  0.12390497  0.86721401  0.87145661  1
  O  O287  1  0.61810019  0.37025606  0.37276950  1
  O  O288  1  0.62409289  0.37156786  0.86234507  1
  O  O289  1  0.61905306  0.86892870  0.37228241  1
  O  O290  1  0.61593034  0.87192588  0.86846487  1
  O  O291  1  0.37000941  0.13591344  0.13679521  1
  O  O292  1  0.38271333  0.13014833  0.62442751  1
  O  O293  1  0.36769034  0.63856752  0.14476664  1
  O  O294  1  0.37996110  0.63452524  0.61793537  1
  O  O295  1  0.87977374  0.13103711  0.13349419  1
  O  O296  1  0.88684796  0.12573787  0.62867770  1
  O  O297  1  0.88302266  0.63671463  0.12422641  1
  O  O298  1  0.87844109  0.61822552  0.63771632  1
  O  O299  1  0.25706014  0.25745961  0.12527146  1
  O  O300  1  0.25290071  0.25726665  0.61351186  1
  O  O301  1  0.26181134  0.75655193  0.12219195  1
  O  O302  1  0.26036086  0.75750997  0.62769038  1
  O  O303  1  0.75928717  0.26343031  0.12309000  1
  O  O304  1  0.75363835  0.26259116  0.63280965  1
  O  O305  1  0.75880772  0.75460549  0.11734111  1
  O  O306  1  0.74809833  0.76017267  0.62989809  1
  O  O307  1  0.24183406  0.25652861  0.38717918  1
  O  O308  1  0.24716517  0.24092728  0.88066458  1
  O  O309  1  0.24290922  0.73703960  0.37237715  1
  O  O310  1  0.24574431  0.73972333  0.87832001  1
  O  O311  1  0.74131045  0.25631238  0.37123538  1
  O  O312  1  0.75053777  0.23821022  0.87548519  1
  O  O313  1  0.73714929  0.74957438  0.37126198  1
  O  O314  1  0.75233822  0.75252611  0.88919808  1
  O  O315  1  0.00687028  0.11851073  0.00493740  1
  O  O316  1  0.01091784  0.11544443  0.50989016  1
  O  O317  1  0.01123383  0.61924452  0.00452199  1
  O  O318  1  -0.00318533  0.61002424  0.50083641  1
  O  O319  1  0.50213105  0.10965174  -0.00377842  1
  O  O320  1  0.50448003  0.12365193  0.51184746  1
  O  O321  1  0.51443957  0.62680920  -0.00465853  1
  O  O322  1  0.50983887  0.62885693  0.50964216  1
  O  O323  1  0.48597092  0.37150177  0.49620503  1
  O  O324  1  0.49742528  0.37745222  0.99442661  1
  O  O325  1  0.49001338  0.87770563  0.49422595  1
  O  O326  1  0.49210573  0.88133411  0.99134217  1
  O  O327  1  0.99307091  0.38316216  0.49424764  1
  O  O328  1  1.00028859  0.39010453  1.00841629  1
  O  O329  1  0.98870606  0.88730498  0.50873302  1
  O  O330  1  0.99728724  0.87819513  0.99439980  1
  O  O331  1  0.48785687  0.49036028  0.37580330  1
  O  O332  1  0.48651047  0.50102734  0.87352846  1
  O  O333  1  0.48882789  0.98993953  0.37824185  1
  O  O334  1  0.49442170  0.98866327  0.87833077  1
  O  O335  1  0.99534907  0.49620677  0.37906062  1
  O  O336  1  0.99310363  0.50582658  0.88410532  1
  O  O337  1  0.98856583  1.00508185  0.38653161  1
  O  O338  1  0.99260365  0.99543589  0.88007724  1
  O  O339  1  0.00548624  0.00444137  0.12045834  1
  O  O340  1  -0.00239095  0.01129981  0.61754332  1
  O  O341  1  -0.00595419  0.51452873  0.11730793  1
  O  O342  1  0.00833288  0.50012743  0.61540741  1
  O  O343  1  0.49534200  -0.00337607  0.10892120  1
  O  O344  1  0.50821842  0.00567066  0.62406402  1
  O  O345  1  0.45970096  0.51022608  0.11372710  1
  O  O346  1  0.49607827  0.51444093  0.63276921  1
  O  O347  1  0.24538339  0.38162684  0.24782439  1
  O  O348  1  0.24007093  0.36564956  0.73561210  1
  O  O349  1  0.24306416  0.88776161  0.24974087  1
  O  O350  1  0.24407644  0.87281907  0.73872267  1
  O  O351  1  0.74125367  0.38502502  0.24233624  1
  O  O352  1  0.74275619  0.38023868  0.74384979  1
  O  O353  1  0.74436037  0.87210585  0.23713643  1
  O  O354  1  0.74554029  0.87803899  0.74355549  1
  O  O355  1  0.25445534  0.11323233  0.25100457  1
  O  O356  1  0.24742456  0.13009679  0.76011016  1
  O  O357  1  0.25677135  0.61873541  0.25916106  1
  O  O358  1  0.24706123  0.63092797  0.75995398  1
  O  O359  1  0.75332739  0.11589809  0.24065429  1
  O  O360  1  0.75413859  0.11533278  0.75600758  1
  O  O361  1  0.75171949  0.61824828  0.25191960  1
  O  O362  1  0.75565966  0.61720419  0.74891942  1
  O  O363  1  0.37980604  0.11744771  0.36399602  1
  O  O364  1  0.36602048  0.11755002  0.87213049  1
  O  O365  1  0.36811181  0.62301604  0.37087019  1
  O  O366  1  0.36239658  0.61893619  0.87579996  1
  O  O367  1  0.87075468  0.12159264  0.35993807  1
  O  O368  1  0.86693148  0.11282814  0.87493973  1
  O  O369  1  0.87375127  0.61394513  0.37292993  1
  O  O370  1  0.87133038  0.61385860  0.86311520  1
  O  O371  1  0.13473359  0.36884615  0.14101511  1
  O  O372  1  0.13107046  0.38136939  0.63056731  1
  O  O373  1  0.12698185  0.88138725  0.13536693  1
  O  O374  1  0.14009338  0.87414454  0.63319694  1
  O  O375  1  0.63344616  0.36882763  0.13593050  1
  O  O376  1  0.62975730  0.37596142  0.63295018  1
  O  O377  1  0.63323606  0.87028584  0.13345403  1
  O  O378  1  0.63118706  0.87872836  0.62569118  1
  O  O379  1  0.12303646  0.25447618  0.25845106  1
  O  O380  1  0.11417827  0.25931090  0.75099861  1
  O  O381  1  0.12216455  0.75804889  0.25414269  1
  O  O382  1  0.11964521  0.75782064  0.76178311  1
  O  O383  1  0.62474096  0.26409573  0.26665491  1
  O  O384  1  0.61629947  0.25597583  0.75095307  1
  O  O385  1  0.62526737  0.76064039  0.25881439  1
  O  O386  1  0.61576071  0.75568838  0.75166763  1
  O  O387  1  0.37102517  0.23507994  0.24581103  1
  O  O388  1  0.38189112  0.24711721  0.74105341  1
  O  O389  1  0.37350041  0.74115350  0.24878646  1
  O  O390  1  0.38357592  0.75622599  0.73916430  1
  O  O391  1  0.87861189  0.24424260  0.24037814  1
  O  O392  1  0.88762437  0.25027588  0.74729606  1
  O  O393  1  0.88500194  0.75011374  0.24291166  1
  O  O394  1  0.88616671  0.74105507  0.75638149  1
  O  O395  1  0.36784736  0.49031764  0.49138228  1
  O  O396  1  0.36616807  0.49455981  0.97802658  1
  O  O397  1  0.37570687  0.99163802  0.49202210  1
  O  O398  1  0.38402237  0.99484509  0.99123336  1
  O  O399  1  0.88072485  0.49234278  0.49179863  1
  O  O400  1  0.88461802  0.50227141  0.98994955  1
  O  O401  1  0.88245464  0.99347513  0.49084848  1
  O  O402  1  0.88162691  0.99179744  0.99291661  1
  O  O403  1  0.12086626  0.00816992  0.00462311  1
  O  O404  1  0.11805579  0.00916167  0.49053570  1
  O  O405  1  0.11844913  0.50820977  -0.00441459  1
  O  O406  1  0.11662781  0.49137321  0.50839340  1
  O  O407  1  0.61001095  0.00002553  -0.00152787  1
  O  O408  1  0.62473621  -0.00082201  0.51057549  1
  O  O409  1  0.62432417  0.51342679  -0.00241892  1
  O  O410  1  0.62146734  0.51430975  0.50134931  1
  O  O411  1  0.36784253  0.35693226  0.13355292  1
  O  O412  1  0.36780232  0.37141931  0.61908680  1
  O  O413  1  0.37427082  0.87194005  0.11833345  1
  O  O414  1  0.36601152  0.87117358  0.61932575  1
  O  O415  1  0.86848389  0.36811658  0.12415150  1
  O  O416  1  0.86757282  0.37389624  0.61488558  1
  O  O417  1  0.87137071  0.86447963  0.12139751  1
  O  O418  1  0.86807220  0.87747065  0.61160333  1
  O  O419  1  0.11981850  0.13819280  0.38386314  1
  O  O420  1  0.13167093  0.12531728  0.88408990  1
  O  O421  1  0.13843544  0.63166242  0.37209079  1
  O  O422  1  0.13536267  0.63089403  0.87826488  1
  O  O423  1  0.62123539  0.14229234  0.37627246  1
  O  O424  1  0.63711436  0.12055149  0.86959615  1
  O  O425  1  0.62406062  0.63202591  0.38644696  1
  O  O426  1  0.63132681  0.62942548  0.88459381  1
