# generated using pymatgen
data_V85Zn86O256
_symmetry_space_group_name_H-M   'P 1'
_cell_length_a   16.91994327
_cell_length_b   16.91816588
_cell_length_c   16.91547249
_cell_angle_alpha   89.95664933
_cell_angle_beta   89.95646122
_cell_angle_gamma   89.93997444
_symmetry_Int_Tables_number   1
_chemical_formula_structural   V85Zn86O256
_chemical_formula_sum   'V85 Zn86 O256'
_cell_volume   4842.12310502
_cell_formula_units_Z   1
loop_
 _symmetry_equiv_pos_site_id
 _symmetry_equiv_pos_as_xyz
  1  'x, y, z'
loop_
 _atom_site_type_symbol
 _atom_site_label
 _atom_site_symmetry_multiplicity
 _atom_site_fract_x
 _atom_site_fract_y
 _atom_site_fract_z
 _atom_site_occupancy
  V  V0  1  0.75266995  0.87352782  0.62283392  1
  V  V1  1  0.24803649  0.87717314  0.13871131  1
  V  V2  1  0.23828576  0.87851441  0.62470567  1
  V  V3  1  0.75642424  0.25409634  -0.00295740  1
  V  V4  1  0.74723039  0.62236944  0.38311220  1
  V  V5  1  0.62338305  0.12833931  -0.00109881  1
  V  V6  1  0.75080066  0.00085956  0.75016292  1
  V  V7  1  0.00339458  0.48984545  0.00539483  1
  V  V8  1  0.13385581  0.11707881  0.49858938  1
  V  V9  1  0.61977224  0.37477457  0.24179841  1
  V  V10  1  0.11500889  0.62369768  0.50698939  1
  V  V11  1  0.24450432  0.12748231  0.87378963  1
  V  V12  1  0.62510829  0.74583839  0.37890644  1
  V  V13  1  0.75235562  0.74848287  0.00037336  1
  V  V14  1  0.37740618  0.37872805  0.50188735  1
  V  V15  1  0.62359189  0.87416609  0.25200673  1
  V  V16  1  0.24704524  0.74658498  0.49694822  1
  V  V17  1  0.62683920  0.61790991  0.00948143  1
  V  V18  1  0.37135666  0.61703102  0.25153610  1
  V  V19  1  0.24190321  0.75470332  -0.00076148  1
  V  V20  1  0.36636017  0.73729720  0.63399381  1
  V  V21  1  0.12880123  0.37145108  0.76237974  1
  V  V22  1  0.50029092  0.24593463  0.74099512  1
  V  V23  1  0.88275245  0.62274306  0.74726635  1
  V  V24  1  -0.00508111  0.49456212  0.50814774  1
  V  V25  1  0.24258856  0.00072086  0.74670245  1
  V  V26  1  0.37004375  0.37388553  0.00205972  1
  V  V27  1  0.01099620  0.37263809  0.37439117  1
  V  V28  1  0.51223794  0.51274514  0.51451533  1
  V  V29  1  0.49744377  0.12901175  0.14005307  1
  V  V30  1  0.12212471  0.87388452  0.76672699  1
  V  V31  1  0.74287038  0.49996649  0.24526511  1
  V  V32  1  0.00197305  -0.00665693  0.00113610  1
  V  V33  1  0.00509889  0.74981852  0.76815797  1
  V  V34  1  0.74835648  0.50120373  0.74589920  1
  V  V35  1  0.62304722  0.87589972  0.75125471  1
  V  V36  1  0.37750748  0.12171190  0.74414801  1
  V  V37  1  0.87703941  0.12493028  0.74780650  1
  V  V38  1  0.37525797  0.50895721  0.87443716  1
  V  V39  1  0.37691140  0.75169489  0.12738409  1
  V  V40  1  0.75208341  0.00183809  0.25147977  1
  V  V41  1  0.75360313  0.87604122  0.12251074  1
  V  V42  1  0.62181578  0.12874644  0.50589751  1
  V  V43  1  0.62540322  0.25095753  0.87273327  1
  V  V44  1  0.49643599  0.00332447  -0.00106576  1
  V  V45  1  0.87725486  0.49067719  0.87825344  1
  V  V46  1  0.49914091  0.37612993  0.87278631  1
  V  V47  1  0.61935355  0.74800611  0.88244069  1
  V  V48  1  0.24249816  0.63107898  0.87373349  1
  V  V49  1  -0.00000058  0.87865744  0.37091766  1
  V  V50  1  0.00801404  0.24721942  0.24567490  1
  V  V51  1  0.24768181  0.25201388  -0.00324740  1
  V  V52  1  0.37256692  0.01360538  0.37392597  1
  V  V53  1  0.75251562  0.12658525  0.37605697  1
  V  V54  1  0.00249204  0.75323104  0.24854231  1
  V  V55  1  0.00692797  0.24878134  0.75478057  1
  V  V56  1  0.62210501  0.00127819  0.62492380  1
  V  V57  1  0.25134973  0.02011169  0.25430531  1
  V  V58  1  0.12287307  0.75195502  0.37276723  1
  V  V59  1  0.25349342  0.50661120  0.74830070  1
  V  V60  1  0.00840563  0.62049276  0.12569749  1
  V  V61  1  0.49773522  0.00179418  0.50636146  1
  V  V62  1  0.49684315  0.87173592  0.87410487  1
  V  V63  1  0.11660979  0.12963828  0.00124102  1
  V  V64  1  0.52470939  0.72700462  0.71424654  1
  V  V65  1  0.12112225  0.00328799  0.13135718  1
  V  V66  1  0.62328285  0.38049026  0.74218123  1
  V  V67  1  0.50273070  0.49779148  0.00900362  1
  V  V68  1  0.18889900  0.44408611  0.18862179  1
  V  V69  1  0.75405983  0.37814391  0.11986127  1
  V  V70  1  0.87421330  0.48711892  0.37691299  1
  V  V71  1  0.62244546  0.25069021  0.36892505  1
  V  V72  1  0.87555304  0.62173111  0.24933116  1
  V  V73  1  0.88677987  0.74785906  0.62348082  1
  V  V74  1  0.25025111  0.24894230  0.49308947  1
  V  V75  1  0.88080972  -0.00711951  0.87408917  1
  V  V76  1  0.50021032  0.37674210  0.37331262  1
  V  V77  1  0.24756707  0.37367698  0.62570543  1
  V  V78  1  0.75248859  0.37767604  0.61664008  1
  V  V79  1  0.37493146  0.24845921  0.13519743  1
  V  V80  1  0.87812552  0.25302818  0.61786085  1
  V  V81  1  0.00169844  -0.00082286  0.50943890  1
  V  V82  1  0.62390702  0.00276252  0.12455340  1
  V  V83  1  0.37459039  0.87380087  0.50049818  1
  V  V84  1  0.87744950  0.24499483  0.12438919  1
  Zn  Zn85  1  0.23895840  0.61365878  0.36497001  1
  Zn  Zn86  1  0.37341937  -0.00048011  0.87336585  1
  Zn  Zn87  1  0.87855737  0.74943169  0.12287875  1
  Zn  Zn88  1  0.87737665  0.00095166  0.37663843  1
  Zn  Zn89  1  0.75050033  0.12466382  0.87475335  1
  Zn  Zn90  1  0.75519566  0.25533556  0.49636136  1
  Zn  Zn91  1  0.37315914  0.87690151  0.00232797  1
  Zn  Zn92  1  0.75092184  0.62288586  0.87559148  1
  Zn  Zn93  1  0.12336615  0.62550417  -0.00061558  1
  Zn  Zn94  1  0.11953888  0.50256998  0.62917131  1
  Zn  Zn95  1  0.50052171  0.74722656  0.25109514  1
  Zn  Zn96  1  0.49858957  0.87439204  0.37639166  1
  Zn  Zn97  1  0.00072360  0.36694352  0.88176530  1
  Zn  Zn98  1  0.13299967  0.24732095  0.36900816  1
  Zn  Zn99  1  0.87635045  0.87427290  0.49862894  1
  Zn  Zn100  1  0.37360115  0.50009569  0.37500497  1
  Zn  Zn101  1  0.88139549  0.86925365  -0.00659301  1
  Zn  Zn102  1  0.50311587  0.62311581  0.12914027  1
  Zn  Zn103  1  0.75188462  0.74532518  0.50246491  1
  Zn  Zn104  1  0.88078756  0.12285446  0.24654415  1
  Zn  Zn105  1  0.37762948  0.24654971  0.62280238  1
  Zn  Zn106  1  0.00711976  0.12241326  0.62579342  1
  Zn  Zn107  1  0.18904529  0.19218260  0.18015375  1
  Zn  Zn108  1  0.18704274  0.18769811  0.68063790  1
  Zn  Zn109  1  0.18797699  0.68641541  0.18703534  1
  Zn  Zn110  1  0.18287309  0.68721177  0.68850672  1
  Zn  Zn111  1  0.68775231  0.18944151  0.18644087  1
  Zn  Zn112  1  0.69033976  0.18971021  0.68503587  1
  Zn  Zn113  1  0.68870438  0.68850354  0.18939918  1
  Zn  Zn114  1  0.69556724  0.68929469  0.68887014  1
  Zn  Zn115  1  0.31079423  0.31959843  0.31210519  1
  Zn  Zn116  1  0.31442912  0.31234929  0.81452535  1
  Zn  Zn117  1  0.31347135  0.81237261  0.31425657  1
  Zn  Zn118  1  0.31311889  0.81157196  0.81074920  1
  Zn  Zn119  1  0.81297073  0.31080589  0.30720300  1
  Zn  Zn120  1  0.81315288  0.31228255  0.80696202  1
  Zn  Zn121  1  0.81515805  0.81070796  0.31259810  1
  Zn  Zn122  1  0.81268790  0.81029153  0.81154866  1
  Zn  Zn123  1  0.18664645  0.43887871  0.43590546  1
  Zn  Zn124  1  0.18800323  0.44121888  0.94252354  1
  Zn  Zn125  1  0.18609104  0.93653994  0.43099677  1
  Zn  Zn126  1  0.18986547  0.94074273  0.94102867  1
  Zn  Zn127  1  0.68317209  0.44061078  0.43599615  1
  Zn  Zn128  1  0.68829081  0.43677391  0.93336199  1
  Zn  Zn129  1  0.68720332  0.93713155  0.43860260  1
  Zn  Zn130  1  0.68767964  0.93869457  0.93723334  1
  Zn  Zn131  1  0.31180761  0.06666134  0.06436857  1
  Zn  Zn132  1  0.31050372  0.06155613  0.56505374  1
  Zn  Zn133  1  0.31139615  0.56595228  0.06323313  1
  Zn  Zn134  1  0.30836832  0.55966518  0.55371316  1
  Zn  Zn135  1  0.81359583  0.06473468  0.05911050  1
  Zn  Zn136  1  0.81431278  0.06265399  0.56156627  1
  Zn  Zn137  1  0.81785264  0.56062600  0.06308832  1
  Zn  Zn138  1  0.81677189  0.56100730  0.56424374  1
  Zn  Zn139  1  0.43159376  0.43307384  0.18699324  1
  Zn  Zn140  1  0.43522996  0.44163524  0.68512502  1
  Zn  Zn141  1  0.43481984  0.94052719  0.18936301  1
  Zn  Zn142  1  0.43358841  0.92976073  0.68625184  1
  Zn  Zn143  1  0.93827086  0.43089677  0.18786678  1
  Zn  Zn144  1  0.93772695  0.43217730  0.69108796  1
  Zn  Zn145  1  0.93867977  0.93860186  0.18563658  1
  Zn  Zn146  1  0.94135471  0.93231024  0.69002521  1
  Zn  Zn147  1  0.06632940  0.06644927  0.31574943  1
  Zn  Zn148  1  0.06339877  0.06129268  0.81484611  1
  Zn  Zn149  1  0.06226579  0.56018778  0.31544125  1
  Zn  Zn150  1  0.06362682  0.56021619  0.81470358  1
  Zn  Zn151  1  0.56301724  0.05941505  0.31955451  1
  Zn  Zn152  1  0.56158675  0.06353139  0.81289498  1
  Zn  Zn153  1  0.55841513  0.56083396  0.31475073  1
  Zn  Zn154  1  0.56430000  0.56291392  0.81647800  1
  Zn  Zn155  1  0.44070632  0.19200287  0.43842384  1
  Zn  Zn156  1  0.43465452  0.18754489  0.93269167  1
  Zn  Zn157  1  0.43776232  0.68817750  0.43669488  1
  Zn  Zn158  1  0.43418847  0.68602850  0.94360985  1
  Zn  Zn159  1  0.94279556  0.18504988  0.43541544  1
  Zn  Zn160  1  0.93597220  0.18349068  0.93515286  1
  Zn  Zn161  1  0.93562446  0.68368763  0.43615489  1
  Zn  Zn162  1  0.93490140  0.67831274  0.93815208  1
  Zn  Zn163  1  0.06840600  0.31566547  0.06926007  1
  Zn  Zn164  1  0.06473423  0.31204361  0.56210123  1
  Zn  Zn165  1  0.06597502  0.81638172  0.06701818  1
  Zn  Zn166  1  0.06127289  0.81432538  0.56362936  1
  Zn  Zn167  1  0.56079810  0.31141499  0.06271330  1
  Zn  Zn168  1  0.56454628  0.31581797  0.56000629  1
  Zn  Zn169  1  0.56150160  0.81463105  0.06362697  1
  Zn  Zn170  1  0.56507024  0.80246809  0.56263278  1
  O  O171  1  0.13285238  0.11342112  0.11383737  1
  O  O172  1  0.12299139  0.12773776  0.60641163  1
  O  O173  1  0.11142096  0.62716619  0.12460842  1
  O  O174  1  0.12541557  0.62349431  0.61178620  1
  O  O175  1  0.61804053  0.12241079  0.11854132  1
  O  O176  1  0.63099207  0.11817490  0.61511424  1
  O  O177  1  0.62430105  0.62881897  0.11371201  1
  O  O178  1  0.59608809  0.69868478  0.63748127  1
  O  O179  1  0.38486972  0.37488997  0.38324869  1
  O  O180  1  0.37955932  0.38393192  0.88373045  1
  O  O181  1  0.37277530  0.88150751  0.38864804  1
  O  O182  1  0.38716612  0.87546328  0.87594626  1
  O  O183  1  0.87662256  0.38400827  0.37232467  1
  O  O184  1  0.87864604  0.38696890  0.86566608  1
  O  O185  1  0.88644648  0.87607905  0.37668483  1
  O  O186  1  0.86962720  0.88836188  0.87464993  1
  O  O187  1  0.25523529  -0.00169676  0.36145244  1
  O  O188  1  0.25284642  0.00713012  0.86537536  1
  O  O189  1  0.26156615  0.50687706  0.39316413  1
  O  O190  1  0.25638358  0.50798732  0.86993730  1
  O  O191  1  0.75003676  0.00693506  0.36751623  1
  O  O192  1  0.75574534  0.00213246  0.86754892  1
  O  O193  1  0.75578284  0.50355095  0.36714216  1
  O  O194  1  0.75819296  0.49928669  0.86367229  1
  O  O195  1  0.24788486  0.49556172  0.12196358  1
  O  O196  1  0.24922266  0.49346805  0.63272480  1
  O  O197  1  0.24855642  0.99739695  0.13743646  1
  O  O198  1  0.25024672  0.99268882  0.63699021  1
  O  O199  1  0.75539007  0.49140220  0.13259510  1
  O  O200  1  0.75666041  0.49382233  0.63724329  1
  O  O201  1  0.74463911  0.99532990  0.12958013  1
  O  O202  1  0.74600375  0.99287330  0.63105662  1
  O  O203  1  -0.00691643  0.36037912  0.26061447  1
  O  O204  1  0.01218933  0.36724822  0.75241963  1
  O  O205  1  -0.00439715  0.86517919  0.25637701  1
  O  O206  1  0.00772108  0.86141172  0.75190447  1
  O  O207  1  0.50928726  0.38225636  0.25762032  1
  O  O208  1  0.50594439  0.37096840  0.75297012  1
  O  O209  1  0.51443072  0.87883754  0.25012611  1
  O  O210  1  0.50668924  0.86132090  0.75468964  1
  O  O211  1  0.50652475  0.11875395  0.23901533  1
  O  O212  1  0.49040615  0.13356663  0.75584664  1
  O  O213  1  0.48975640  0.62662598  0.24690148  1
  O  O214  1  0.50179154  0.63974605  0.75756992  1
  O  O215  1  0.99705094  0.14132532  0.25739362  1
  O  O216  1  0.99585435  0.12967621  0.74679516  1
  O  O217  1  0.99232725  0.62767306  0.24590271  1
  O  O218  1  0.99575352  0.63587951  0.75421886  1
  O  O219  1  0.36932394  0.25779437  0.00010842  1
  O  O220  1  0.37194538  0.26053972  0.50322524  1
  O  O221  1  0.36595326  0.75076454  0.01428622  1
  O  O222  1  0.36356513  0.75607782  0.50279727  1
  O  O223  1  0.86373775  0.24527515  0.00324032  1
  O  O224  1  0.87562857  0.24097298  0.51403994  1
  O  O225  1  0.86634643  0.74985032  0.00091661  1
  O  O226  1  0.87427114  0.75013485  0.50890782  1
  O  O227  1  0.13469886  0.24246919  0.49795545  1
  O  O228  1  0.13386675  0.24223785  1.00821435  1
  O  O229  1  0.12682079  0.74459399  0.49479820  1
  O  O230  1  0.13807280  0.74981838  1.00556335  1
  O  O231  1  0.62804405  0.24354295  0.49098547  1
  O  O232  1  0.63298765  0.24811544  0.99285241  1
  O  O233  1  0.63337484  0.75654331  0.48260334  1
  O  O234  1  0.63191578  0.74503331  0.99701951  1
  O  O235  1  0.48798245  0.24092758  0.11967870  1
  O  O236  1  0.50058009  0.25439628  0.63739240  1
  O  O237  1  0.49104205  0.75018276  0.12701025  1
  O  O238  1  0.47044176  0.76571219  0.62111730  1
  O  O239  1  0.99257599  0.25585798  0.13668030  1
  O  O240  1  0.99359712  0.25055473  0.63503751  1
  O  O241  1  0.99912833  0.74375323  0.13219470  1
  O  O242  1  0.98958146  0.75435841  0.63416552  1
  O  O243  1  -0.00040131  0.25751655  0.36538137  1
  O  O244  1  -0.00661096  0.25002266  0.86024528  1
  O  O245  1  0.00333753  0.75552180  0.36859164  1
  O  O246  1  -0.00468810  0.74887244  0.86683645  1
  O  O247  1  0.51020454  0.26356384  0.37951956  1
  O  O248  1  0.50515085  0.25686025  0.86545361  1
  O  O249  1  0.50902000  0.75472192  0.37230772  1
  O  O250  1  0.50770555  0.75747497  0.88718725  1
  O  O251  1  0.24238332  0.13131065  0.50330950  1
  O  O252  1  0.24355812  0.12977123  0.99127704  1
  O  O253  1  0.24029032  0.63811288  0.49880432  1
  O  O254  1  0.24742597  0.63460763  0.99345428  1
  O  O255  1  0.74004675  0.12439971  0.49182362  1
  O  O256  1  0.74118916  0.13413193  0.99759689  1
  O  O257  1  0.75404054  0.62241674  0.48679287  1
  O  O258  1  0.74528965  0.63075273  1.00002701  1
  O  O259  1  0.25949522  0.36675997  -0.00665644  1
  O  O260  1  0.25635500  0.36946891  0.50829881  1
  O  O261  1  0.25366225  0.87135700  0.00962423  1
  O  O262  1  0.24969658  0.86668496  0.50531231  1
  O  O263  1  0.74368106  0.36741272  0.00797048  1
  O  O264  1  0.74470538  0.37729314  0.51282003  1
  O  O265  1  0.75048317  0.86810547  0.00725723  1
  O  O266  1  0.75302525  0.87602048  0.51272032  1
  O  O267  1  0.13748610  0.50887399  0.25106101  1
  O  O268  1  0.13496119  0.49189223  0.74908378  1
  O  O269  1  0.13838381  1.00800209  0.24467053  1
  O  O270  1  0.13191417  0.99044884  0.75315113  1
  O  O271  1  0.63570673  0.49180356  0.25403550  1
  O  O272  1  0.63423306  0.49265874  0.75544423  1
  O  O273  1  0.63493893  0.99425799  0.24686677  1
  O  O274  1  0.62831565  0.99522775  0.74486558  1
  O  O275  1  0.36261046  -0.00185482  0.25937345  1
  O  O276  1  0.36803464  0.00487599  0.75063833  1
  O  O277  1  0.37815651  0.51354155  0.24989482  1
  O  O278  1  0.36289338  0.49382373  0.76010311  1
  O  O279  1  0.86334133  0.00241362  0.25017012  1
  O  O280  1  0.87374850  0.00535673  0.75436596  1
  O  O281  1  0.86674424  0.50384848  0.25603502  1
  O  O282  1  0.87203741  0.50657610  0.75451147  1
  O  O283  1  0.11444419  0.37043668  0.37653728  1
  O  O284  1  0.12632005  0.37669658  0.86525567  1
  O  O285  1  0.11359341  0.86158506  0.37792494  1
  O  O286  1  0.13268822  0.87446207  0.86600112  1
  O  O287  1  0.62146266  0.36869720  0.36570621  1
  O  O288  1  0.62078595  0.36937078  0.86257501  1
  O  O289  1  0.62702609  0.86937174  0.36584933  1
  O  O290  1  0.61457630  0.87019850  0.87395578  1
  O  O291  1  0.38405844  0.13819232  0.12079230  1
  O  O292  1  0.37015979  0.12727202  0.63932495  1
  O  O293  1  0.37736454  0.63329946  0.13422109  1
  O  O294  1  0.36453732  0.63906380  0.62032751  1
  O  O295  1  0.86872416  0.13957661  0.12615544  1
  O  O296  1  0.87779897  0.12937992  0.63552336  1
  O  O297  1  0.88216628  0.62622652  0.13677076  1
  O  O298  1  0.87189814  0.63253297  0.63867504  1
  O  O299  1  0.26558936  0.24333476  0.11033458  1
  O  O300  1  0.25373262  0.25811794  0.61506104  1
  O  O301  1  0.25418697  0.75962585  0.12115514  1
  O  O302  1  0.25327400  0.75648739  0.61938347  1
  O  O303  1  0.75496580  0.25660674  0.11645800  1
  O  O304  1  0.75899861  0.25920054  0.62257383  1
  O  O305  1  0.75087083  0.75757101  0.11583558  1
  O  O306  1  0.76409424  0.75821129  0.62530476  1
  O  O307  1  0.25229398  0.25617210  0.38854847  1
  O  O308  1  0.25382522  0.24207183  0.88617526  1
  O  O309  1  0.23937367  0.75055255  0.38167528  1
  O  O310  1  0.26041180  0.74239823  0.88553005  1
  O  O311  1  0.74435828  0.24406318  0.37678490  1
  O  O312  1  0.74589069  0.25100408  0.88055801  1
  O  O313  1  0.74678643  0.73899998  0.37373196  1
  O  O314  1  0.74212986  0.75099652  0.88676974  1
  O  O315  1  0.01230252  0.11876912  -0.00505903  1
  O  O316  1  0.00918969  0.11516220  0.50146589  1
  O  O317  1  0.00049851  0.61667387  0.00963150  1
  O  O318  1  0.00502079  0.61199232  0.49395748  1
  O  O319  1  0.50491247  0.11880129  0.00117940  1
  O  O320  1  0.51212289  0.11795959  0.49748374  1
  O  O321  1  0.50792077  0.61523238  0.00266121  1
  O  O322  1  0.49481095  0.61097838  0.49762521  1
  O  O323  1  0.49394511  0.38022879  0.49521651  1
  O  O324  1  0.49594252  0.38029553  0.99203527  1
  O  O325  1  0.48980948  0.88107176  0.50100841  1
  O  O326  1  0.49888502  0.88561140  0.99367530  1
  O  O327  1  1.00195624  0.38156217  0.48981413  1
  O  O328  1  1.00139391  0.38540673  1.00053888  1
  O  O329  1  1.00087327  0.88297559  0.49182258  1
  O  O330  1  0.99890806  0.88784005  1.00490321  1
  O  O331  1  0.49750517  0.48881061  0.38426123  1
  O  O332  1  0.49210688  0.49567657  0.88102851  1
  O  O333  1  0.49324533  0.99562512  0.38746966  1
  O  O334  1  0.49928032  0.99156887  0.88153884  1
  O  O335  1  0.99212830  0.49013422  0.37899766  1
  O  O336  1  0.99403879  0.49701599  0.88565169  1
  O  O337  1  1.00092114  0.99211772  0.37963812  1
  O  O338  1  0.99186241  1.00343318  0.88523306  1
  O  O339  1  0.00925236  0.00093549  0.11923425  1
  O  O340  1  -0.00075975  -0.00265142  0.61311879  1
  O  O341  1  -0.01113710  0.50490017  0.11296863  1
  O  O342  1  -0.00178197  0.49169401  0.61266845  1
  O  O343  1  0.50391644  0.00694171  0.11775957  1
  O  O344  1  0.50308744  -0.00658461  0.61418459  1
  O  O345  1  0.49699745  0.49749854  0.11168539  1
  O  O346  1  0.50200226  0.49944969  0.61511727  1
  O  O347  1  0.24791169  0.38099751  0.24378464  1
  O  O348  1  0.24606547  0.37928001  0.74511865  1
  O  O349  1  0.25072535  0.87866872  0.24096627  1
  O  O350  1  0.24359515  0.88080683  0.74471861  1
  O  O351  1  0.74263396  0.38156842  0.24227800  1
  O  O352  1  0.74251925  0.38176279  0.74195462  1
  O  O353  1  0.74376908  0.88071234  0.24397635  1
  O  O354  1  0.74454078  0.87876821  0.74110958  1
  O  O355  1  0.25214498  0.11851911  0.24851084  1
  O  O356  1  0.25136817  0.11903028  0.75424471  1
  O  O357  1  0.26605852  0.63337624  0.25066282  1
  O  O358  1  0.24613364  0.61696650  0.75685411  1
  O  O359  1  0.74734964  0.11686848  0.25777475  1
  O  O360  1  0.75918348  0.11902505  0.74967039  1
  O  O361  1  0.75653285  0.61679713  0.25310841  1
  O  O362  1  0.75662677  0.61750730  0.75221421  1
  O  O363  1  0.38001968  0.11289995  0.38195727  1
  O  O364  1  0.36293108  0.12337860  0.86378612  1
  O  O365  1  0.37464050  0.62853986  0.35956417  1
  O  O366  1  0.36719406  0.61333088  0.88174019  1
  O  O367  1  0.86193002  0.12441259  0.37366978  1
  O  O368  1  0.87278565  0.11546805  0.86254044  1
  O  O369  1  0.86848057  0.61588671  0.36360932  1
  O  O370  1  0.87203406  0.61445030  0.86318306  1
  O  O371  1  0.12261315  0.38782566  0.13459557  1
  O  O372  1  0.13719727  0.37686759  0.63188232  1
  O  O373  1  0.13500573  0.89224840  0.12282047  1
  O  O374  1  0.13502161  0.86853704  0.63477386  1
  O  O375  1  0.63331867  0.36685566  0.13599444  1
  O  O376  1  0.63384209  0.36945608  0.63674431  1
  O  O377  1  0.63512289  0.88096386  0.13075544  1
  O  O378  1  0.63279886  0.87915652  0.62986687  1
  O  O379  1  0.11306024  0.24549654  0.24862843  1
  O  O380  1  0.11874612  0.25716559  0.74523926  1
  O  O381  1  0.11164110  0.74266177  0.25791240  1
  O  O382  1  0.11160033  0.75433514  0.75073899  1
  O  O383  1  0.62976986  0.25823899  0.26086832  1
  O  O384  1  0.61949418  0.25506718  0.75420197  1
  O  O385  1  0.62578263  0.75885853  0.25730070  1
  O  O386  1  0.62596991  0.75696163  0.77001147  1
  O  O387  1  0.37143711  0.25618199  0.23366582  1
  O  O388  1  0.38362895  0.24303364  0.74977236  1
  O  O389  1  0.37740797  0.74685093  0.24080725  1
  O  O390  1  0.37633299  0.74968663  0.73547338  1
  O  O391  1  0.88126100  0.24575110  0.24058855  1
  O  O392  1  0.88081561  0.24092440  0.74184790  1
  O  O393  1  0.88512470  0.74005495  0.24931169  1
  O  O394  1  0.88523550  0.74329181  0.74792298  1
  O  O395  1  0.38428378  0.48744341  0.50412020  1
  O  O396  1  0.38139705  0.49322114  0.99446403  1
  O  O397  1  0.37922150  0.99476634  0.49731154  1
  O  O398  1  0.38554918  1.00138920  0.99813860  1
  O  O399  1  0.88289859  0.50426051  0.48892789  1
  O  O400  1  0.88646545  0.50481341  0.98883521  1
  O  O401  1  0.88602979  0.99847221  0.49706233  1
  O  O402  1  0.88346106  1.00134841  0.99206656  1
  O  O403  1  0.11859362  0.00736461  0.00621864  1
  O  O404  1  0.12128228  0.00931180  0.49528484  1
  O  O405  1  0.10744178  0.50397425  -0.00379918  1
  O  O406  1  0.11350280  0.50727745  0.50183443  1
  O  O407  1  0.61610786  0.00590512  0.00480550  1
  O  O408  1  0.61689906  0.00614327  0.50417247  1
  O  O409  1  0.61687947  0.50734855  -0.00784937  1
  O  O410  1  0.61209112  0.50061220  0.50006748  1
  O  O411  1  0.38345924  0.36151695  0.11084510  1
  O  O412  1  0.36444658  0.37268792  0.62037160  1
  O  O413  1  0.36763350  0.86981676  0.12522670  1
  O  O414  1  0.35789433  0.87220868  0.61437460  1
  O  O415  1  0.86102820  0.36308385  0.12844712  1
  O  O416  1  0.86523719  0.36428108  0.63232495  1
  O  O417  1  0.86275251  0.87374333  0.12287139  1
  O  O418  1  0.86858713  0.86723435  0.62567974  1
  O  O419  1  0.12335394  0.13105129  0.39266661  1
  O  O420  1  0.13715670  0.12192156  0.88290703  1
  O  O421  1  0.12209832  0.63666676  0.38518953  1
  O  O422  1  0.13848627  0.62362453  0.87730202  1
  O  O423  1  0.63248411  0.13226495  0.38064358  1
  O  O424  1  0.62663045  0.13367489  0.87980624  1
  O  O425  1  0.63572523  0.63299384  0.36470485  1
  O  O426  1  0.62822635  0.63365480  0.88754786  1
