# generated using pymatgen
data_V85Zn86O256
_symmetry_space_group_name_H-M   'P 1'
_cell_length_a   16.94521274
_cell_length_b   16.95465549
_cell_length_c   16.95099565
_cell_angle_alpha   89.98412771
_cell_angle_beta   90.02867354
_cell_angle_gamma   90.02654912
_symmetry_Int_Tables_number   1
_chemical_formula_structural   V85Zn86O256
_chemical_formula_sum   'V85 Zn86 O256'
_cell_volume   4870.02387099
_cell_formula_units_Z   1
loop_
 _symmetry_equiv_pos_site_id
 _symmetry_equiv_pos_as_xyz
  1  'x, y, z'
loop_
 _atom_site_type_symbol
 _atom_site_label
 _atom_site_symmetry_multiplicity
 _atom_site_fract_x
 _atom_site_fract_y
 _atom_site_fract_z
 _atom_site_occupancy
  V  V0  1  0.61382026  0.62762662  0.00095793  1
  V  V1  1  0.48134247  0.23593147  0.24768530  1
  V  V2  1  0.62848358  -0.00066411  0.62280666  1
  V  V3  1  0.24759412  0.87283849  0.11603405  1
  V  V4  1  0.24449151  0.50380987  0.25013489  1
  V  V5  1  0.37947146  0.88073529  -0.00097441  1
  V  V6  1  0.00053012  0.74747318  0.25057142  1
  V  V7  1  0.62476835  0.37387268  0.74931306  1
  V  V8  1  0.75715081  -0.00135004  0.75002617  1
  V  V9  1  0.62139937  0.75206810  0.87196313  1
  V  V10  1  -0.00366015  0.61949050  0.12151736  1
  V  V11  1  0.87262398  0.87831914  -0.00759886  1
  V  V12  1  0.50029833  0.62868799  0.62170843  1
  V  V13  1  -0.00067732  0.12613843  0.62718842  1
  V  V14  1  0.75009856  0.37305471  0.62634494  1
  V  V15  1  0.49706883  0.24967430  0.74237739  1
  V  V16  1  0.62862482  0.24157045  0.87802746  1
  V  V17  1  0.74057710  0.48799727  0.23687670  1
  V  V18  1  0.87023161  0.75765788  0.12771347  1
  V  V19  1  0.49843399  0.12719838  0.62207111  1
  V  V20  1  0.00001259  0.37743851  0.87937156  1
  V  V21  1  0.24568416  0.62999250  0.38867444  1
  V  V22  1  0.13048085  0.87137767  0.75862714  1
  V  V23  1  0.87922692  0.49793950  0.88245028  1
  V  V24  1  -0.00358061  0.00052994  0.50066145  1
  V  V25  1  0.37291350  0.62746068  0.25059567  1
  V  V26  1  0.50196378  0.75763529  0.74262630  1
  V  V27  1  0.24822386  0.50284933  0.74055318  1
  V  V28  1  0.49077399  0.11982919  0.10800071  1
  V  V29  1  0.12926886  0.13071252  0.50142620  1
  V  V30  1  0.50133159  0.37598388  0.36436854  1
  V  V31  1  0.62725627  0.25161807  0.35780657  1
  V  V32  1  0.37026783  0.75014350  0.11902619  1
  V  V33  1  0.36631481  0.87393573  0.49514984  1
  V  V34  1  0.74803715  0.49903653  0.75423431  1
  V  V35  1  0.87539005  0.37592564  0.49708614  1
  V  V36  1  0.75706754  0.26284123  0.00627139  1
  V  V37  1  0.37543977  0.36394909  0.50722809  1
  V  V38  1  0.38345444  0.00212336  0.87519449  1
  V  V39  1  0.37273373  0.63511180  0.76181101  1
  V  V40  1  0.87310304  0.75191019  0.61960015  1
  V  V41  1  0.81811169  0.55814509  0.42275185  1
  V  V42  1  0.61708801  -0.00466181  0.10122291  1
  V  V43  1  0.87575865  0.12464390  0.75572083  1
  V  V44  1  0.50747100  0.87751410  0.37021792  1
  V  V45  1  0.87608693  0.00805567  0.35976031  1
  V  V46  1  0.12334850  0.37260848  0.25181166  1
  V  V47  1  0.13011641  0.64291745  0.00103611  1
  V  V48  1  0.24904894  0.12379725  0.87327684  1
  V  V49  1  0.25217994  0.00569848  0.24589659  1
  V  V50  1  -0.00778356  0.12735033  0.13187336  1
  V  V51  1  0.01421122  0.62232611  0.62545654  1
  V  V52  1  0.72921984  -0.00378283  0.24140455  1
  V  V53  1  0.00427708  0.74859213  0.76043242  1
  V  V54  1  0.50501561  0.75568889  0.24952926  1
  V  V55  1  0.55561632  0.44869057  0.05722057  1
  V  V56  1  -0.00315406  0.00319210  -0.00719528  1
  V  V57  1  0.63668114  0.74909040  0.37937674  1
  V  V58  1  0.37773557  0.49720072  0.88073757  1
  V  V59  1  0.75197240  0.11885465  0.88481808  1
  V  V60  1  0.74754360  0.62603693  0.87590793  1
  V  V61  1  0.62285141  0.50177901  0.62565067  1
  V  V62  1  0.12055800  0.49643941  0.11449589  1
  V  V63  1  0.87751273  0.62647087  0.75405645  1
  V  V64  1  0.74849455  0.24818259  0.49771403  1
  V  V65  1  0.50006818  0.50278168  0.49872825  1
  V  V66  1  0.25100758  0.13118654  0.37519644  1
  V  V67  1  0.00128760  0.87618690  0.37504606  1
  V  V68  1  0.13006190  0.74957976  0.39022352  1
  V  V69  1  0.50151024  0.62570297  0.12404508  1
  V  V70  1  0.37254426  0.12632545  0.74038566  1
  V  V71  1  0.25541646  0.25103431  0.00697108  1
  V  V72  1  0.24729474  0.36063412  0.62396687  1
  V  V73  1  0.36711724  0.75118538  0.61701212  1
  V  V74  1  0.37556031  0.00469702  0.36834509  1
  V  V75  1  0.12793902  0.87290354  0.24943854  1
  V  V76  1  0.50006673  0.00080841  0.49788103  1
  V  V77  1  0.02119737  0.50290430  0.50570416  1
  V  V78  1  0.74659967  0.75554697  0.00526246  1
  V  V79  1  0.12477355  0.25157394  0.87165458  1
  V  V80  1  0.37351288  0.50260157  0.37760489  1
  V  V81  1  0.62756934  0.12767557  0.49614749  1
  V  V82  1  0.50158956  0.37367138  0.87372857  1
  V  V83  1  0.00178020  0.37984911  0.38029256  1
  V  V84  1  0.86239292  0.62387169  0.25073014  1
  Zn  Zn85  1  0.12807089  0.25190672  0.37893141  1
  Zn  Zn86  1  0.12271869  0.00165055  0.12110407  1
  Zn  Zn87  1  0.24315618  0.87351724  0.61732879  1
  Zn  Zn88  1  0.62784454  0.87796343  0.74842179  1
  Zn  Zn89  1  0.76108448  0.13409483  0.35793722  1
  Zn  Zn90  1  0.37732497  0.37447497  0.00729236  1
  Zn  Zn91  1  0.74808175  0.86985173  0.61927433  1
  Zn  Zn92  1  0.50237703  0.88057166  0.87654334  1
  Zn  Zn93  1  0.86792378  0.26071265  0.13582454  1
  Zn  Zn94  1  0.00205284  0.87386141  0.87800892  1
  Zn  Zn95  1  0.86915720  0.87270652  0.49405228  1
  Zn  Zn96  1  0.12629339  -0.00285711  0.62690250  1
  Zn  Zn97  1  0.12112492  0.38110746  0.74509315  1
  Zn  Zn98  1  0.64066957  0.62791287  0.49695500  1
  Zn  Zn99  1  0.25091280  -0.00281021  0.74557185  1
  Zn  Zn100  1  -0.00746896  0.24478772  0.25780171  1
  Zn  Zn101  1  0.12322648  0.12359595  0.00024364  1
  Zn  Zn102  1  -0.00154502  0.25245484  0.75096909  1
  Zn  Zn103  1  0.25352701  0.36882313  0.12987414  1
  Zn  Zn104  1  0.87499616  0.25061359  0.62651519  1
  Zn  Zn105  1  -0.07054376  0.43066465  0.04413311  1
  Zn  Zn106  1  0.23989149  0.62564581  0.87911127  1
  Zn  Zn107  1  0.17807240  0.18459020  0.18708859  1
  Zn  Zn108  1  0.18497663  0.18704915  0.68808150  1
  Zn  Zn109  1  0.18604551  0.68733578  0.18874806  1
  Zn  Zn110  1  0.18874509  0.69134632  0.68826312  1
  Zn  Zn111  1  0.68495382  0.17454091  0.17986382  1
  Zn  Zn112  1  0.68852066  0.18473165  0.68848293  1
  Zn  Zn113  1  0.68363482  0.69006131  0.18893222  1
  Zn  Zn114  1  0.68845484  0.68589380  0.68616401  1
  Zn  Zn115  1  0.31194351  0.31651759  0.31535759  1
  Zn  Zn116  1  0.31311255  0.31202118  0.81146180  1
  Zn  Zn117  1  0.31330699  0.81394477  0.30970213  1
  Zn  Zn118  1  0.31383097  0.80930460  0.81385398  1
  Zn  Zn119  1  0.81608973  0.31747446  0.30920601  1
  Zn  Zn120  1  0.81582041  0.31028025  0.81658020  1
  Zn  Zn121  1  0.81314034  0.82274602  0.30812266  1
  Zn  Zn122  1  0.81157444  0.81239110  0.80965326  1
  Zn  Zn123  1  0.19263741  0.43614541  0.43946857  1
  Zn  Zn124  1  0.19018744  0.43703822  0.93310341  1
  Zn  Zn125  1  0.18523813  0.94423399  0.43575277  1
  Zn  Zn126  1  0.18796034  0.93996000  0.93598528  1
  Zn  Zn127  1  0.68108482  0.43227453  0.43752367  1
  Zn  Zn128  1  0.69056427  0.43402428  0.93413562  1
  Zn  Zn129  1  0.69423214  0.93710509  0.43518468  1
  Zn  Zn130  1  0.69057896  0.93559633  0.93448014  1
  Zn  Zn131  1  0.31268265  0.06327722  0.06081996  1
  Zn  Zn132  1  0.30999588  0.05782196  0.56101871  1
  Zn  Zn133  1  0.30967921  0.55948017  0.06333547  1
  Zn  Zn134  1  0.31539132  0.56192325  0.56627911  1
  Zn  Zn135  1  0.81133249  0.05893013  0.06914753  1
  Zn  Zn136  1  0.81545743  0.06196486  0.56157756  1
  Zn  Zn137  1  0.80335246  0.56830047  0.06510780  1
  Zn  Zn138  1  0.81933392  0.56086296  0.58392705  1
  Zn  Zn139  1  0.42885821  0.43351132  0.19167580  1
  Zn  Zn140  1  0.43249269  0.44009533  0.68829535  1
  Zn  Zn141  1  0.43951706  0.94122875  0.18481178  1
  Zn  Zn142  1  0.43564411  0.93841580  0.68415426  1
  Zn  Zn143  1  0.92779074  0.43834967  0.20715716  1
  Zn  Zn144  1  0.93809291  0.43878613  0.69112988  1
  Zn  Zn145  1  0.94070727  0.93752762  0.18217463  1
  Zn  Zn146  1  0.94162221  0.93640139  0.69091884  1
  Zn  Zn147  1  0.06611921  0.06129319  0.31183150  1
  Zn  Zn148  1  0.06309063  0.05851534  0.81370736  1
  Zn  Zn149  1  0.06081873  0.56314407  0.31456350  1
  Zn  Zn150  1  0.06524720  0.56208475  0.81680280  1
  Zn  Zn151  1  0.56587491  0.06682193  0.31136692  1
  Zn  Zn152  1  0.56509936  0.06286773  0.80944450  1
  Zn  Zn153  1  0.56634989  0.56784042  0.31209830  1
  Zn  Zn154  1  0.55214261  0.56656682  0.81429962  1
  Zn  Zn155  1  0.43863959  0.18653909  0.43220421  1
  Zn  Zn156  1  0.43390980  0.18920903  0.93064792  1
  Zn  Zn157  1  0.43908188  0.68939206  0.43466666  1
  Zn  Zn158  1  0.42246274  0.69447792  0.92900780  1
  Zn  Zn159  1  0.93910567  0.19009161  0.43787146  1
  Zn  Zn160  1  0.93599273  0.18840077  0.93967454  1
  Zn  Zn161  1  0.94995331  0.68981738  0.44242585  1
  Zn  Zn162  1  0.93719376  0.68452455  0.94248670  1
  Zn  Zn163  1  0.06694714  0.30587215  0.06204425  1
  Zn  Zn164  1  0.06402750  0.31064459  0.56416267  1
  Zn  Zn165  1  0.05638031  0.81467486  0.06518988  1
  Zn  Zn166  1  0.05770187  0.81459658  0.56907253  1
  Zn  Zn167  1  0.56779889  0.28274568  0.06531557  1
  Zn  Zn168  1  0.56249338  0.31386453  0.55878244  1
  Zn  Zn169  1  0.55934355  0.81494716  0.06265885  1
  Zn  Zn170  1  0.56360863  0.81617198  0.55446508  1
  O  O171  1  0.11268468  0.12066363  0.11878651  1
  O  O172  1  0.11804962  0.12117125  0.62008880  1
  O  O173  1  0.11687563  0.61888068  0.11915891  1
  O  O174  1  0.11302144  0.62852502  0.62877925  1
  O  O175  1  0.60400903  0.10860458  0.13124184  1
  O  O176  1  0.62067988  0.11667609  0.61788979  1
  O  O177  1  0.60982158  0.63100409  0.11862394  1
  O  O178  1  0.62165629  0.61994100  0.61707545  1
  O  O179  1  0.37965956  0.38290862  0.38582278  1
  O  O180  1  0.38475662  0.37885563  0.87782697  1
  O  O181  1  0.38219343  0.88283301  0.37861920  1
  O  O182  1  0.37268220  0.88469427  0.88159476  1
  O  O183  1  0.88397403  0.37674194  0.39009837  1
  O  O184  1  0.88347951  0.38600214  0.87336729  1
  O  O185  1  0.88481345  0.88730186  0.37429819  1
  O  O186  1  0.87663247  0.86579241  0.88909420  1
  O  O187  1  0.25731069  0.00646119  0.36600027  1
  O  O188  1  0.25773936  0.01257682  0.87213674  1
  O  O189  1  0.25104139  0.50799408  0.36655881  1
  O  O190  1  0.26146009  0.50426802  0.86517344  1
  O  O191  1  0.76293758  0.00260068  0.36264310  1
  O  O192  1  0.74504750  0.00698012  0.86212815  1
  O  O193  1  0.75031088  0.50101580  0.37367014  1
  O  O194  1  0.75476311  0.50610927  0.87143110  1
  O  O195  1  0.23989133  0.50250511  0.13868329  1
  O  O196  1  0.25728816  0.49185699  0.63726360  1
  O  O197  1  0.24753916  0.99295736  0.13083348  1
  O  O198  1  0.24587278  0.99207244  0.62751750  1
  O  O199  1  0.74907943  0.50141781  0.13675251  1
  O  O200  1  0.74301989  0.49310182  0.63425705  1
  O  O201  1  0.72751573  1.00675403  0.13006714  1
  O  O202  1  0.74267566  1.00432913  0.63205773  1
  O  O203  1  0.00979679  0.38183362  0.26603105  1
  O  O204  1  0.00255985  0.37376955  0.75986774  1
  O  O205  1  0.00927621  0.86987929  0.25322159  1
  O  O206  1  0.00961357  0.86655491  0.75524818  1
  O  O207  1  0.49420047  0.36600359  0.26097956  1
  O  O208  1  0.50219595  0.36641730  0.75385695  1
  O  O209  1  0.49181551  0.86656699  0.25813051  1
  O  O210  1  0.50400903  0.86688326  0.74801038  1
  O  O211  1  0.49257205  0.13474808  0.25547046  1
  O  O212  1  0.49402641  0.13163799  0.74266123  1
  O  O213  1  0.49281358  0.63137661  0.24295171  1
  O  O214  1  0.49888177  0.64045322  0.73843336  1
  O  O215  1  1.00830860  0.12492954  0.23606054  1
  O  O216  1  0.99317472  0.12319558  0.74435817  1
  O  O217  1  0.99105293  0.62736287  0.24158686  1
  O  O218  1  0.99954118  0.62879338  0.74438839  1
  O  O219  1  0.35863678  0.25197211  -0.00844171  1
  O  O220  1  0.38374462  0.26596624  0.49590403  1
  O  O221  1  0.37488822  0.75702219  0.01410864  1
  O  O222  1  0.38392024  0.76089149  0.50586007  1
  O  O223  1  0.85951046  0.24933707  0.00073372  1
  O  O224  1  0.86730816  0.25915870  0.50292612  1
  O  O225  1  0.86482729  0.75161814  0.00829601  1
  O  O226  1  0.88414164  0.74966719  0.51653771  1
  O  O227  1  0.12345037  0.23524035  0.49980695  1
  O  O228  1  0.13607995  0.24646942  0.98638497  1
  O  O229  1  0.11982069  0.75742816  0.48905743  1
  O  O230  1  0.12543264  0.74151282  1.00737435  1
  O  O231  1  0.63183177  0.24681141  0.49201411  1
  O  O232  1  0.63864222  0.24610881  0.98679230  1
  O  O233  1  0.62534071  0.74815763  0.48541801  1
  O  O234  1  0.62737066  0.74643091  0.99344678  1
  O  O235  1  0.50030167  0.23317566  0.13939130  1
  O  O236  1  0.50731743  0.24494967  0.63485394  1
  O  O237  1  0.49299565  0.74461334  0.13191883  1
  O  O238  1  0.49828043  0.74820729  0.62609956  1
  O  O239  1  1.00042141  0.23533240  0.12335159  1
  O  O240  1  0.99884123  0.23793189  0.62770828  1
  O  O241  1  0.99104517  0.74211820  0.13252362  1
  O  O242  1  0.99400472  0.73925348  0.63544800  1
  O  O243  1  0.00461829  0.26614482  0.38042236  1
  O  O244  1  0.00766591  0.25669819  0.87444916  1
  O  O245  1  0.00839355  0.75575253  0.36880473  1
  O  O246  1  -0.00486027  0.74640319  0.86334131  1
  O  O247  1  0.50475522  0.25485655  0.36343313  1
  O  O248  1  0.50896147  0.25522249  0.86677176  1
  O  O249  1  0.50434642  0.75950418  0.36714342  1
  O  O250  1  0.50594031  0.75397513  0.86213287  1
  O  O251  1  0.24055800  0.11595643  0.48910007  1
  O  O252  1  0.24946211  0.13367468  0.99043844  1
  O  O253  1  0.25583366  0.62005767  0.48761948  1
  O  O254  1  0.23419302  0.62643041  1.00401278  1
  O  O255  1  0.74943603  0.13853140  0.49878235  1
  O  O256  1  0.75714413  0.12276591  0.98623738  1
  O  O257  1  0.76274411  0.61134029  0.49105635  1
  O  O258  1  0.73455745  0.63516747  0.99570471  1
  O  O259  1  0.24808765  0.35927937  -0.00224068  1
  O  O260  1  0.26318306  0.37825721  0.51265668  1
  O  O261  1  0.25629763  0.87841192  0.01111551  1
  O  O262  1  0.26267861  0.88009317  0.49426680  1
  O  O263  1  0.74936435  0.36184503  -0.00158450  1
  O  O264  1  0.75580158  0.36696186  0.50327573  1
  O  O265  1  0.75507736  0.86251551  -0.00288592  1
  O  O266  1  0.75788092  0.88254395  0.50735090  1
  O  O267  1  0.12901949  0.49484917  0.24381609  1
  O  O268  1  0.14425042  0.49924017  0.75680570  1
  O  O269  1  0.13246681  0.98623458  0.24958228  1
  O  O270  1  0.12665877  0.98504820  0.75056595  1
  O  O271  1  0.64238013  0.50925112  0.25438643  1
  O  O272  1  0.62700739  0.49526103  0.74671296  1
  O  O273  1  0.62869726  0.99076735  0.25452646  1
  O  O274  1  0.63421033  1.00086020  0.73879694  1
  O  O275  1  0.36508922  -0.00683046  0.25849855  1
  O  O276  1  0.37284719  0.00767224  0.75508832  1
  O  O277  1  0.36492671  0.50666767  0.25852454  1
  O  O278  1  0.36553221  0.50597415  0.75755386  1
  O  O279  1  0.88507184  0.00279866  0.26022249  1
  O  O280  1  0.86536406  0.00680565  0.74421215  1
  O  O281  1  0.85872595  0.51282782  0.25928063  1
  O  O282  1  0.86757100  0.50750063  0.75922996  1
  O  O283  1  0.12190674  0.37379631  0.37144052  1
  O  O284  1  0.12036559  0.36880440  0.86927154  1
  O  O285  1  0.12199873  0.87056066  0.36783105  1
  O  O286  1  0.12444311  0.87361021  0.86393911  1
  O  O287  1  0.61074730  0.36314858  0.38146230  1
  O  O288  1  0.62091526  0.36388994  0.86813570  1
  O  O289  1  0.61290895  0.86840881  0.37994364  1
  O  O290  1  0.62310849  0.86328128  0.87206850  1
  O  O291  1  0.39090772  0.11400585  0.12624817  1
  O  O292  1  0.37926215  0.12028027  0.63409873  1
  O  O293  1  0.38170971  0.63126360  0.12689818  1
  O  O294  1  0.38103150  0.63472743  0.63224114  1
  O  O295  1  0.88959185  0.12556014  0.12154484  1
  O  O296  1  0.88276146  0.12661753  0.63423941  1
  O  O297  1  0.87966843  0.63252616  0.13155106  1
  O  O298  1  0.88546115  0.63536766  0.63590805  1
  O  O299  1  0.24225078  0.24641885  0.10967431  1
  O  O300  1  0.25444088  0.26218179  0.63079633  1
  O  O301  1  0.25936137  0.76056614  0.13511299  1
  O  O302  1  0.26333298  0.75267758  0.62448206  1
  O  O303  1  0.74615719  0.24205622  0.10897644  1
  O  O304  1  0.74858775  0.25666515  0.61650892  1
  O  O305  1  0.75616812  0.74550959  0.11679320  1
  O  O306  1  0.76857150  0.74771603  0.63080909  1
  O  O307  1  0.25099584  0.23487032  0.36955262  1
  O  O308  1  0.24524560  0.24116528  0.87761318  1
  O  O309  1  0.24232073  0.74266094  0.36940081  1
  O  O310  1  0.31874490  0.70535062  0.85796613  1
  O  O311  1  0.74301966  0.25167229  0.38009850  1
  O  O312  1  0.74514446  0.24247027  0.88202903  1
  O  O313  1  0.73448337  0.76044970  0.36454625  1
  O  O314  1  0.74034820  0.74433936  0.88005396  1
  O  O315  1  -0.00055862  0.11769462  0.00514122  1
  O  O316  1  0.00471616  0.12034349  0.50845972  1
  O  O317  1  0.00971467  0.62980653  0.01494526  1
  O  O318  1  -0.00056783  0.61621833  0.51542851  1
  O  O319  1  0.49777662  0.13675296  0.00929810  1
  O  O320  1  0.50509265  0.12114998  0.50313503  1
  O  O321  1  0.50757312  0.63434049  0.00547397  1
  O  O322  1  0.49666953  0.61329174  0.50293161  1
  O  O323  1  0.49135003  0.38427371  0.49529460  1
  O  O324  1  0.50429528  0.37519722  0.99625999  1
  O  O325  1  0.49217142  0.88372075  0.48896643  1
  O  O326  1  0.48352034  0.87038839  0.99528246  1
  O  O327  1  0.99411486  0.38500074  0.50295166  1
  O  O328  1  1.00990895  0.37419021  0.98539230  1
  O  O329  1  0.99673984  0.88432610  0.49419229  1
  O  O330  1  0.99113652  0.88125504  0.99860853  1
  O  O331  1  0.49750030  0.49414168  0.37982501  1
  O  O332  1  0.50122158  0.47751553  0.86929017  1
  O  O333  1  0.49364146  0.99576497  0.37583693  1
  O  O334  1  0.48851217  1.00008492  0.86800125  1
  O  O335  1  1.00693592  0.49077102  0.38998401  1
  O  O336  1  0.99006998  0.49355191  0.87142572  1
  O  O337  1  0.99356432  0.99762725  0.38005395  1
  O  O338  1  0.99805118  0.99843702  0.88834620  1
  O  O339  1  0.00076557  0.00925621  0.11486956  1
  O  O340  1  0.00004725  0.00947591  0.61803464  1
  O  O341  1  0.00413009  0.50570674  0.12594554  1
  O  O342  1  -0.00516883  0.51404261  0.62131225  1
  O  O343  1  0.50507509  0.00830230  0.12035811  1
  O  O344  1  0.50745338  0.00712125  0.61873411  1
  O  O345  1  0.49686104  0.50601266  0.12217399  1
  O  O346  1  0.50291442  0.50563975  0.61845603  1
  O  O347  1  0.23964640  0.38419971  0.25358490  1
  O  O348  1  0.25514983  0.38310009  0.73750621  1
  O  O349  1  0.24475375  0.88280795  0.24147817  1
  O  O350  1  0.23988003  0.87086598  0.75189733  1
  O  O351  1  0.74784881  0.38927529  0.25363446  1
  O  O352  1  0.74478147  0.37848031  0.74729267  1
  O  O353  1  0.76434194  0.90103557  0.24162308  1
  O  O354  1  0.74917943  0.88393163  0.74275079  1
  O  O355  1  0.24034860  0.11179033  0.25595400  1
  O  O356  1  0.25776599  0.12497072  0.75504582  1
  O  O357  1  0.25425370  0.61919064  0.25573794  1
  O  O358  1  0.25392514  0.61430586  0.74691142  1
  O  O359  1  0.74746127  0.10488906  0.24721884  1
  O  O360  1  0.75847855  0.11886386  0.75555400  1
  O  O361  1  0.76026823  0.62751449  0.24817890  1
  O  O362  1  0.75439154  0.61939614  0.75774528  1
  O  O363  1  0.36753669  0.11212858  0.38049689  1
  O  O364  1  0.36953996  0.11959028  0.86330808  1
  O  O365  1  0.36891909  0.62147310  0.36946036  1
  O  O366  1  0.41993818  0.59863109  0.86302658  1
  O  O367  1  0.87667954  0.11214891  0.37920248  1
  O  O368  1  0.86836425  0.12868541  0.86258785  1
  O  O369  1  0.87756263  0.62684033  0.37057069  1
  O  O370  1  0.86923007  0.62016769  0.87176234  1
  O  O371  1  0.12691351  0.38084058  0.13385002  1
  O  O372  1  0.14188106  0.37097993  0.62592896  1
  O  O373  1  0.13177446  0.87497368  0.13205729  1
  O  O374  1  0.12481350  0.87506903  0.63914412  1
  O  O375  1  0.60763021  0.38603137  0.11204000  1
  O  O376  1  0.62931235  0.38174076  0.62959557  1
  O  O377  1  0.61346813  0.89519335  0.12061069  1
  O  O378  1  0.62423624  0.88927617  0.62298422  1
  O  O379  1  0.11928121  0.26281548  0.25304210  1
  O  O380  1  0.12381699  0.25243988  0.76139407  1
  O  O381  1  0.12065346  0.76022997  0.25406735  1
  O  O382  1  0.11894761  0.75981988  0.75007135  1
  O  O383  1  0.61922403  0.24376274  0.25648669  1
  O  O384  1  0.61898151  0.25464278  0.75536043  1
  O  O385  1  0.61131856  0.74792331  0.25857226  1
  O  O386  1  0.62052353  0.75170771  0.75502534  1
  O  O387  1  0.38364046  0.25045594  0.25354013  1
  O  O388  1  0.38721213  0.24035436  0.75558869  1
  O  O389  1  0.38369488  0.74597161  0.24134676  1
  O  O390  1  0.38741600  0.75496154  0.73228017  1
  O  O391  1  0.87960389  0.24945591  0.25053580  1
  O  O392  1  0.87625178  0.24038552  0.74633987  1
  O  O393  1  0.87880101  0.74589940  0.24475131  1
  O  O394  1  0.88346492  0.74424677  0.74491121  1
  O  O395  1  0.38285561  0.49334832  0.49573151  1
  O  O396  1  0.36887443  0.49847186  0.98553378  1
  O  O397  1  0.38190231  0.99307040  0.49066747  1
  O  O398  1  0.36953411  0.99243157  0.98804825  1
  O  O399  1  0.87354686  0.49936461  0.49319405  1
  O  O400  1  0.87018261  0.51123728  0.98783164  1
  O  O401  1  0.88710060  1.00199452  0.49222981  1
  O  O402  1  0.87943210  0.98690512  1.00808812  1
  O  O403  1  0.11399053  0.00025664  0.00025385  1
  O  O404  1  0.11150282  0.00889021  0.49933037  1
  O  O405  1  0.13228771  0.50148533  0.01329884  1
  O  O406  1  0.12000559  0.49669666  0.50498639  1
  O  O407  1  0.62376171  -0.00003694  0.00203470  1
  O  O408  1  0.62115772  0.00838544  0.50268987  1
  O  O409  1  0.62052156  0.50608273  -0.00206688  1
  O  O410  1  0.61628814  0.50277757  0.50502607  1
  O  O411  1  0.36570746  0.38041543  0.11927879  1
  O  O412  1  0.37040532  0.37676367  0.61330160  1
  O  O413  1  0.36863210  0.87048035  0.11833676  1
  O  O414  1  0.37530255  0.86901892  0.61169002  1
  O  O415  1  0.88522132  0.37456880  0.12708195  1
  O  O416  1  0.86873454  0.37772643  0.61471013  1
  O  O417  1  0.88093946  0.86113837  0.11631876  1
  O  O418  1  0.88171598  0.85810255  0.62793214  1
  O  O419  1  0.13280563  0.12560881  0.38270327  1
  O  O420  1  0.13374020  0.13112800  0.87367628  1
  O  O421  1  0.13300059  0.63715249  0.37001554  1
  O  O422  1  0.12328489  0.62379794  0.89582466  1
  O  O423  1  0.62999921  0.13545352  0.38077106  1
  O  O424  1  0.63625213  0.13448922  0.86459746  1
  O  O425  1  0.62179941  0.64374835  0.37960441  1
  O  O426  1  0.62360001  0.63500486  0.88060709  1
