# generated using pymatgen
data_V85Zn86O256
_symmetry_space_group_name_H-M   'P 1'
_cell_length_a   16.93280897
_cell_length_b   16.92497632
_cell_length_c   16.92935989
_cell_angle_alpha   89.99416956
_cell_angle_beta   90.12088344
_cell_angle_gamma   89.98829661
_symmetry_Int_Tables_number   1
_chemical_formula_structural   V85Zn86O256
_chemical_formula_sum   'V85 Zn86 O256'
_cell_volume   4851.73015385
_cell_formula_units_Z   1
loop_
 _symmetry_equiv_pos_site_id
 _symmetry_equiv_pos_as_xyz
  1  'x, y, z'
loop_
 _atom_site_type_symbol
 _atom_site_label
 _atom_site_symmetry_multiplicity
 _atom_site_fract_x
 _atom_site_fract_y
 _atom_site_fract_z
 _atom_site_occupancy
  V  V0  1  0.63536665  0.75167924  0.37842773  1
  V  V1  1  0.11961352  0.00056615  0.61911296  1
  V  V2  1  0.50247315  0.74842887  0.75321503  1
  V  V3  1  0.12423434  0.37356676  0.76048300  1
  V  V4  1  0.62153963  0.00108803  0.10708146  1
  V  V5  1  0.26283394  0.62026935  0.37589755  1
  V  V6  1  0.50883819  0.25165348  0.75625837  1
  V  V7  1  -0.00005075  0.12435828  0.61646222  1
  V  V8  1  0.24850688  0.62708956  0.88629436  1
  V  V9  1  0.61652743  0.25139938  0.37851838  1
  V  V10  1  0.62434430  0.88021911  0.24701085  1
  V  V11  1  0.37047324  0.74831042  0.12369885  1
  V  V12  1  0.49854245  0.24697847  0.24552038  1
  V  V13  1  0.50106674  0.88178309  0.38001684  1
  V  V14  1  0.37445623  0.38018948  -0.00870838  1
  V  V15  1  0.00391437  0.12072845  0.12571326  1
  V  V16  1  0.25309060  0.50072265  0.75660027  1
  V  V17  1  0.64080665  0.74708717  0.87750024  1
  V  V18  1  0.74435569  0.00393894  0.74518131  1
  V  V19  1  0.38041615  0.38192827  0.49316838  1
  V  V20  1  0.24809429  0.87258017  0.62480304  1
  V  V21  1  0.62261846  0.50081530  0.62387194  1
  V  V22  1  0.75958350  0.50574955  0.25311955  1
  V  V23  1  0.74504556  0.88004927  0.61767609  1
  V  V24  1  0.64017294  0.62946156  -0.00163985  1
  V  V25  1  0.75212635  0.37551697  0.62325173  1
  V  V26  1  0.87889520  0.88395912  0.50165495  1
  V  V27  1  0.00095734  0.25043449  0.75797125  1
  V  V28  1  0.77500538  0.27067086  0.47467733  1
  V  V29  1  0.87154656  0.62541554  0.75322925  1
  V  V30  1  0.87205332  0.86789676  0.00047196  1
  V  V31  1  0.11955227  0.87805211  0.24627057  1
  V  V32  1  0.73492611  0.25373685  0.00223497  1
  V  V33  1  0.37615768  0.74916684  0.62652898  1
  V  V34  1  0.25184781  0.74890494  0.50001918  1
  V  V35  1  0.74896364  0.50205552  0.75541019  1
  V  V36  1  0.12239698  0.49699021  0.62423555  1
  V  V37  1  0.12599161  0.62154177  0.49970272  1
  V  V38  1  0.49906374  0.75071539  0.24974008  1
  V  V39  1  0.87451520  0.50291281  0.87790898  1
  V  V40  1  0.50117929  0.11946907  0.10897986  1
  V  V41  1  0.87169338  0.25281919  0.63041743  1
  V  V42  1  0.38253582  0.25041950  0.62299743  1
  V  V43  1  0.24885210  0.37002166  0.11968904  1
  V  V44  1  0.00106842  0.87421409  0.87582931  1
  V  V45  1  0.87512556  0.12496565  0.75431111  1
  V  V46  1  0.37714708  0.00121155  0.88149236  1
  V  V47  1  0.87463630  0.12381573  0.24770056  1
  V  V48  1  0.26320280  0.49767643  0.25234722  1
  V  V49  1  0.87499288  0.00193962  0.87852496  1
  V  V50  1  0.37874389  0.88420007  0.50205086  1
  V  V51  1  0.01102804  -0.00155611  0.00354135  1
  V  V52  1  0.12577056  0.14422248  -0.00366555  1
  V  V53  1  0.62317439  0.11641981  0.50098166  1
  V  V54  1  -0.00001328  0.25587608  0.24904096  1
  V  V55  1  0.00465551  0.50423476  0.00015073  1
  V  V56  1  0.25013697  -0.00001333  0.25110268  1
  V  V57  1  0.25236367  0.37224872  0.62560577  1
  V  V58  1  0.63347527  0.62923676  0.49932356  1
  V  V59  1  0.62762258  0.49785276  0.12138282  1
  V  V60  1  0.63146621  0.37469171  0.24361362  1
  V  V61  1  0.86923300  0.75283352  0.62364786  1
  V  V62  1  0.37014236  0.24632022  0.11667198  1
  V  V63  1  0.00001222  0.88787330  0.37553755  1
  V  V64  1  -0.01033890  0.48610746  0.48891560  1
  V  V65  1  0.37140207  0.86981724  -0.00100028  1
  V  V66  1  0.37526899  0.12502343  0.75118650  1
  V  V67  1  0.50274376  0.87759470  0.88189378  1
  V  V68  1  0.24562773  0.87750501  0.12064664  1
  V  V69  1  0.00333909  0.74869825  0.74937187  1
  V  V70  1  -0.05834055  0.69132734  0.29908872  1
  V  V71  1  0.12672411  0.74634447  0.88967160  1
  V  V72  1  -0.00365870  0.63144292  0.12334014  1
  V  V73  1  0.12452727  0.37652157  0.25419212  1
  V  V74  1  0.73588257  0.12998599  0.88139675  1
  V  V75  1  0.12672913  0.24933883  0.37668415  1
  V  V76  1  0.12672710  0.74822019  0.36932666  1
  V  V77  1  0.24936127  -0.00299946  0.75115908  1
  V  V78  1  0.87094449  0.37441421  0.00725216  1
  V  V79  1  0.62535702  0.87728954  0.74724508  1
  V  V80  1  0.50447084  0.11246129  0.62075468  1
  V  V81  1  0.74821196  0.86928483  0.11969616  1
  V  V82  1  0.12806109  0.50977034  0.12452103  1
  V  V83  1  0.74699322  0.12320615  0.37347598  1
  V  V84  1  0.37772544  0.62082352  0.75676287  1
  Zn  Zn85  1  0.00265602  0.37201715  0.88108243  1
  Zn  Zn86  1  0.87972073  0.00955622  0.38201635  1
  Zn  Zn87  1  0.38371160  0.61990930  0.25293214  1
  Zn  Zn88  1  0.86827583  0.74279433  0.12421002  1
  Zn  Zn89  1  0.50063384  0.62565681  0.11980639  1
  Zn  Zn90  1  0.74992983  0.00325349  0.24413336  1
  Zn  Zn91  1  0.76102783  0.62424762  0.37487297  1
  Zn  Zn92  1  0.25185977  0.12194995  0.38130652  1
  Zn  Zn93  1  0.24894853  0.24839844  0.50041555  1
  Zn  Zn94  1  0.49406482  0.38575367  0.36304511  1
  Zn  Zn95  1  0.12360811  0.87419244  0.75058829  1
  Zn  Zn96  1  0.87013496  0.25098783  0.12205686  1
  Zn  Zn97  1  0.63009742  0.37101615  0.75554207  1
  Zn  Zn98  1  0.24865395  0.13251892  0.88761993  1
  Zn  Zn99  1  0.49772869  0.50941480  0.48682768  1
  Zn  Zn100  1  0.51001847  0.37979064  0.87685808  1
  Zn  Zn101  1  0.37773819  0.00554166  0.37761293  1
  Zn  Zn102  1  -0.00200285  0.62162228  0.62509605  1
  Zn  Zn103  1  0.50220230  0.62466816  0.62482288  1
  Zn  Zn104  1  0.37392063  0.12263428  0.25016889  1
  Zn  Zn105  1  0.12458140  0.12411912  0.49976656  1
  Zn  Zn106  1  0.49602655  0.50947476  -0.01115288  1
  Zn  Zn107  1  0.18502145  0.18529134  0.18444466  1
  Zn  Zn108  1  0.19586697  0.19330251  0.71158334  1
  Zn  Zn109  1  0.19118032  0.68826839  0.18981516  1
  Zn  Zn110  1  0.18767329  0.68470630  0.69028797  1
  Zn  Zn111  1  0.68367460  0.18653122  0.18230376  1
  Zn  Zn112  1  0.68775362  0.18594092  0.68365849  1
  Zn  Zn113  1  0.68720879  0.68561647  0.18894851  1
  Zn  Zn114  1  0.68956645  0.68838197  0.68816695  1
  Zn  Zn115  1  0.31162740  0.30828545  0.30860733  1
  Zn  Zn116  1  0.31074298  0.30669231  0.81156429  1
  Zn  Zn117  1  0.31287230  0.81471524  0.31226952  1
  Zn  Zn118  1  0.31207795  0.80896781  0.81481659  1
  Zn  Zn119  1  0.80959609  0.31171321  0.30465904  1
  Zn  Zn120  1  0.80959586  0.31622471  0.81896004  1
  Zn  Zn121  1  0.80948178  0.82314647  0.31323175  1
  Zn  Zn122  1  0.81560945  0.81777055  0.80745671  1
  Zn  Zn123  1  0.18995884  0.43582007  0.43744920  1
  Zn  Zn124  1  0.18984425  0.44085232  0.94027465  1
  Zn  Zn125  1  0.18791280  0.93750535  0.43730319  1
  Zn  Zn126  1  0.18895324  0.93636640  0.93559286  1
  Zn  Zn127  1  0.68215000  0.44075747  0.43216561  1
  Zn  Zn128  1  0.68495961  0.43748905  0.93558027  1
  Zn  Zn129  1  0.68938283  0.93933878  0.43615401  1
  Zn  Zn130  1  0.68984761  0.93721779  0.93394968  1
  Zn  Zn131  1  0.30830884  0.05958706  0.06316160  1
  Zn  Zn132  1  0.30852841  0.06520186  0.56622411  1
  Zn  Zn133  1  0.31480542  0.56122656  0.06659023  1
  Zn  Zn134  1  0.31306104  0.56061806  0.56873525  1
  Zn  Zn135  1  0.81266052  0.06064468  0.06080864  1
  Zn  Zn136  1  0.81019454  0.06887560  0.56118512  1
  Zn  Zn137  1  0.81239080  0.56061846  0.06861303  1
  Zn  Zn138  1  0.81136342  0.56301711  0.56275379  1
  Zn  Zn139  1  0.44309139  0.43485480  0.17814031  1
  Zn  Zn140  1  0.43960976  0.43777212  0.68974735  1
  Zn  Zn141  1  0.43578698  0.93859447  0.18646263  1
  Zn  Zn142  1  0.43717805  0.93546897  0.69190097  1
  Zn  Zn143  1  0.93935278  0.44023420  0.18579980  1
  Zn  Zn144  1  0.93774457  0.43639515  0.68513705  1
  Zn  Zn145  1  0.93699556  0.93742210  0.18745695  1
  Zn  Zn146  1  0.93612194  0.94025129  0.68959816  1
  Zn  Zn147  1  0.06644012  0.06449130  0.31077926  1
  Zn  Zn148  1  0.06384163  0.06329164  0.81246112  1
  Zn  Zn149  1  0.07033867  0.55426826  0.31674361  1
  Zn  Zn150  1  0.06324777  0.56322414  0.81420183  1
  Zn  Zn151  1  0.56041259  0.06313652  0.30775108  1
  Zn  Zn152  1  0.56003117  0.06222275  0.81192075  1
  Zn  Zn153  1  0.56606749  0.56269116  0.31248078  1
  Zn  Zn154  1  0.56440132  0.55901040  0.81980922  1
  Zn  Zn155  1  0.43591041  0.18681841  0.43800074  1
  Zn  Zn156  1  0.43452080  0.19117749  0.93674790  1
  Zn  Zn157  1  0.44584597  0.69275829  0.44011395  1
  Zn  Zn158  1  0.44073015  0.68691233  0.93789799  1
  Zn  Zn159  1  0.93244297  0.20991796  0.43040328  1
  Zn  Zn160  1  0.93519716  0.18772760  0.93969496  1
  Zn  Zn161  1  0.93980172  0.69154094  0.46125365  1
  Zn  Zn162  1  0.93773788  0.68540897  0.93811248  1
  Zn  Zn163  1  0.05851240  0.31740509  0.06799729  1
  Zn  Zn164  1  0.06103528  0.31116263  0.56652103  1
  Zn  Zn165  1  0.06094860  0.81222947  0.06414749  1
  Zn  Zn166  1  0.06108510  0.81253422  0.56167574  1
  Zn  Zn167  1  0.55877543  0.31447314  0.06261276  1
  Zn  Zn168  1  0.56518946  0.31156832  0.56295984  1
  Zn  Zn169  1  0.56153850  0.80846062  0.06024931  1
  Zn  Zn170  1  0.56380620  0.81194104  0.56269242  1
  O  O171  1  0.11164839  0.12822817  0.11357024  1
  O  O172  1  0.11537175  0.11757595  0.62847916  1
  O  O173  1  0.12149122  0.61474816  0.13296777  1
  O  O174  1  0.12708222  0.61520844  0.61741287  1
  O  O175  1  0.61036995  0.11578313  0.12556734  1
  O  O176  1  0.61767654  0.12953892  0.61338859  1
  O  O177  1  0.62424419  0.62256374  0.11356540  1
  O  O178  1  0.62820809  0.61953633  0.61803253  1
  O  O179  1  0.37364618  0.36721737  0.39053916  1
  O  O180  1  0.36564712  0.36736220  0.89045795  1
  O  O181  1  0.38389116  0.87332156  0.38569159  1
  O  O182  1  0.38006938  0.87769741  0.88143578  1
  O  O183  1  0.85427908  0.30751805  0.40837977  1
  O  O184  1  0.87788686  0.38770156  0.88360340  1
  O  O185  1  0.88195319  0.87991043  0.38302556  1
  O  O186  1  0.88016761  0.88109052  0.88178759  1
  O  O187  1  0.25269871  -0.00118205  0.36589422  1
  O  O188  1  0.25501875  0.00492203  0.86599908  1
  O  O189  1  0.24730426  0.50840342  0.36597767  1
  O  O190  1  0.24502652  0.51147792  0.86460732  1
  O  O191  1  0.75113991  0.01360139  0.37001200  1
  O  O192  1  0.75481817  0.01154770  0.87033689  1
  O  O193  1  0.74621554  0.50250872  0.35943572  1
  O  O194  1  0.75892628  0.49838487  0.86240201  1
  O  O195  1  0.24398668  0.49436718  0.13252565  1
  O  O196  1  0.24135410  0.49114959  0.63284717  1
  O  O197  1  0.25295531  0.98469186  0.13251865  1
  O  O198  1  0.24334209  0.98734246  0.62922549  1
  O  O199  1  0.73751515  0.50409582  0.13699359  1
  O  O200  1  0.74412871  0.49455556  0.63210610  1
  O  O201  1  0.73933967  0.99305264  0.12343529  1
  O  O202  1  0.75451616  0.99586020  0.63504133  1
  O  O203  1  0.01025557  0.36806718  0.24239038  1
  O  O204  1  0.00743091  0.37036805  0.75195889  1
  O  O205  1  0.00796448  0.87719539  0.25865342  1
  O  O206  1  -0.00202986  0.86554934  0.75787796  1
  O  O207  1  0.50746708  0.36185493  0.24426868  1
  O  O208  1  0.50174295  0.35996670  0.74665583  1
  O  O209  1  0.50541047  0.86796003  0.25457583  1
  O  O210  1  0.50504656  0.86783718  0.75927305  1
  O  O211  1  0.49887176  0.13602192  0.24061692  1
  O  O212  1  0.49480965  0.13358599  0.74402087  1
  O  O213  1  0.50298542  0.64058127  0.24776386  1
  O  O214  1  0.49361287  0.63205423  0.75138954  1
  O  O215  1  0.99542699  0.13005688  0.24270822  1
  O  O216  1  0.99491287  0.13318295  0.74643257  1
  O  O217  1  1.00064250  0.62333575  0.24772738  1
  O  O218  1  0.99043184  0.63024791  0.74763503  1
  O  O219  1  0.37281708  0.25744821  0.01005499  1
  O  O220  1  0.37466231  0.25948555  0.51125813  1
  O  O221  1  0.37806119  0.76109427  0.00733864  1
  O  O222  1  0.37118516  0.75595902  0.50841572  1
  O  O223  1  0.87026490  0.26020611  0.00015268  1
  O  O224  1  0.86893403  0.22999309  0.52594590  1
  O  O225  1  0.88117321  0.76375010  0.00121166  1
  O  O226  1  0.87311373  0.76519435  0.51333116  1
  O  O227  1  0.12510419  0.25392237  0.48934459  1
  O  O228  1  0.11788695  0.24323473  0.99974161  1
  O  O229  1  0.12872318  0.74186419  0.49081002  1
  O  O230  1  0.12102225  0.74946680  0.98889502  1
  O  O231  1  0.62927278  0.24785673  0.48681382  1
  O  O232  1  0.63603857  0.25327440  1.00151872  1
  O  O233  1  0.62381739  0.74441363  0.49004319  1
  O  O234  1  0.62572788  0.74045657  0.99185896  1
  O  O235  1  0.49342506  0.23901058  0.12697914  1
  O  O236  1  0.49603214  0.24389775  0.63127515  1
  O  O237  1  0.48836603  0.75391784  0.13298840  1
  O  O238  1  0.49721236  0.75027083  0.63945728  1
  O  O239  1  0.99734671  0.24273989  0.13473005  1
  O  O240  1  0.99023716  0.24533667  0.63583455  1
  O  O241  1  1.00141290  0.73493993  0.12420919  1
  O  O242  1  0.99054127  0.74912014  0.63294636  1
  O  O243  1  0.01288446  0.24698157  0.35794201  1
  O  O244  1  -0.00670870  0.25284387  0.86248290  1
  O  O245  1  0.00289138  0.74772182  0.36702959  1
  O  O246  1  0.00695018  0.75188674  0.86847902  1
  O  O247  1  0.50400857  0.25212333  0.36404936  1
  O  O248  1  0.49319824  0.25157190  0.85850761  1
  O  O249  1  0.50949333  0.76161929  0.36713032  1
  O  O250  1  0.50638905  0.75708118  0.86559853  1
  O  O251  1  0.24428021  0.13095723  0.50108707  1
  O  O252  1  0.23073742  0.12407052  1.00470635  1
  O  O253  1  0.24350983  0.62593131  0.49587222  1
  O  O254  1  0.25650055  0.61905098  0.98482679  1
  O  O255  1  0.74565613  0.13862150  0.48811014  1
  O  O256  1  0.75360123  0.13404887  0.98810822  1
  O  O257  1  0.73977654  0.62185774  0.49389906  1
  O  O258  1  0.73968230  0.62624795  1.00368882  1
  O  O259  1  0.25678944  0.37902372  0.01180760  1
  O  O260  1  0.26057248  0.37346825  0.50918421  1
  O  O261  1  0.25713256  0.87639899  0.00800156  1
  O  O262  1  0.25709675  0.86681884  0.50445411  1
  O  O263  1  0.75627473  0.36092361  -0.00656484  1
  O  O264  1  0.74207493  0.36895851  0.50652220  1
  O  O265  1  0.75989132  0.88027609  0.00645009  1
  O  O266  1  0.75519716  0.88079185  0.51216879  1
  O  O267  1  0.13531034  0.49264346  0.24369237  1
  O  O268  1  0.13076998  0.49471822  0.74269680  1
  O  O269  1  0.13151046  0.98550137  0.25452437  1
  O  O270  1  0.13333823  0.99765833  0.74304304  1
  O  O271  1  0.63042127  0.49211681  0.24142496  1
  O  O272  1  0.63670459  0.50591479  0.74220376  1
  O  O273  1  0.62237816  0.98906992  0.24094964  1
  O  O274  1  0.63711281  0.99483156  0.75578677  1
  O  O275  1  0.36498718  -0.00097532  0.25327874  1
  O  O276  1  0.36940651  0.00024274  0.76247394  1
  O  O277  1  0.36659260  0.49842118  0.24175696  1
  O  O278  1  0.36469210  0.50863429  0.74340507  1
  O  O279  1  0.87486599  0.01389877  0.25305643  1
  O  O280  1  0.86463056  0.00433798  0.75894501  1
  O  O281  1  0.85816444  0.49070057  0.24728252  1
  O  O282  1  0.87221990  0.50694889  0.75520022  1
  O  O283  1  0.13239243  0.36948093  0.36056371  1
  O  O284  1  0.12564081  0.37961939  0.86403669  1
  O  O285  1  0.11632758  0.86620153  0.37286729  1
  O  O286  1  0.11982157  0.86517848  0.87205246  1
  O  O287  1  0.61998027  0.36588128  0.36467924  1
  O  O288  1  0.62464441  0.37418049  0.86829081  1
  O  O289  1  0.62147696  0.87235791  0.36788099  1
  O  O290  1  0.61856615  0.86913969  0.86978416  1
  O  O291  1  0.38285968  0.12865367  0.12376825  1
  O  O292  1  0.38513375  0.13316054  0.62685533  1
  O  O293  1  0.37748080  0.63450572  0.12920216  1
  O  O294  1  0.37659275  0.63102688  0.63711662  1
  O  O295  1  0.88428035  0.12554543  0.13017053  1
  O  O296  1  0.88026824  0.12757869  0.63780591  1
  O  O297  1  0.88565744  0.62673158  0.12639694  1
  O  O298  1  0.87553580  0.63594554  0.63129127  1
  O  O299  1  0.25689405  0.25874175  0.13079808  1
  O  O300  1  0.25902694  0.26237951  0.63011015  1
  O  O301  1  0.26274143  0.76016289  0.13261900  1
  O  O302  1  0.25332115  0.75415265  0.62101893  1
  O  O303  1  0.75167169  0.24115522  0.10655113  1
  O  O304  1  0.75516970  0.25996234  0.62315713  1
  O  O305  1  0.74910743  0.76502061  0.13052983  1
  O  O306  1  0.76259584  0.76383851  0.63693659  1
  O  O307  1  0.23775651  0.24761758  0.37217259  1
  O  O308  1  0.24272254  0.22105580  0.81968483  1
  O  O309  1  0.24342574  0.74442809  0.38088348  1
  O  O310  1  0.24021881  0.73698861  0.86928852  1
  O  O311  1  0.73157949  0.23881795  0.36898692  1
  O  O312  1  0.75345748  0.23715782  0.88410409  1
  O  O313  1  0.73829332  0.75043324  0.36726820  1
  O  O314  1  0.73929156  0.75733417  0.86707069  1
  O  O315  1  0.00655767  0.11949170  0.00617215  1
  O  O316  1  -0.00054262  0.13487730  0.51460581  1
  O  O317  1  -0.00319595  0.61266458  0.00773268  1
  O  O318  1  0.01479317  0.61753367  0.50443831  1
  O  O319  1  0.49728198  0.12752721  0.01030132  1
  O  O320  1  0.50989727  0.13056827  0.50853410  1
  O  O321  1  0.51145522  0.62627409  0.00157757  1
  O  O322  1  0.51328170  0.62643950  0.50552339  1
  O  O323  1  0.48681145  0.37547330  0.50142210  1
  O  O324  1  0.48347032  0.37241277  0.99761865  1
  O  O325  1  0.49187090  0.87001953  0.49255926  1
  O  O326  1  0.49266994  0.87054627  0.98763872  1
  O  O327  1  1.00116583  0.38707310  0.50483572  1
  O  O328  1  0.99281091  0.38694939  1.00076571  1
  O  O329  1  0.99153683  0.86863272  0.48815596  1
  O  O330  1  0.99459666  0.88171966  0.99648681  1
  O  O331  1  0.50013410  0.49779348  0.37374602  1
  O  O332  1  0.49446283  0.49397570  0.87509806  1
  O  O333  1  0.49916113  0.98568046  0.36869805  1
  O  O334  1  0.49035969  0.98976255  0.86936517  1
  O  O335  1  1.00403007  0.49872691  0.38923239  1
  O  O336  1  0.99523303  0.49931684  0.88402723  1
  O  O337  1  1.00106294  0.99113425  0.37529071  1
  O  O338  1  0.99483865  0.99385042  0.88031704  1
  O  O339  1  -0.00424298  0.00840753  0.11616924  1
  O  O340  1  0.00771690  0.01048069  0.63371079  1
  O  O341  1  0.00863409  0.50911312  0.12097012  1
  O  O342  1  0.01256617  0.50015424  0.62130436  1
  O  O343  1  0.50329224  0.01224836  0.12600667  1
  O  O344  1  0.49673559  0.01325574  0.63309652  1
  O  O345  1  0.51414374  0.50437402  0.11991078  1
  O  O346  1  0.51489217  0.50159723  0.62718926  1
  O  O347  1  0.24635454  0.38082603  0.24069103  1
  O  O348  1  0.24525069  0.38421724  0.74505772  1
  O  O349  1  0.24282818  0.88179948  0.24497445  1
  O  O350  1  0.25033739  0.88218969  0.74535188  1
  O  O351  1  0.73809685  0.38112229  0.25046901  1
  O  O352  1  0.75168345  0.38444121  0.74228307  1
  O  O353  1  0.74077507  0.88253682  0.24160990  1
  O  O354  1  0.74702054  0.88613983  0.74108192  1
  O  O355  1  0.24683640  0.10870725  0.24490204  1
  O  O356  1  0.26448467  0.10109857  0.72621330  1
  O  O357  1  0.25441065  0.61580933  0.25925659  1
  O  O358  1  0.25759194  0.61747935  0.75519081  1
  O  O359  1  0.75685083  0.12588181  0.25300718  1
  O  O360  1  0.75348090  0.12184688  0.75889921  1
  O  O361  1  0.74846870  0.61191638  0.25384173  1
  O  O362  1  0.76427153  0.61877154  0.74579873  1
  O  O363  1  0.37119983  0.12368699  0.36984587  1
  O  O364  1  0.37281461  0.11646081  0.87125144  1
  O  O365  1  0.36545686  0.63387869  0.37617723  1
  O  O366  1  0.36364781  0.63461922  0.86382767  1
  O  O367  1  0.86611091  0.12901963  0.36719803  1
  O  O368  1  0.86920588  0.11893062  0.87117873  1
  O  O369  1  0.88310787  0.64313559  0.36818102  1
  O  O370  1  0.87891461  0.61296611  0.86851823  1
  O  O371  1  0.13240533  0.38266825  0.13328971  1
  O  O372  1  0.13398989  0.38103785  0.63144173  1
  O  O373  1  0.13247685  0.86684886  0.13501482  1
  O  O374  1  0.12845020  0.87990776  0.62829836  1
  O  O375  1  0.62183567  0.38359561  0.13086563  1
  O  O376  1  0.63519221  0.38243903  0.62919635  1
  O  O377  1  0.62766702  0.88005865  0.12835249  1
  O  O378  1  0.63426497  0.87078926  0.63252098  1
  O  O379  1  0.11930729  0.25724937  0.25214239  1
  O  O380  1  0.10995221  0.26399483  0.73789093  1
  O  O381  1  0.13202705  0.75896987  0.26315478  1
  O  O382  1  0.11211454  0.74822112  0.75239801  1
  O  O383  1  0.61822610  0.25525217  0.25259173  1
  O  O384  1  0.61146778  0.24755115  0.74465587  1
  O  O385  1  0.61881815  0.76242449  0.25322308  1
  O  O386  1  0.61897729  0.75354928  0.75683449  1
  O  O387  1  0.38205904  0.24901346  0.23638073  1
  O  O388  1  0.38736820  0.24657892  0.73703011  1
  O  O389  1  0.38348648  0.75124174  0.24387547  1
  O  O390  1  0.38291011  0.74434245  0.74640506  1
  O  O391  1  0.88200067  0.24164676  0.24406469  1
  O  O392  1  0.87730462  0.24682075  0.74553695  1
  O  O393  1  0.88059087  0.75530879  0.24713175  1
  O  O394  1  0.88475848  0.74384163  0.74818128  1
  O  O395  1  0.37737777  0.48579814  0.50818584  1
  O  O396  1  0.37625090  0.48369850  1.00752917  1
  O  O397  1  0.37003658  0.98680439  0.50173935  1
  O  O398  1  0.36841203  0.98983286  0.98812530  1
  O  O399  1  0.89171434  0.50616034  0.50543834  1
  O  O400  1  0.87844826  0.49573220  0.99419213  1
  O  O401  1  0.87195679  0.98981889  0.50089381  1
  O  O402  1  0.88389584  0.99200884  0.99464255  1
  O  O403  1  0.11271571  -0.00117484  -0.00228681  1
  O  O404  1  0.12751756  -0.00060807  0.51501744  1
  O  O405  1  0.11689955  0.49509919  0.01171941  1
  O  O406  1  0.12290597  0.50419572  0.50671133  1
  O  O407  1  0.62217222  -0.00674626  0.00782605  1
  O  O408  1  0.63142375  0.01688837  0.49627950  1
  O  O409  1  0.62889226  0.51192287  0.00548167  1
  O  O410  1  0.62355479  0.50781056  0.50809572  1
  O  O411  1  0.36775001  0.36616796  0.11668496  1
  O  O412  1  0.37043115  0.36983516  0.61968061  1
  O  O413  1  0.36879933  0.87096200  0.11629905  1
  O  O414  1  0.37031447  0.86896960  0.62050842  1
  O  O415  1  0.87682679  0.37574140  0.11105310  1
  O  O416  1  0.86283620  0.36754761  0.62801104  1
  O  O417  1  0.86607171  0.87476759  0.11788826  1
  O  O418  1  0.87044315  0.87230645  0.62077616  1
  O  O419  1  0.12735799  0.13405247  0.37809031  1
  O  O420  1  0.12087271  0.12227257  0.89400228  1
  O  O421  1  0.13476809  0.63084826  0.38128985  1
  O  O422  1  0.13875284  0.63144686  0.87048926  1
  O  O423  1  0.62714483  0.13050068  0.37774071  1
  O  O424  1  0.63746307  0.12269534  0.87399801  1
  O  O425  1  0.62706744  0.63682385  0.38165705  1
  O  O426  1  0.62737996  0.63368032  0.88702105  1
