# generated using pymatgen
data_V85Zn86O256
_symmetry_space_group_name_H-M   'P 1'
_cell_length_a   16.94327057
_cell_length_b   16.95036050
_cell_length_c   16.94582035
_cell_angle_alpha   90.08898976
_cell_angle_beta   90.05147918
_cell_angle_gamma   89.98102993
_symmetry_Int_Tables_number   1
_chemical_formula_structural   V85Zn86O256
_chemical_formula_sum   'V85 Zn86 O256'
_cell_volume   4866.73905293
_cell_formula_units_Z   1
loop_
 _symmetry_equiv_pos_site_id
 _symmetry_equiv_pos_as_xyz
  1  'x, y, z'
loop_
 _atom_site_type_symbol
 _atom_site_label
 _atom_site_symmetry_multiplicity
 _atom_site_fract_x
 _atom_site_fract_y
 _atom_site_fract_z
 _atom_site_occupancy
  V  V0  1  0.62390702  -0.00535469  0.61514577  1
  V  V1  1  0.12725443  0.36457003  0.24691141  1
  V  V2  1  0.62076789  0.49964260  0.62916767  1
  V  V3  1  0.87396907  0.62834483  0.75151659  1
  V  V4  1  0.88187522  0.50117670  0.36614351  1
  V  V5  1  0.75037703  0.61354113  0.37427547  1
  V  V6  1  0.25826202  0.49549745  0.76596805  1
  V  V7  1  -0.00077850  0.00332292  0.00739398  1
  V  V8  1  -0.00129250  0.63206888  0.62809345  1
  V  V9  1  0.63252882  0.87570984  0.74498394  1
  V  V10  1  0.62691138  0.75016704  0.37608955  1
  V  V11  1  0.45509832  0.56994727  0.07140759  1
  V  V12  1  0.25513597  -0.00770240  0.24549756  1
  V  V13  1  0.00153883  -0.00698104  0.49524525  1
  V  V14  1  0.87335110  0.75826966  0.62957788  1
  V  V15  1  0.25300653  0.25193627  -0.00297010  1
  V  V16  1  0.87514760  0.87492013  -0.00159202  1
  V  V17  1  0.12435777  0.49724234  0.12946444  1
  V  V18  1  0.88030200  0.12315465  0.24446369  1
  V  V19  1  0.00206203  0.12718932  0.62528878  1
  V  V20  1  0.12619742  0.62577684  -0.00316505  1
  V  V21  1  0.62128884  0.62024379  0.50267600  1
  V  V22  1  0.75183156  0.38210929  0.62161165  1
  V  V23  1  0.37433098  0.76221744  0.12623559  1
  V  V24  1  0.75476675  0.37946047  0.13132997  1
  V  V25  1  0.62636980  0.62078734  -0.00079174  1
  V  V26  1  0.87754614  0.75223084  0.12533273  1
  V  V27  1  0.50393328  0.13029157  0.12706288  1
  V  V28  1  0.11509616  0.25156532  0.87621859  1
  V  V29  1  0.60861913  0.25301896  0.36667458  1
  V  V30  1  0.24717613  0.75892490  0.00406465  1
  V  V31  1  0.61622440  0.12621642  0.49986058  1
  V  V32  1  0.49618028  0.38416147  0.88997273  1
  V  V33  1  0.87907994  0.24905478  0.62099220  1
  V  V34  1  0.12922240  0.00017427  0.62529190  1
  V  V35  1  -0.00635025  0.49563736  -0.01210445  1
  V  V36  1  0.74349103  0.87904470  0.12319237  1
  V  V37  1  0.37602605  0.25394975  0.12160561  1
  V  V38  1  0.25451292  0.86229232  0.62106427  1
  V  V39  1  0.50156202  0.74538265  0.24507273  1
  V  V40  1  0.74975983  0.75395307  0.50389534  1
  V  V41  1  0.12311678  0.87132421  0.74660305  1
  V  V42  1  0.00862283  0.36308154  0.37282661  1
  V  V43  1  0.13156944  0.74830732  0.87058505  1
  V  V44  1  0.62386058  0.87763590  0.24842548  1
  V  V45  1  0.13757653  0.63448652  0.50046248  1
  V  V46  1  0.88245898  0.24845633  0.12227938  1
  V  V47  1  0.62820355  0.12014227  0.00519805  1
  V  V48  1  0.36832333  0.25533078  0.61744882  1
  V  V49  1  0.87638189  -0.00507023  0.37320871  1
  V  V50  1  0.00125567  0.86910632  0.87122484  1
  V  V51  1  0.49917181  0.87690387  0.87321788  1
  V  V52  1  0.74820479  0.25115960  0.00195608  1
  V  V53  1  0.37805418  0.00406107  0.38632858  1
  V  V54  1  0.36953585  0.62654799  0.76627016  1
  V  V55  1  0.00079327  0.62638756  0.12854929  1
  V  V56  1  0.87537421  0.00075270  0.87008077  1
  V  V57  1  0.11519339  0.38105392  0.75711882  1
  V  V58  1  0.74745677  0.25221877  0.49454804  1
  V  V59  1  0.74481157  0.00149151  0.24759437  1
  V  V60  1  0.49545070  0.24897117  0.75093107  1
  V  V61  1  0.87366803  0.62582813  0.25016743  1
  V  V62  1  0.37572455  0.00353701  0.87258445  1
  V  V63  1  0.13167207  -0.00796414  0.12308577  1
  V  V64  1  0.62582390  0.37720089  0.75290405  1
  V  V65  1  0.36764496  0.62145706  0.26202186  1
  V  V66  1  0.12298513  0.12612072  0.00576578  1
  V  V67  1  0.87244451  0.87568511  0.50018194  1
  V  V68  1  0.63949863  0.50910592  0.13443360  1
  V  V69  1  0.37334848  0.86059349  0.50269651  1
  V  V70  1  0.62295023  0.24679665  0.87685031  1
  V  V71  1  0.80766036  0.45556766  0.80873839  1
  V  V72  1  -0.00049878  0.75660724  0.26342612  1
  V  V73  1  0.62377760  0.74981940  0.87264076  1
  V  V74  1  0.00558752  0.50490711  0.49840823  1
  V  V75  1  0.49528756  0.75075540  0.74216404  1
  V  V76  1  0.50144369  0.88011318  0.38181403  1
  V  V77  1  0.75019948  0.75034866  -0.00101827  1
  V  V78  1  0.12794493  0.12872520  0.49174908  1
  V  V79  1  0.37834405  0.12610126  0.24819602  1
  V  V80  1  0.14159048  0.75678801  0.37931898  1
  V  V81  1  0.48831987  0.62156502  0.62230446  1
  V  V82  1  0.50346579  -0.00231547  0.00617024  1
  V  V83  1  0.75095460  0.62301766  0.86924027  1
  V  V84  1  0.87843576  0.37646872  0.49756429  1
  Zn  Zn85  1  0.36866465  0.88088126  0.00258994  1
  Zn  Zn86  1  0.12406004  0.87688475  0.25257511  1
  Zn  Zn87  1  -0.00079988  0.25298909  0.75155230  1
  Zn  Zn88  1  0.25243016  0.37841899  0.12459153  1
  Zn  Zn89  1  0.28869880  0.46924012  0.29567957  1
  Zn  Zn90  1  0.00402610  0.24031702  0.24734850  1
  Zn  Zn91  1  0.12611411  0.50615713  0.63227994  1
  Zn  Zn92  1  0.24724904  0.12388328  0.87235931  1
  Zn  Zn93  1  0.87357311  0.12180803  0.74582987  1
  Zn  Zn94  1  0.75017720  0.12097756  0.87166275  1
  Zn  Zn95  1  0.75192627  0.00101413  0.74148619  1
  Zn  Zn96  1  0.24877170  0.26301702  0.48722486  1
  Zn  Zn97  1  0.41251384  0.42370571  0.45222180  1
  Zn  Zn98  1  0.36935417  0.12613412  0.74702908  1
  Zn  Zn99  1  0.25166468  0.00030512  0.75022838  1
  Zn  Zn100  1  0.25667455  0.38858308  0.61874848  1
  Zn  Zn101  1  0.24363388  0.12592910  0.36783979  1
  Zn  Zn102  1  0.49599933  0.12253710  0.62307833  1
  Zn  Zn103  1  0.37307442  0.39356208  -0.00142051  1
  Zn  Zn104  1  0.74941780  0.12604764  0.37466744  1
  Zn  Zn105  1  0.62926626  0.38182560  0.25964494  1
  Zn  Zn106  1  0.87479113  0.37789745  -0.01445562  1
  Zn  Zn107  1  0.19094371  0.18305078  0.18380753  1
  Zn  Zn108  1  0.18817458  0.18897732  0.69012084  1
  Zn  Zn109  1  0.18684483  0.69130767  0.18946029  1
  Zn  Zn110  1  0.19107225  0.68543750  0.69021295  1
  Zn  Zn111  1  0.69196132  0.18756987  0.18611494  1
  Zn  Zn112  1  0.68841770  0.18528474  0.68530155  1
  Zn  Zn113  1  0.69128344  0.69020895  0.18935998  1
  Zn  Zn114  1  0.68835312  0.68644637  0.68657293  1
  Zn  Zn115  1  0.31215574  0.30169289  0.31113095  1
  Zn  Zn116  1  0.31305547  0.31382546  0.81607546  1
  Zn  Zn117  1  0.31665415  0.81479053  0.31209068  1
  Zn  Zn118  1  0.31053179  0.81526992  0.81168539  1
  Zn  Zn119  1  0.81508502  0.31338282  0.31087306  1
  Zn  Zn120  1  0.80947982  0.29217032  0.80759131  1
  Zn  Zn121  1  0.81119609  0.81173918  0.31462089  1
  Zn  Zn122  1  0.81210420  0.81123764  0.81142389  1
  Zn  Zn123  1  0.22372735  0.45505140  0.45768983  1
  Zn  Zn124  1  0.18562758  0.43750478  0.93969219  1
  Zn  Zn125  1  0.19325712  0.93799293  0.43684541  1
  Zn  Zn126  1  0.18791285  0.93815789  0.93578367  1
  Zn  Zn127  1  0.58180271  0.43594805  0.43788294  1
  Zn  Zn128  1  0.67962531  0.43169957  0.94919188  1
  Zn  Zn129  1  0.68942866  0.93882388  0.43727335  1
  Zn  Zn130  1  0.68661354  0.93805636  0.93415726  1
  Zn  Zn131  1  0.31258365  0.06459792  0.06004358  1
  Zn  Zn132  1  0.31137492  0.06460465  0.56532715  1
  Zn  Zn133  1  0.29452132  0.57517682  0.07365987  1
  Zn  Zn134  1  0.31051272  0.56247446  0.57206884  1
  Zn  Zn135  1  0.81305302  0.06200954  0.06240805  1
  Zn  Zn136  1  0.80698731  0.06319104  0.56109378  1
  Zn  Zn137  1  0.81518583  0.56484715  0.05816514  1
  Zn  Zn138  1  0.81390738  0.56328728  0.56002625  1
  Zn  Zn139  1  0.45545491  0.42946889  0.27970167  1
  Zn  Zn140  1  0.43841210  0.43605742  0.69051204  1
  Zn  Zn141  1  0.44169263  0.94048277  0.18956134  1
  Zn  Zn142  1  0.44036578  0.93921019  0.68352802  1
  Zn  Zn143  1  0.94307350  0.43561547  0.18568864  1
  Zn  Zn144  1  0.94612042  0.43733580  0.68288164  1
  Zn  Zn145  1  0.93735447  0.93617165  0.18664013  1
  Zn  Zn146  1  0.94165265  0.93621242  0.68559542  1
  Zn  Zn147  1  0.06018095  0.05599902  0.31013966  1
  Zn  Zn148  1  0.06234763  0.06193808  0.81333499  1
  Zn  Zn149  1  0.10551569  0.54099448  0.33450631  1
  Zn  Zn150  1  0.06145989  0.56768543  0.81143753  1
  Zn  Zn151  1  0.56282993  0.06495488  0.31389928  1
  Zn  Zn152  1  0.56273507  0.06169918  0.81063111  1
  Zn  Zn153  1  0.56185929  0.56795842  0.31001765  1
  Zn  Zn154  1  0.56187479  0.56266343  0.80974674  1
  Zn  Zn155  1  0.43395905  0.19314968  0.43649799  1
  Zn  Zn156  1  0.44042590  0.18592579  0.93849408  1
  Zn  Zn157  1  0.43978924  0.68577543  0.43450596  1
  Zn  Zn158  1  0.43440348  0.69733715  0.93470731  1
  Zn  Zn159  1  0.93699109  0.18015991  0.43818206  1
  Zn  Zn160  1  0.93679692  0.18421844  0.93919053  1
  Zn  Zn161  1  0.93898818  0.68828553  0.44004008  1
  Zn  Zn162  1  0.94119290  0.68653415  0.93566060  1
  Zn  Zn163  1  0.05987821  0.31542233  0.05805767  1
  Zn  Zn164  1  0.08803516  0.32798205  0.55248126  1
  Zn  Zn165  1  0.06152078  0.81443735  0.06207230  1
  Zn  Zn166  1  0.06039875  0.81260855  0.56226531  1
  Zn  Zn167  1  0.53232567  0.34834845  0.10555896  1
  Zn  Zn168  1  0.55698373  0.31036127  0.56405632  1
  Zn  Zn169  1  0.56177823  0.81073292  0.06177720  1
  Zn  Zn170  1  0.55989783  0.81096134  0.56195573  1
  O  O171  1  0.12667716  0.11440847  0.11144495  1
  O  O172  1  0.11953140  0.11745074  0.61801670  1
  O  O173  1  0.11668938  0.62065264  0.12134346  1
  O  O174  1  0.11534319  0.63317171  0.61772104  1
  O  O175  1  0.62029129  0.13021083  0.11381278  1
  O  O176  1  0.62143692  0.11834759  0.61611544  1
  O  O177  1  0.63840978  0.61889701  0.11590454  1
  O  O178  1  0.61795058  0.61750025  0.62158018  1
  O  O179  1  0.36851716  0.39307717  0.34751643  1
  O  O180  1  0.39122711  0.37358094  0.88081900  1
  O  O181  1  0.38274691  0.88214145  0.38178175  1
  O  O182  1  0.38206846  0.88491913  0.87631830  1
  O  O183  1  0.88326935  0.38440495  0.37836922  1
  O  O184  1  0.85921143  0.38260726  0.86480178  1
  O  O185  1  0.86880363  0.88719135  0.38131077  1
  O  O186  1  0.88298213  0.87775559  0.87797991  1
  O  O187  1  0.26060563  0.00512966  0.36602980  1
  O  O188  1  0.26194414  -0.00008361  0.87508806  1
  O  O189  1  0.21117546  0.50909418  0.36290774  1
  O  O190  1  0.24679040  0.50282937  0.86548531  1
  O  O191  1  0.75645582  0.00213054  0.36550527  1
  O  O192  1  0.76543398  -0.00293429  0.87417392  1
  O  O193  1  0.76626517  0.51311189  0.38015496  1
  O  O194  1  0.74314950  0.50450974  0.87668296  1
  O  O195  1  0.23031701  0.49852135  0.12426232  1
  O  O196  1  0.24180193  0.50372133  0.64859507  1
  O  O197  1  0.24343201  1.00266745  0.13023499  1
  O  O198  1  0.23746630  0.99380075  0.62393372  1
  O  O199  1  0.74811449  0.49657388  0.12171136  1
  O  O200  1  0.74595067  0.48808317  0.61871825  1
  O  O201  1  0.75621792  0.98937496  0.13340997  1
  O  O202  1  0.73167114  1.00270328  0.62487981  1
  O  O203  1  0.00093527  0.36632926  0.26015329  1
  O  O204  1  0.01060259  0.37619141  0.75668635  1
  O  O205  1  0.00421703  0.86174509  0.24214999  1
  O  O206  1  0.01339922  0.87707353  0.75652110  1
  O  O207  1  0.52505568  0.37199704  0.21661551  1
  O  O208  1  0.50709004  0.36516091  0.75983745  1
  O  O209  1  0.50621125  0.86877124  0.25770974  1
  O  O210  1  0.50632026  0.86664670  0.75223963  1
  O  O211  1  0.49488193  0.11515275  0.23525916  1
  O  O212  1  0.50167274  0.14052530  0.75203605  1
  O  O213  1  0.49334921  0.64108644  0.25251157  1
  O  O214  1  0.49096710  0.63095288  0.74531529  1
  O  O215  1  0.98581224  0.12237702  0.25200594  1
  O  O216  1  1.00072760  0.12536359  0.73522308  1
  O  O217  1  0.99327129  0.63800992  0.23668501  1
  O  O218  1  0.99217478  0.62171179  0.73627435  1
  O  O219  1  0.36492832  0.24373879  0.00394231  1
  O  O220  1  0.37144348  0.25237618  0.51292074  1
  O  O221  1  0.36611729  0.75370161  0.00736729  1
  O  O222  1  0.37911782  0.76126781  0.49668292  1
  O  O223  1  0.86487124  0.25017145  0.00290637  1
  O  O224  1  0.87043999  0.25198127  0.50731174  1
  O  O225  1  0.87070059  0.75590786  0.00308996  1
  O  O226  1  0.86744723  0.75511206  0.50546059  1
  O  O227  1  0.11448256  0.22780372  0.50052370  1
  O  O228  1  0.12923403  0.24403409  0.99616915  1
  O  O229  1  0.12071764  0.74540487  0.49045926  1
  O  O230  1  0.12895973  0.74578261  0.99567503  1
  O  O231  1  0.63115947  0.24527707  0.49176128  1
  O  O232  1  0.63793553  0.24148076  0.99286246  1
  O  O233  1  0.63171766  0.74081645  0.49852215  1
  O  O234  1  0.62947078  0.74058544  0.99511528  1
  O  O235  1  0.49112485  0.23561106  0.11180436  1
  O  O236  1  0.48908346  0.24872573  0.63499793  1
  O  O237  1  0.49236973  0.75539071  0.13424531  1
  O  O238  1  0.50476202  0.74059031  0.63701925  1
  O  O239  1  0.98539582  0.25250275  0.12097893  1
  O  O240  1  0.99366263  0.24231871  0.62169765  1
  O  O241  1  0.99539659  0.74395394  0.12760584  1
  O  O242  1  0.98646433  0.74323093  0.61923778  1
  O  O243  1  -0.00940190  0.26118047  0.37509190  1
  O  O244  1  0.01081459  0.24653778  0.87481995  1
  O  O245  1  0.00056966  0.75002698  0.36575515  1
  O  O246  1  0.01047898  0.76388396  0.88137629  1
  O  O247  1  0.50930659  0.25275709  0.37143348  1
  O  O248  1  0.50774448  0.25670742  0.87240926  1
  O  O249  1  0.50866257  0.75829042  0.36755483  1
  O  O250  1  0.50561485  0.75652630  0.86458799  1
  O  O251  1  0.23285695  0.12289814  0.50112809  1
  O  O252  1  0.24066111  0.13222196  0.99543107  1
  O  O253  1  0.23522733  0.63193006  0.51111174  1
  O  O254  1  0.23275531  0.63726398  1.00145530  1
  O  O255  1  0.73872754  0.13588548  0.49989378  1
  O  O256  1  0.74361428  0.12928115  0.99786692  1
  O  O257  1  0.74481341  0.63360036  0.49383388  1
  O  O258  1  0.74552102  0.63208741  0.99052088  1
  O  O259  1  0.25551140  0.36916697  0.00301152  1
  O  O260  1  0.20071634  0.36242683  0.51836280  1
  O  O261  1  0.24866929  0.86371535  -0.00021612  1
  O  O262  1  0.26069916  0.87782633  0.50852846  1
  O  O263  1  0.75599797  0.36610618  0.00704941  1
  O  O264  1  0.76272801  0.36653470  0.50898014  1
  O  O265  1  0.75290848  0.87116615  0.00556776  1
  O  O266  1  0.75364360  0.86158783  0.49579691  1
  O  O267  1  0.10645926  0.48114010  0.23640741  1
  O  O268  1  0.13111945  0.49260168  0.75828336  1
  O  O269  1  0.13312493  0.99952926  0.24048211  1
  O  O270  1  0.12419815  0.99161042  0.74116433  1
  O  O271  1  0.63465944  0.50887974  0.23653985  1
  O  O272  1  0.62530651  0.49441483  0.73795908  1
  O  O273  1  0.63767920  0.99554818  0.25411638  1
  O  O274  1  0.62671583  0.99079661  0.74260615  1
  O  O275  1  0.37112935  0.00653112  0.25456488  1
  O  O276  1  0.37730694  0.00242446  0.75843538  1
  O  O277  1  0.37895455  0.51899746  0.23920437  1
  O  O278  1  0.36524891  0.50855866  0.75211343  1
  O  O279  1  0.86823485  0.00217269  0.25474338  1
  O  O280  1  0.87416905  -0.00221046  0.75601256  1
  O  O281  1  0.88534592  0.50587591  0.26052278  1
  O  O282  1  0.87434084  0.50738813  0.74546643  1
  O  O283  1  0.10963839  0.37039399  0.36347592  1
  O  O284  1  0.12863032  0.36630621  0.86703960  1
  O  O285  1  0.12771266  0.86164974  0.37612296  1
  O  O286  1  0.11944770  0.87144250  0.86675512  1
  O  O287  1  0.63639097  0.35591832  0.37425999  1
  O  O288  1  0.61868053  0.36340899  0.87585326  1
  O  O289  1  0.61927260  0.87089776  0.37096720  1
  O  O290  1  0.61882660  0.87011409  0.86557761  1
  O  O291  1  0.38413903  0.12839082  0.12876378  1
  O  O292  1  0.37762662  0.13657322  0.62663267  1
  O  O293  1  0.38783578  0.63362906  0.12468189  1
  O  O294  1  0.38569256  0.62201453  0.63590800  1
  O  O295  1  0.86906680  0.13410651  0.13234360  1
  O  O296  1  0.88315526  0.13128616  0.62050349  1
  O  O297  1  0.88051191  0.63219666  0.12880568  1
  O  O298  1  0.87850285  0.63213388  0.63297216  1
  O  O299  1  0.25702523  0.24826870  0.11172118  1
  O  O300  1  0.26279616  0.25087099  0.62570305  1
  O  O301  1  0.26009607  0.74585077  0.11703969  1
  O  O302  1  0.24830176  0.76350453  0.62923654  1
  O  O303  1  0.75632586  0.25832589  0.11728017  1
  O  O304  1  0.75612923  0.26011400  0.61728172  1
  O  O305  1  0.75774948  0.75859097  0.11914098  1
  O  O306  1  0.75917241  0.74364342  0.61475332  1
  O  O307  1  0.25567464  0.23664322  0.37876416  1
  O  O308  1  0.24096729  0.24949663  0.88498056  1
  O  O309  1  0.23985715  0.75122177  0.37205436  1
  O  O310  1  0.23824143  0.75576926  0.88337090  1
  O  O311  1  0.75705984  0.24807028  0.38814888  1
  O  O312  1  0.74025198  0.24493785  0.88298051  1
  O  O313  1  0.74448148  0.74247708  0.38327872  1
  O  O314  1  0.74282292  0.74501081  0.87999206  1
  O  O315  1  0.00785253  0.11312245  -0.00453391  1
  O  O316  1  0.00520531  0.11223721  0.50818251  1
  O  O317  1  0.00678889  0.62204128  0.00960865  1
  O  O318  1  0.00019452  0.62042352  0.51095172  1
  O  O319  1  0.50943467  0.11717329  0.00566745  1
  O  O320  1  0.51258214  0.13277155  0.49976038  1
  O  O321  1  0.50594937  0.62918064  0.00176371  1
  O  O322  1  0.50870554  0.63082216  0.50998730  1
  O  O323  1  0.50391341  0.38418018  0.50183995  1
  O  O324  1  0.49787348  0.37469378  0.99400820  1
  O  O325  1  0.49502379  0.87200316  0.48860186  1
  O  O326  1  0.50146063  0.88252107  0.99270921  1
  O  O327  1  1.00138407  0.38316684  0.48996751  1
  O  O328  1  0.99535767  0.39051650  0.99770544  1
  O  O329  1  0.99161070  0.88726784  0.50545852  1
  O  O330  1  0.99548649  0.88269758  0.99130603  1
  O  O331  1  0.50899153  0.48842187  0.36634154  1
  O  O332  1  0.51128523  0.48138095  0.87367877  1
  O  O333  1  0.49260966  0.98955027  0.36817934  1
  O  O334  1  0.49586530  0.99590755  0.88294459  1
  O  O335  1  1.00023184  0.49337301  0.38207058  1
  O  O336  1  1.00197600  0.50889622  0.89015688  1
  O  O337  1  0.99038076  0.99929973  0.38333954  1
  O  O338  1  0.99223450  0.98981791  0.88046611  1
  O  O339  1  0.00526161  -0.00444929  0.11209789  1
  O  O340  1  0.01038019  0.00530348  0.61804064  1
  O  O341  1  0.00452260  0.50964898  0.11565832  1
  O  O342  1  0.00445591  0.50923597  0.61531478  1
  O  O343  1  0.49800765  0.00715075  0.11167820  1
  O  O344  1  0.51760199  0.00593116  0.62927404  1
  O  O345  1  0.51988575  0.51370096  0.12281645  1
  O  O346  1  0.50815391  0.50880627  0.63164062  1
  O  O347  1  0.23952892  0.37239224  0.24223106  1
  O  O348  1  0.24476251  0.38715967  0.75458636  1
  O  O349  1  0.24951420  0.88810070  0.25241462  1
  O  O350  1  0.24001180  0.87931111  0.74282626  1
  O  O351  1  0.74730646  0.37108611  0.23536479  1
  O  O352  1  0.74839806  0.38046913  0.74666002  1
  O  O353  1  0.74486129  0.88017909  0.24257271  1
  O  O354  1  0.73536964  0.87391245  0.75173849  1
  O  O355  1  0.26027921  0.11274300  0.24686907  1
  O  O356  1  0.25006763  0.11894570  0.75448740  1
  O  O357  1  0.26903631  0.63108120  0.24210439  1
  O  O358  1  0.26398988  0.61967398  0.75306719  1
  O  O359  1  0.75955485  0.11534108  0.24982371  1
  O  O360  1  0.75393494  0.12184495  0.75325554  1
  O  O361  1  0.76073307  0.63428724  0.26269419  1
  O  O362  1  0.75828793  0.62487006  0.75644371  1
  O  O363  1  0.38271363  0.11760802  0.36464575  1
  O  O364  1  0.37667260  0.11274886  0.87435855  1
  O  O365  1  0.37519187  0.62694845  0.36187368  1
  O  O366  1  0.38236394  0.62245427  0.86439271  1
  O  O367  1  0.87155759  0.11187993  0.36874524  1
  O  O368  1  0.87622429  0.11370704  0.87047877  1
  O  O369  1  0.87284975  0.61970400  0.37101754  1
  O  O370  1  0.87318603  0.63184160  0.85932020  1
  O  O371  1  0.12251444  0.38182976  0.12815565  1
  O  O372  1  0.12185042  0.38066676  0.65014924  1
  O  O373  1  0.12375168  0.88824761  0.12477207  1
  O  O374  1  0.12923458  0.87979350  0.62973121  1
  O  O375  1  0.64016100  0.39946886  0.11093706  1
  O  O376  1  0.63386242  0.38025093  0.63093642  1
  O  O377  1  0.63694912  0.87016459  0.12899480  1
  O  O378  1  0.61983282  0.88577201  0.62863233  1
  O  O379  1  0.12025354  0.25829356  0.23666944  1
  O  O380  1  0.12332560  0.26108154  0.75887444  1
  O  O381  1  0.11923944  0.74999411  0.26443650  1
  O  O382  1  0.12904628  0.75702858  0.75906356  1
  O  O383  1  0.63277888  0.24322347  0.26720234  1
  O  O384  1  0.62156910  0.25640857  0.75868211  1
  O  O385  1  0.61966224  0.75618339  0.25476677  1
  O  O386  1  0.61742518  0.75546259  0.75210723  1
  O  O387  1  0.37273479  0.23296078  0.23670175  1
  O  O388  1  0.38152603  0.24823104  0.74703980  1
  O  O389  1  0.38194110  0.74543334  0.24290836  1
  O  O390  1  0.38144758  0.73817623  0.75675515  1
  O  O391  1  0.87454374  0.23983238  0.24051005  1
  O  O392  1  0.88038538  0.24572300  0.73387310  1
  O  O393  1  0.88212457  0.74826998  0.24578776  1
  O  O394  1  0.87087868  0.74351218  0.73972826  1
  O  O395  1  0.32892169  0.47739540  0.50349921  1
  O  O396  1  0.38498536  0.51190684  1.02326976  1
  O  O397  1  0.37219995  0.99920598  0.48830392  1
  O  O398  1  0.38466578  0.99928100  0.99305374  1
  O  O399  1  0.88852784  0.49831823  0.49132272  1
  O  O400  1  0.88917192  0.50166474  0.99866452  1
  O  O401  1  0.87893271  0.99670230  0.49350890  1
  O  O402  1  0.88217350  0.99448096  0.99346633  1
  O  O403  1  0.11930271  0.00529616  0.00361271  1
  O  O404  1  0.11800728  0.00298365  0.50566149  1
  O  O405  1  0.11520780  0.50827296  0.00540677  1
  O  O406  1  0.11628111  0.51972199  0.50508917  1
  O  O407  1  0.61852992  0.00972620  -0.00584381  1
  O  O408  1  0.62732555  0.00773715  0.50729502  1
  O  O409  1  0.62920690  0.51686072  0.00709794  1
  O  O410  1  0.63025457  0.51423330  0.51204090  1
  O  O411  1  0.37705158  0.35742601  0.11845021  1
  O  O412  1  0.37192106  0.36027973  0.63459345  1
  O  O413  1  0.37859877  0.86566658  0.12452937  1
  O  O414  1  0.36747189  0.88214729  0.61463202  1
  O  O415  1  0.86922213  0.36862748  0.12238911  1
  O  O416  1  0.87289042  0.36929515  0.61894877  1
  O  O417  1  0.86654222  0.87072289  0.11752873  1
  O  O418  1  0.87674724  0.86544569  0.61978374  1
  O  O419  1  0.12196027  0.11462475  0.38848345  1
  O  O420  1  0.12449894  0.13113256  0.88516731  1
  O  O421  1  0.11668127  0.64175745  0.39350305  1
  O  O422  1  0.11587054  0.63821279  0.88408697  1
  O  O423  1  0.62738595  0.13520757  0.38192331  1
  O  O424  1  0.62376491  0.13320881  0.88409193  1
  O  O425  1  0.63277269  0.62917747  0.38364171  1
  O  O426  1  0.62791963  0.63069363  0.87990330  1
