# generated using pymatgen
data_V85Zn86O256
_symmetry_space_group_name_H-M   'P 1'
_cell_length_a   16.93793223
_cell_length_b   16.93420728
_cell_length_c   16.94640498
_cell_angle_alpha   90.00963166
_cell_angle_beta   89.90849857
_cell_angle_gamma   89.98457944
_symmetry_Int_Tables_number   1
_chemical_formula_structural   V85Zn86O256
_chemical_formula_sum   'V85 Zn86 O256'
_cell_volume   4860.73861358
_cell_formula_units_Z   1
loop_
 _symmetry_equiv_pos_site_id
 _symmetry_equiv_pos_as_xyz
  1  'x, y, z'
loop_
 _atom_site_type_symbol
 _atom_site_label
 _atom_site_symmetry_multiplicity
 _atom_site_fract_x
 _atom_site_fract_y
 _atom_site_fract_z
 _atom_site_occupancy
  V  V0  1  0.12583124  0.01049079  0.62172177  1
  V  V1  1  0.23949543  0.74696413  0.49502762  1
  V  V2  1  -0.00030909  0.62427468  0.62361519  1
  V  V3  1  0.25124493  0.37152620  0.62520325  1
  V  V4  1  0.00227173  0.62549317  0.12734354  1
  V  V5  1  0.86883894  0.25710490  0.12772874  1
  V  V6  1  0.50589982  0.87570528  0.87578137  1
  V  V7  1  0.01018676  0.37305469  0.37579560  1
  V  V8  1  0.75023200  0.37330667  0.62670558  1
  V  V9  1  0.50607388  0.62409420  0.11658773  1
  V  V10  1  0.49864739  0.37568164  0.36080134  1
  V  V11  1  0.61347600  0.36956341  0.75144577  1
  V  V12  1  0.49508970  0.62530242  0.63266688  1
  V  V13  1  0.12931192  0.36881321  0.75719587  1
  V  V14  1  0.62044193  0.25090390  0.36638787  1
  V  V15  1  0.00210534  0.49850788  -0.00106975  1
  V  V16  1  0.37655309  0.00387959  0.87612475  1
  V  V17  1  0.37208530  0.01355679  0.37013179  1
  V  V18  1  0.87541819  0.12127755  0.25034230  1
  V  V19  1  0.49943216  0.00704453  0.50465591  1
  V  V20  1  0.62425497  -0.00322428  0.13103790  1
  V  V21  1  0.62091471  0.24570184  0.87472673  1
  V  V22  1  0.50129808  0.87484809  0.36550449  1
  V  V23  1  0.01569167  0.76075590  0.25789769  1
  V  V24  1  0.12796365  0.12493198  0.48832451  1
  V  V25  1  0.39151401  0.12930894  0.74754461  1
  V  V26  1  0.74905302  0.73698638  -0.00394273  1
  V  V27  1  0.37374706  0.87514730  0.49614156  1
  V  V28  1  0.24939712  0.75034817  -0.00210207  1
  V  V29  1  0.00442939  0.24668268  0.25187328  1
  V  V30  1  0.24460863  0.25017299  0.49008472  1
  V  V31  1  0.74778352  -0.00902028  0.25330361  1
  V  V32  1  0.12591271  0.49803913  0.62579948  1
  V  V33  1  0.87325981  0.87472202  0.00239126  1
  V  V34  1  0.49776210  0.50130552  0.49711943  1
  V  V35  1  0.00143341  0.74721481  0.75572626  1
  V  V36  1  0.86957333  0.49706462  0.87593927  1
  V  V37  1  0.74615687  0.26125817  0.00290064  1
  V  V38  1  0.18551912  0.69104753  0.82682523  1
  V  V39  1  0.49955903  0.00191411  0.00484512  1
  V  V40  1  0.87308550  0.49824777  0.36684414  1
  V  V41  1  0.64317580  0.38659318  0.24568564  1
  V  V42  1  0.25427934  0.25066391  -0.00449586  1
  V  V43  1  0.87448984  0.75607340  0.62274633  1
  V  V44  1  0.25500184  0.49962312  0.24756433  1
  V  V45  1  0.12444671  -0.00175838  0.12977256  1
  V  V46  1  0.74789899  0.12580059  0.37451872  1
  V  V47  1  0.37675831  0.75101149  0.62757513  1
  V  V48  1  0.49681947  0.12605648  0.14057121  1
  V  V49  1  0.87524644  0.37434045  0.50021985  1
  V  V50  1  0.62380072  0.50059853  0.62495885  1
  V  V51  1  0.12736245  0.87796016  0.75246720  1
  V  V52  1  0.75148738  0.62184601  0.37468167  1
  V  V53  1  0.74008177  0.86636021  0.12985794  1
  V  V54  1  0.87316570  0.12788378  0.75973397  1
  V  V55  1  0.12768625  0.37157879  0.24486084  1
  V  V56  1  0.62649258  0.75240178  0.36249329  1
  V  V57  1  0.62814883  0.73506672  0.87678754  1
  V  V58  1  0.24889074  0.01578886  0.25537597  1
  V  V59  1  0.00209494  0.88003988  0.39468084  1
  V  V60  1  0.12577614  0.63048928  -0.00364094  1
  V  V61  1  0.00053356  0.36551922  0.87793757  1
  V  V62  1  0.74856848  -0.00169667  0.75374708  1
  V  V63  1  0.38745987  0.24669877  0.62714017  1
  V  V64  1  0.00478118  0.87104827  0.87790987  1
  V  V65  1  0.74706276  0.50166369  0.75314478  1
  V  V66  1  -0.00012005  0.50607253  0.49912614  1
  V  V67  1  0.75140926  0.75962546  0.49942260  1
  V  V68  1  0.86872728  0.00289969  0.88075706  1
  V  V69  1  0.25153864  0.00500192  0.74919026  1
  V  V70  1  0.24760578  0.87512271  0.13655654  1
  V  V71  1  0.36813538  0.50794730  0.87007740  1
  V  V72  1  0.62398024  0.62819521  0.49894602  1
  V  V73  1  0.49945666  0.49055163  -0.00268193  1
  V  V74  1  0.37363022  0.37601472  0.49966470  1
  V  V75  1  0.25736390  0.37381672  0.11603721  1
  V  V76  1  0.63419932  0.12428857  0.00223634  1
  V  V77  1  0.87128234  0.62441508  0.75506039  1
  V  V78  1  0.24307485  0.13038377  0.87348499  1
  V  V79  1  0.00343836  0.24599757  0.74504508  1
  V  V80  1  0.37808941  0.24728532  0.13789855  1
  V  V81  1  -0.05445107  0.06835357  0.56721732  1
  V  V82  1  0.87747654  0.75101982  0.12914510  1
  V  V83  1  0.00199517  0.00258259  0.00192687  1
  V  V84  1  0.37415685  0.74817327  0.12676694  1
  Zn  Zn85  1  0.37524530  0.50596076  0.37294779  1
  Zn  Zn86  1  0.24171034  0.63721116  0.36833624  1
  Zn  Zn87  1  0.25240157  0.51523129  0.75077615  1
  Zn  Zn88  1  0.74647149  0.87460562  0.62519379  1
  Zn  Zn89  1  0.25002545  0.88074968  0.62098913  1
  Zn  Zn90  1  0.61229891  0.13674284  0.50586154  1
  Zn  Zn91  1  0.74755037  0.25401066  0.49635832  1
  Zn  Zn92  1  0.12886991  0.49803298  0.11976579  1
  Zn  Zn93  1  0.87362326  -0.00863330  0.39018909  1
  Zn  Zn94  1  0.49874966  0.74943063  0.75272856  1
  Zn  Zn95  1  0.63965762  0.49375819  0.11177297  1
  Zn  Zn96  1  0.87789409  0.62225277  0.25131449  1
  Zn  Zn97  1  0.87211110  0.37573927  0.00488965  1
  Zn  Zn98  1  0.62533873  0.87253714  0.74715594  1
  Zn  Zn99  1  0.48841038  0.36584490  0.87831600  1
  Zn  Zn100  1  0.50523716  0.74951673  0.24440830  1
  Zn  Zn101  1  0.12464768  0.12931740  -0.00188318  1
  Zn  Zn102  1  0.37330392  0.87679905  0.00092354  1
  Zn  Zn103  1  0.87649889  0.24932211  0.62519596  1
  Zn  Zn104  1  0.37694487  0.62452483  0.25096642  1
  Zn  Zn105  1  0.00112135  0.12544601  0.12522626  1
  Zn  Zn106  1  0.61777682  0.00196729  0.63079206  1
  Zn  Zn107  1  0.18641579  0.18794797  0.18274050  1
  Zn  Zn108  1  0.19028260  0.18855042  0.68456402  1
  Zn  Zn109  1  0.18825893  0.68503773  0.18406068  1
  Zn  Zn110  1  0.18400736  0.69122547  0.65993851  1
  Zn  Zn111  1  0.68523153  0.18889498  0.18975843  1
  Zn  Zn112  1  0.68631703  0.18672680  0.69161001  1
  Zn  Zn113  1  0.70653631  0.65072205  0.17228082  1
  Zn  Zn114  1  0.68526110  0.68783237  0.68920256  1
  Zn  Zn115  1  0.31244993  0.31770479  0.31176871  1
  Zn  Zn116  1  0.31850207  0.31468516  0.81279009  1
  Zn  Zn117  1  0.31212379  0.81488467  0.31361794  1
  Zn  Zn118  1  0.32130038  0.82159917  0.80926617  1
  Zn  Zn119  1  0.81448644  0.31181970  0.31274410  1
  Zn  Zn120  1  0.80713715  0.31019295  0.81710053  1
  Zn  Zn121  1  0.81894574  0.81072468  0.31449659  1
  Zn  Zn122  1  0.81238306  0.81330742  0.81482308  1
  Zn  Zn123  1  0.16976669  0.47843233  0.42045236  1
  Zn  Zn124  1  0.19130893  0.43940154  0.93562655  1
  Zn  Zn125  1  0.18328523  0.93572385  0.43361157  1
  Zn  Zn126  1  0.18806063  0.93854726  0.93960953  1
  Zn  Zn127  1  0.68577937  0.43759480  0.43560813  1
  Zn  Zn128  1  0.68128230  0.43675042  0.93547626  1
  Zn  Zn129  1  0.68303007  0.93658942  0.43663033  1
  Zn  Zn130  1  0.68717276  0.93280839  0.94254898  1
  Zn  Zn131  1  0.31273823  0.06652727  0.06452534  1
  Zn  Zn132  1  0.31348566  0.06821845  0.56050899  1
  Zn  Zn133  1  0.31728120  0.56296838  0.05671770  1
  Zn  Zn134  1  0.31234853  0.56508760  0.56208202  1
  Zn  Zn135  1  0.81132083  0.06307745  0.06926092  1
  Zn  Zn136  1  0.77047886  0.08037800  0.57948966  1
  Zn  Zn137  1  0.81574977  0.55917744  0.06139121  1
  Zn  Zn138  1  0.81242977  0.56431080  0.56115121  1
  Zn  Zn139  1  0.43773093  0.43757491  0.18032186  1
  Zn  Zn140  1  0.43200669  0.44112226  0.69082696  1
  Zn  Zn141  1  0.43143249  0.93692081  0.18874315  1
  Zn  Zn142  1  0.43792488  0.93641691  0.68743672  1
  Zn  Zn143  1  0.94061465  0.43620665  0.18665406  1
  Zn  Zn144  1  0.93798156  0.43377121  0.69014250  1
  Zn  Zn145  1  0.93528226  0.93508753  0.19090868  1
  Zn  Zn146  1  0.93451239  0.93451381  0.69550903  1
  Zn  Zn147  1  0.06043849  0.05225104  0.31444175  1
  Zn  Zn148  1  0.05974623  0.06313314  0.81289597  1
  Zn  Zn149  1  0.06688313  0.56567196  0.30811693  1
  Zn  Zn150  1  0.05657870  0.55250318  0.80919781  1
  Zn  Zn151  1  0.56435691  0.05876453  0.31704233  1
  Zn  Zn152  1  0.56661587  0.06363819  0.81894299  1
  Zn  Zn153  1  0.56099371  0.56545870  0.30772360  1
  Zn  Zn154  1  0.55773215  0.55884486  0.81495726  1
  Zn  Zn155  1  0.43404052  0.19330087  0.43399076  1
  Zn  Zn156  1  0.43609555  0.18619720  0.94409984  1
  Zn  Zn157  1  0.43260650  0.68758490  0.43423502  1
  Zn  Zn158  1  0.43627789  0.68574230  0.93881623  1
  Zn  Zn159  1  0.93410587  0.19120564  0.43063991  1
  Zn  Zn160  1  0.93427381  0.18813180  0.93955676  1
  Zn  Zn161  1  0.93829097  0.69121979  0.43674401  1
  Zn  Zn162  1  0.93558225  0.68609322  0.93855889  1
  Zn  Zn163  1  0.06595914  0.30789227  0.06278325  1
  Zn  Zn164  1  0.06460993  0.31191090  0.56411845  1
  Zn  Zn165  1  0.06541775  0.81328193  0.06377993  1
  Zn  Zn166  1  0.06221462  0.81927377  0.56816089  1
  Zn  Zn167  1  0.56119320  0.31246108  0.06971240  1
  Zn  Zn168  1  0.56430271  0.31647221  0.55596577  1
  Zn  Zn169  1  0.56314116  0.80839914  0.05820733  1
  Zn  Zn170  1  0.56295591  0.81690008  0.55938352  1
  O  O171  1  0.12238299  0.11155980  0.12198856  1
  O  O172  1  0.12488424  0.11567073  0.62051690  1
  O  O173  1  0.11569658  0.62367503  0.11493417  1
  O  O174  1  0.10830576  0.61386100  0.62654774  1
  O  O175  1  0.61727206  0.11934332  0.12153994  1
  O  O176  1  0.65394139  0.11316026  0.61144784  1
  O  O177  1  0.60531542  0.63641176  0.12013282  1
  O  O178  1  0.61832286  0.61946826  0.61832339  1
  O  O179  1  0.38546019  0.37461929  0.38264641  1
  O  O180  1  0.37795051  0.39186997  0.86883849  1
  O  O181  1  0.38161337  0.88205431  0.38051419  1
  O  O182  1  0.38870705  0.88331617  0.87989252  1
  O  O183  1  0.88281289  0.38050723  0.38167006  1
  O  O184  1  0.88188219  0.38031309  0.87759927  1
  O  O185  1  0.89093976  0.87648515  0.37054392  1
  O  O186  1  0.88531548  0.88143652  0.88165972  1
  O  O187  1  0.25526188  -0.00442717  0.36145896  1
  O  O188  1  0.25733982  0.00611551  0.86914056  1
  O  O189  1  0.26097574  0.47686420  0.35210843  1
  O  O190  1  0.26133523  0.50373585  0.87249234  1
  O  O191  1  0.75334038  0.00406461  0.37046214  1
  O  O192  1  0.76261988  -0.00777317  0.87438635  1
  O  O193  1  0.76165626  0.50848957  0.38537467  1
  O  O194  1  0.76076758  0.49264740  0.86835266  1
  O  O195  1  0.25319029  0.49080470  0.12796192  1
  O  O196  1  0.24163366  0.49526828  0.62720972  1
  O  O197  1  0.24545679  0.99570987  0.13334893  1
  O  O198  1  0.24434931  1.00227265  0.63302778  1
  O  O199  1  0.73744560  0.54343612  0.13574959  1
  O  O200  1  0.74572583  0.49156531  0.63093028  1
  O  O201  1  0.74429807  0.98791272  0.13263021  1
  O  O202  1  0.75958713  0.98970160  0.64449760  1
  O  O203  1  0.00806985  0.36831758  0.25521849  1
  O  O204  1  0.00714935  0.36807418  0.75837347  1
  O  O205  1  0.00260423  0.86146976  0.24681317  1
  O  O206  1  0.00634608  0.86748117  0.75857607  1
  O  O207  1  0.50357639  0.38095032  0.25928338  1
  O  O208  1  0.51195671  0.37786633  0.74692337  1
  O  O209  1  0.49543296  0.87205650  0.26114944  1
  O  O210  1  0.50267111  0.87478556  0.76117352  1
  O  O211  1  0.50445353  0.11848421  0.23945226  1
  O  O212  1  0.49051278  0.11794832  0.75220226  1
  O  O213  1  0.49633519  0.62750958  0.23492690  1
  O  O214  1  0.50517220  0.62625361  0.73554199  1
  O  O215  1  0.99325517  0.12991901  0.25135256  1
  O  O216  1  0.98802611  0.13331124  0.75647625  1
  O  O217  1  1.00034127  0.63323147  0.24278815  1
  O  O218  1  0.99242601  0.62799730  0.74405141  1
  O  O219  1  0.36145461  0.24462514  0.01062517  1
  O  O220  1  0.36388743  0.25570358  0.50583841  1
  O  O221  1  0.36631485  0.75184429  0.00812971  1
  O  O222  1  0.37085479  0.76016911  0.50633326  1
  O  O223  1  0.86496235  0.24995063  0.00927990  1
  O  O224  1  0.87378673  0.26339635  0.50126017  1
  O  O225  1  0.87287544  0.75625327  0.00963591  1
  O  O226  1  0.86460354  0.74043826  0.51167120  1
  O  O227  1  0.13670492  0.24318322  0.50690734  1
  O  O228  1  0.14435349  0.24441251  1.00831689  1
  O  O229  1  0.14110614  0.75564335  0.51311462  1
  O  O230  1  0.12972640  0.73989814  0.99845360  1
  O  O231  1  0.62845190  0.25260885  0.48507265  1
  O  O232  1  0.63062695  0.24380422  1.00148795  1
  O  O233  1  0.63246148  0.74420081  0.49350238  1
  O  O234  1  0.63430827  0.75113153  0.98678119  1
  O  O235  1  0.48655085  0.24107497  0.12144717  1
  O  O236  1  0.48669258  0.25519610  0.61373453  1
  O  O237  1  0.49065417  0.74408043  0.12159967  1
  O  O238  1  0.49454893  0.74226645  0.62184222  1
  O  O239  1  0.99325781  0.24722197  0.13619050  1
  O  O240  1  0.99498989  0.25805859  0.64100140  1
  O  O241  1  0.99643450  0.74567200  0.13107184  1
  O  O242  1  0.99511642  0.74180909  0.63229022  1
  O  O243  1  -0.00473407  0.25938965  0.36085820  1
  O  O244  1  -0.00502464  0.26033824  0.86845603  1
  O  O245  1  -0.00256251  0.75760349  0.36391543  1
  O  O246  1  -0.00563655  0.75980409  0.86981195  1
  O  O247  1  0.50778043  0.26282354  0.37907451  1
  O  O248  1  0.51384306  0.25053289  0.88710960  1
  O  O249  1  0.50793098  0.75660938  0.37356692  1
  O  O250  1  0.50973363  0.75664773  0.87795255  1
  O  O251  1  0.24298612  0.14061024  0.50129566  1
  O  O252  1  0.25047854  0.12961288  0.98913464  1
  O  O253  1  0.25181584  0.64444092  0.50423883  1
  O  O254  1  0.24139402  0.63925891  1.00332280  1
  O  O255  1  0.75434822  0.13243929  0.48092135  1
  O  O256  1  0.73805775  0.13010149  1.00925754  1
  O  O257  1  0.74461509  0.63290191  0.49359366  1
  O  O258  1  0.76403869  0.63911313  0.99216104  1
  O  O259  1  0.24595364  0.36901744  0.00956731  1
  O  O260  1  0.25078148  0.36683498  0.51395393  1
  O  O261  1  0.24877308  0.86394562  0.00593704  1
  O  O262  1  0.26062918  0.87179065  0.49812293  1
  O  O263  1  0.74833836  0.36556380  0.00219166  1
  O  O264  1  0.75774264  0.37705906  0.50783655  1
  O  O265  1  0.75619132  0.86591806  0.01045621  1
  O  O266  1  0.74798048  0.86350245  0.50086523  1
  O  O267  1  0.13163688  0.48593353  0.24171657  1
  O  O268  1  0.12645217  0.49026249  0.74041448  1
  O  O269  1  0.13697154  1.00115566  0.24325621  1
  O  O270  1  0.13194999  0.99980615  0.74469243  1
  O  O271  1  0.62582568  0.48774348  0.25187494  1
  O  O272  1  0.63115646  0.49343423  0.74658557  1
  O  O273  1  0.63947574  1.00128894  0.24693158  1
  O  O274  1  0.63747502  1.00187922  0.75322143  1
  O  O275  1  0.35936494  -0.00226857  0.25593804  1
  O  O276  1  0.36820455  0.00682746  0.75344181  1
  O  O277  1  0.36828674  0.50118409  0.24634952  1
  O  O278  1  0.37014813  0.50504703  0.76053199  1
  O  O279  1  0.86311452  0.00729891  0.24634340  1
  O  O280  1  0.87191012  0.00590440  0.76319968  1
  O  O281  1  0.88273313  0.50036764  0.26343732  1
  O  O282  1  0.86812835  0.50306240  0.75648287  1
  O  O283  1  0.11357702  0.38236955  0.36811872  1
  O  O284  1  0.11726968  0.38136296  0.86438175  1
  O  O285  1  0.10358309  0.87759009  0.37794924  1
  O  O286  1  0.11199277  0.88377866  0.87002342  1
  O  O287  1  0.62004511  0.37148237  0.36510519  1
  O  O288  1  0.61945103  0.36680662  0.86555959  1
  O  O289  1  0.61384159  0.86527929  0.37863552  1
  O  O290  1  0.61427852  0.87126703  0.87660828  1
  O  O291  1  0.38299310  0.13538496  0.12507515  1
  O  O292  1  0.37147831  0.13477400  0.63496845  1
  O  O293  1  0.38166069  0.63407654  0.12455437  1
  O  O294  1  0.38442314  0.63613317  0.61858688  1
  O  O295  1  0.87662207  0.13264668  0.13725492  1
  O  O296  1  0.87850777  0.12469125  0.62887815  1
  O  O297  1  0.89035511  0.63325211  0.12395555  1
  O  O298  1  0.88291643  0.62729392  0.63546016  1
  O  O299  1  0.26068695  0.25383805  0.12022766  1
  O  O300  1  0.25810831  0.25771825  0.61926206  1
  O  O301  1  0.25341103  0.75706754  0.11807573  1
  O  O302  1  0.26036998  0.76024604  0.61411633  1
  O  O303  1  0.75824447  0.24476440  0.11859769  1
  O  O304  1  0.75314482  0.26397181  0.62496344  1
  O  O305  1  0.75851994  0.74939454  0.11992354  1
  O  O306  1  0.75716920  0.74874784  0.61869434  1
  O  O307  1  0.25088398  0.26099557  0.39178653  1
  O  O308  1  0.25667870  0.24186544  0.88144251  1
  O  O309  1  0.24934169  0.75423105  0.38907661  1
  O  O310  1  0.25336986  0.75474401  0.87889254  1
  O  O311  1  0.74324420  0.24254355  0.37191068  1
  O  O312  1  0.73596104  0.25284571  0.88896599  1
  O  O313  1  0.74577336  0.74643661  0.38348572  1
  O  O314  1  0.73722051  0.75512120  0.88162302  1
  O  O315  1  0.00031023  0.11400095  0.00123191  1
  O  O316  1  0.00174579  0.13088645  0.50638844  1
  O  O317  1  0.00666218  0.62174290  0.00581908  1
  O  O318  1  -0.00691438  0.61346502  0.50748740  1
  O  O319  1  0.50809355  0.11328226  0.00908113  1
  O  O320  1  0.49641320  0.11125660  0.49319563  1
  O  O321  1  0.49462363  0.61583139  0.01130988  1
  O  O322  1  0.50313002  0.61554557  0.50335086  1
  O  O323  1  0.49740161  0.38916987  0.49283222  1
  O  O324  1  0.49982685  0.38721027  1.00365479  1
  O  O325  1  0.48977576  0.88418146  0.49006007  1
  O  O326  1  0.50069118  0.88768901  0.99706391  1
  O  O327  1  0.99458496  0.37889033  0.49363519  1
  O  O328  1  1.00138167  0.37791858  0.99312859  1
  O  O329  1  0.99405107  0.86995545  0.49441477  1
  O  O330  1  0.99616653  0.88352828  0.99572911  1
  O  O331  1  0.49877339  0.49573863  0.38171631  1
  O  O332  1  0.49453753  0.49529785  0.88451194  1
  O  O333  1  0.49144183  0.99276912  0.37957239  1
  O  O334  1  0.49759956  0.99506924  0.88549519  1
  O  O335  1  0.99313043  0.49301027  0.38395227  1
  O  O336  1  0.98876299  0.48806873  0.87845921  1
  O  O337  1  0.99131333  0.98655649  0.37681578  1
  O  O338  1  0.99076571  0.99405363  0.88362356  1
  O  O339  1  0.00603454  -0.00144253  0.11931431  1
  O  O340  1  0.00168419  0.00270188  0.62556464  1
  O  O341  1  0.00149805  0.50828249  0.11752762  1
  O  O342  1  0.00256898  0.50453838  0.62135067  1
  O  O343  1  0.50386003  0.00271578  0.12239665  1
  O  O344  1  0.49697203  -0.00100232  0.60820072  1
  O  O345  1  0.50159878  0.50923766  0.11392283  1
  O  O346  1  0.50253645  0.50645015  0.61773421  1
  O  O347  1  0.24395379  0.37479043  0.23515126  1
  O  O348  1  0.24257768  0.37289376  0.74024565  1
  O  O349  1  0.25015212  0.87980850  0.23864251  1
  O  O350  1  0.24636017  0.89030065  0.75030928  1
  O  O351  1  0.74210859  0.37900482  0.25361788  1
  O  O352  1  0.74441787  0.38389809  0.74397869  1
  O  O353  1  0.75582254  0.87918678  0.24222918  1
  O  O354  1  0.74825645  0.88435494  0.75266592  1
  O  O355  1  0.24746698  0.11426267  0.24884627  1
  O  O356  1  0.25495528  0.11760777  0.75560768  1
  O  O357  1  0.24970264  0.61238920  0.24695244  1
  O  O358  1  0.23299449  0.63474448  0.75220700  1
  O  O359  1  0.75521652  0.11766783  0.25772032  1
  O  O360  1  0.76532343  0.11664333  0.74880543  1
  O  O361  1  0.76018711  0.63570850  0.27223475  1
  O  O362  1  0.75642799  0.61024184  0.74414652  1
  O  O363  1  0.37635419  0.11305589  0.37601491  1
  O  O364  1  0.36912214  0.12058224  0.86744945  1
  O  O365  1  0.36374796  0.62343493  0.37004847  1
  O  O366  1  0.38264526  0.60905026  0.87472082  1
  O  O367  1  0.86873716  0.12169437  0.36290704  1
  O  O368  1  0.87586141  0.11522710  0.87175278  1
  O  O369  1  0.87094656  0.61460050  0.37875776  1
  O  O370  1  0.88138962  0.61457484  0.86229942  1
  O  O371  1  0.13315570  0.37600298  0.13023882  1
  O  O372  1  0.13106252  0.37864512  0.63625943  1
  O  O373  1  0.13405620  0.88833399  0.11819864  1
  O  O374  1  0.12557045  0.89064477  0.63464128  1
  O  O375  1  0.62414635  0.37768264  0.14113456  1
  O  O376  1  0.63197226  0.38027951  0.62999984  1
  O  O377  1  0.63540469  0.87470177  0.12260223  1
  O  O378  1  0.62648139  0.88208959  0.62827041  1
  O  O379  1  0.11852515  0.26017042  0.24454424  1
  O  O380  1  0.11743218  0.25641645  0.74814886  1
  O  O381  1  0.11365472  0.74644661  0.24761020  1
  O  O382  1  0.12568171  0.75338414  0.75416064  1
  O  O383  1  0.62819622  0.26278530  0.25980866  1
  O  O384  1  0.63016316  0.25661401  0.76110248  1
  O  O385  1  0.62756588  0.74216405  0.26248200  1
  O  O386  1  0.62360419  0.75170001  0.76367870  1
  O  O387  1  0.37004774  0.25001730  0.23716632  1
  O  O388  1  0.37392098  0.24097732  0.74029209  1
  O  O389  1  0.37324720  0.75078698  0.23604303  1
  O  O390  1  0.37854563  0.75803691  0.73291501  1
  O  O391  1  0.88084833  0.24283176  0.24505250  1
  O  O392  1  0.87862364  0.24261388  0.75104837  1
  O  O393  1  0.88445279  0.74713690  0.23776823  1
  O  O394  1  0.87751940  0.73972677  0.74676926  1
  O  O395  1  0.38105020  0.49412492  0.49914493  1
  O  O396  1  0.38710092  0.50191974  0.98885694  1
  O  O397  1  0.38040681  0.99580807  0.49279204  1
  O  O398  1  0.38360633  1.00112197  0.99637262  1
  O  O399  1  0.88290379  0.49023814  0.49654441  1
  O  O400  1  0.88153429  0.49708408  0.99201599  1
  O  O401  1  0.88007062  1.01788634  0.51152203  1
  O  O402  1  0.88022598  0.99612786  0.99894526  1
  O  O403  1  0.11624729  0.00282500  0.00624484  1
  O  O404  1  0.13390456  0.01105973  0.50924558  1
  O  O405  1  0.12090027  0.51287209  -0.00225299  1
  O  O406  1  0.11077487  0.48468280  0.51864029  1
  O  O407  1  0.62097665  0.00570284  0.00936192  1
  O  O408  1  0.60639174  0.00179387  0.49560106  1
  O  O409  1  0.60853669  0.49969571  -0.00231088  1
  O  O410  1  0.61733181  0.50501811  0.50579547  1
  O  O411  1  0.36958057  0.36054577  0.12520119  1
  O  O412  1  0.36792017  0.37084163  0.62098294  1
  O  O413  1  0.36539628  0.86831676  0.12062572  1
  O  O414  1  0.37547606  0.87080124  0.61352526  1
  O  O415  1  0.87858178  0.36203198  0.12511762  1
  O  O416  1  0.86752077  0.37679004  0.61804314  1
  O  O417  1  0.86664673  0.86694820  0.12158627  1
  O  O418  1  0.87551262  0.85832071  0.63294502  1
  O  O419  1  0.11602947  0.12047071  0.38961023  1
  O  O420  1  0.13951957  0.11941193  0.87497106  1
  O  O421  1  0.14131710  0.58639133  0.38658882  1
  O  O422  1  0.11845695  0.62575085  0.87792087  1
  O  O423  1  0.63081722  0.13401642  0.37477701  1
  O  O424  1  0.62371327  0.13192328  0.88990343  1
  O  O425  1  0.63199661  0.62927260  0.38083296  1
  O  O426  1  0.62198301  0.63658351  0.87261941  1
