# generated using pymatgen
data_V85Zn86O256
_symmetry_space_group_name_H-M   'P 1'
_cell_length_a   16.91502057
_cell_length_b   16.91323324
_cell_length_c   16.90852951
_cell_angle_alpha   90.00741329
_cell_angle_beta   90.01170613
_cell_angle_gamma   89.96877478
_symmetry_Int_Tables_number   1
_chemical_formula_structural   V85Zn86O256
_chemical_formula_sum   'V85 Zn86 O256'
_cell_volume   4837.32125829
_cell_formula_units_Z   1
loop_
 _symmetry_equiv_pos_site_id
 _symmetry_equiv_pos_as_xyz
  1  'x, y, z'
loop_
 _atom_site_type_symbol
 _atom_site_label
 _atom_site_symmetry_multiplicity
 _atom_site_fract_x
 _atom_site_fract_y
 _atom_site_fract_z
 _atom_site_occupancy
  V  V0  1  0.24687562  0.74538185  0.00071340  1
  V  V1  1  0.36023306  0.00431293  0.36655668  1
  V  V2  1  -0.00294433  0.38045963  0.37183201  1
  V  V3  1  0.75576336  0.87575737  0.12473299  1
  V  V4  1  0.62647720  0.87537912  0.24931670  1
  V  V5  1  0.37739415  0.00010403  0.87843112  1
  V  V6  1  0.50185573  0.88051104  0.87766085  1
  V  V7  1  0.63239779  0.13330074  0.49969244  1
  V  V8  1  0.88543662  0.62881906  0.75144415  1
  V  V9  1  0.49992306  0.12492542  0.62126562  1
  V  V10  1  0.12403961  0.25594030  0.87599082  1
  V  V11  1  0.00550209  0.49925434  -0.00330544  1
  V  V12  1  0.87798450  0.75064977  0.12265772  1
  V  V13  1  0.12698218  0.12475393  0.00144445  1
  V  V14  1  0.12649103  0.87207201  0.25572194  1
  V  V15  1  0.87087716  0.37582474  0.49410057  1
  V  V16  1  0.37408652  0.12344481  0.74943514  1
  V  V17  1  -0.00436925  0.86908850  0.87871167  1
  V  V18  1  0.12170618  0.86902257  0.75204421  1
  V  V19  1  0.87001135  0.25107083  0.62044780  1
  V  V20  1  0.12444815  0.74371828  0.87538998  1
  V  V21  1  0.12265563  0.62819888  0.49507230  1
  V  V22  1  -0.00233274  0.25568561  0.75483662  1
  V  V23  1  0.62418110  0.74992020  0.87583841  1
  V  V24  1  0.49876930  0.87549345  0.37393399  1
  V  V25  1  0.87789785  0.76087150  0.63463696  1
  V  V26  1  0.87347819  0.13306545  0.24778135  1
  V  V27  1  0.48877104  0.38096407  0.87443033  1
  V  V28  1  0.37232395  0.24819713  0.62123721  1
  V  V29  1  0.87865974  0.37061136  0.00112985  1
  V  V30  1  0.13128572  0.49424668  0.12395815  1
  V  V31  1  0.25150635  0.87662953  0.13061773  1
  V  V32  1  0.62385374  0.25214109  0.37512932  1
  V  V33  1  0.87310501  0.00619233  0.87745380  1
  V  V34  1  0.61508059  0.11740051  -0.00160412  1
  V  V35  1  0.37620403  0.61109110  0.74735082  1
  V  V36  1  0.37339954  0.38786356  0.49523410  1
  V  V37  1  0.75229079  0.36944208  0.12240256  1
  V  V38  1  0.12550011  0.38181890  0.75209614  1
  V  V39  1  0.87725408  0.49387395  0.87512381  1
  V  V40  1  0.49702205  0.12960153  0.13571403  1
  V  V41  1  0.74368581  0.37340697  0.61916780  1
  V  V42  1  0.49805216  0.00271182  0.49497027  1
  V  V43  1  0.63139642  -0.00925991  0.62214098  1
  V  V44  1  0.37374945  0.37868399  0.01345072  1
  V  V45  1  0.62272145  0.38207037  0.74982638  1
  V  V46  1  0.25073923  0.24954637  0.49421079  1
  V  V47  1  0.25058123  0.12558692  0.87678781  1
  V  V48  1  0.75248731  0.62189449  0.38010944  1
  V  V49  1  0.24685172  0.38172084  0.62676741  1
  V  V50  1  0.50040749  0.62286588  0.12306987  1
  V  V51  1  0.87680841  0.61895355  0.25321210  1
  V  V52  1  0.49952577  0.24781107  0.75049623  1
  V  V53  1  0.62612595  0.74486162  0.37837924  1
  V  V54  1  0.12210569  0.24839651  0.37236651  1
  V  V55  1  0.12819884  0.12614177  0.49801855  1
  V  V56  1  0.49692013  0.74679076  0.74462583  1
  V  V57  1  0.25655651  0.61497668  0.87359275  1
  V  V58  1  -0.00415774  0.50159876  0.50152136  1
  V  V59  1  0.24572588  0.75486463  0.49753927  1
  V  V60  1  -0.00413699  0.13252650  0.12464218  1
  V  V61  1  0.74819113  0.50398298  0.74205068  1
  V  V62  1  0.00813507  0.62364049  0.12195326  1
  V  V63  1  0.12575723  0.00004811  0.62794577  1
  V  V64  1  0.75170110  0.49677179  0.25130734  1
  V  V65  1  0.25495939  0.49210747  0.25302080  1
  V  V66  1  0.61829044  0.36909413  0.24592414  1
  V  V67  1  0.75014339  0.00305631  0.25134217  1
  V  V68  1  -0.00090643  -0.00134710  0.49921173  1
  V  V69  1  0.25739929  0.25173117  0.01261688  1
  V  V70  1  0.12819334  0.00050732  0.13253887  1
  V  V71  1  0.74929822  0.62348900  0.87782668  1
  V  V72  1  -0.00117937  -0.00691588  0.00286528  1
  V  V73  1  0.49552843  0.38304302  0.37163131  1
  V  V74  1  0.75327766  0.24064722  -0.00190427  1
  V  V75  1  0.75421005  0.75224462  0.00068978  1
  V  V76  1  0.24836610  -0.00023313  0.75194506  1
  V  V77  1  0.25505061  0.62529063  0.37398302  1
  V  V78  1  0.37863148  0.87838761  0.00298650  1
  V  V79  1  -0.00138678  0.12803449  0.62711346  1
  V  V80  1  0.49719506  0.74792099  0.25031940  1
  V  V81  1  0.62887518  0.24437398  0.87326390  1
  V  V82  1  0.86638556  0.87653225  0.50064367  1
  V  V83  1  0.36318019  0.13572303  0.25014466  1
  V  V84  1  0.00370333  0.74838493  0.25869332  1
  Zn  Zn85  1  0.75263763  -0.00002521  0.74894492  1
  Zn  Zn86  1  0.49818921  0.50488896  -0.00584644  1
  Zn  Zn87  1  0.00184755  0.87139707  0.37853642  1
  Zn  Zn88  1  0.61746065  0.62243621  0.52524446  1
  Zn  Zn89  1  0.75313735  0.13357752  0.37710893  1
  Zn  Zn90  1  0.61744279  -0.00359413  0.11913991  1
  Zn  Zn91  1  0.62335702  0.49699646  0.11996188  1
  Zn  Zn92  1  0.25276694  0.87300836  0.62779537  1
  Zn  Zn93  1  0.50601848  0.50707714  0.51142425  1
  Zn  Zn94  1  0.37470214  0.74932088  0.12649189  1
  Zn  Zn95  1  0.12423209  0.50421401  0.62845555  1
  Zn  Zn96  1  0.87534825  0.00145773  0.37439126  1
  Zn  Zn97  1  0.00378740  0.62930323  0.62853778  1
  Zn  Zn98  1  0.62408305  0.62067609  0.00032554  1
  Zn  Zn99  1  0.37795070  0.61899605  0.25346317  1
  Zn  Zn100  1  0.62963174  0.87381775  0.74626497  1
  Zn  Zn101  1  0.37627924  0.74856988  0.62348118  1
  Zn  Zn102  1  0.12502805  0.37187296  0.24531915  1
  Zn  Zn103  1  0.37377237  0.87597427  0.50242813  1
  Zn  Zn104  1  0.86482441  0.13128681  0.75651756  1
  Zn  Zn105  1  0.74915464  0.75292121  0.50678477  1
  Zn  Zn106  1  -0.00464705  0.25476073  0.24492167  1
  Zn  Zn107  1  0.18656927  0.18643682  0.19061766  1
  Zn  Zn108  1  0.18669665  0.19105763  0.68665547  1
  Zn  Zn109  1  0.18815601  0.68580888  0.18874161  1
  Zn  Zn110  1  0.19023286  0.68629497  0.68687227  1
  Zn  Zn111  1  0.68454057  0.18875411  0.18302510  1
  Zn  Zn112  1  0.68918893  0.18326736  0.68933897  1
  Zn  Zn113  1  0.68568989  0.68567079  0.18936956  1
  Zn  Zn114  1  0.69844077  0.69795299  0.69350564  1
  Zn  Zn115  1  0.31080362  0.31368262  0.31385787  1
  Zn  Zn116  1  0.30935833  0.31146420  0.81280722  1
  Zn  Zn117  1  0.31222015  0.81209222  0.31745006  1
  Zn  Zn118  1  0.31235382  0.81047544  0.81330218  1
  Zn  Zn119  1  0.80842209  0.31131603  0.31413491  1
  Zn  Zn120  1  0.80988404  0.31356139  0.81279373  1
  Zn  Zn121  1  0.81591888  0.81157383  0.31450490  1
  Zn  Zn122  1  0.81179088  0.81975098  0.81129071  1
  Zn  Zn123  1  0.18318883  0.43900850  0.43558483  1
  Zn  Zn124  1  0.18977023  0.43544801  0.94074923  1
  Zn  Zn125  1  0.18527264  0.93825759  0.43685975  1
  Zn  Zn126  1  0.18722073  0.93443514  0.94099198  1
  Zn  Zn127  1  0.68500153  0.44069214  0.43606060  1
  Zn  Zn128  1  0.68427289  0.43618558  0.93588471  1
  Zn  Zn129  1  0.68566891  0.94015047  0.43497871  1
  Zn  Zn130  1  0.69141610  0.93361715  0.93781474  1
  Zn  Zn131  1  0.31548138  0.06161419  0.06819314  1
  Zn  Zn132  1  0.31086174  0.06025060  0.55961379  1
  Zn  Zn133  1  0.31517526  0.56292433  0.06448995  1
  Zn  Zn134  1  0.31078224  0.56610321  0.56519272  1
  Zn  Zn135  1  0.81428126  0.06025840  0.06238705  1
  Zn  Zn136  1  0.81229882  0.06500131  0.56416465  1
  Zn  Zn137  1  0.81460749  0.56045044  0.06557641  1
  Zn  Zn138  1  0.81524482  0.56409868  0.56569137  1
  Zn  Zn139  1  0.43873592  0.43750729  0.18663862  1
  Zn  Zn140  1  0.43024338  0.43292744  0.68832227  1
  Zn  Zn141  1  0.44019671  0.94414202  0.18605642  1
  Zn  Zn142  1  0.43950774  0.93351014  0.68717099  1
  Zn  Zn143  1  0.93702755  0.43737050  0.18400569  1
  Zn  Zn144  1  0.93740351  0.43738028  0.68533692  1
  Zn  Zn145  1  0.93776841  0.93941774  0.18960926  1
  Zn  Zn146  1  0.94085485  0.93765995  0.69197210  1
  Zn  Zn147  1  0.06203080  0.06394051  0.31223979  1
  Zn  Zn148  1  0.05894003  0.06483463  0.81434317  1
  Zn  Zn149  1  0.06726711  0.56071272  0.31374171  1
  Zn  Zn150  1  0.06567580  0.56283784  0.81872250  1
  Zn  Zn151  1  0.56253175  0.06507497  0.30992710  1
  Zn  Zn152  1  0.56404499  0.06195043  0.81044071  1
  Zn  Zn153  1  0.56610681  0.55868669  0.31464513  1
  Zn  Zn154  1  0.55757896  0.56476100  0.68334893  1
  Zn  Zn155  1  0.44003174  0.19133570  0.42858559  1
  Zn  Zn156  1  0.44024552  0.18894545  0.94004868  1
  Zn  Zn157  1  0.43514063  0.68210448  0.44302468  1
  Zn  Zn158  1  0.43478780  0.68956573  0.93607375  1
  Zn  Zn159  1  0.93739521  0.18907681  0.43617729  1
  Zn  Zn160  1  0.94164860  0.18766000  0.93981381  1
  Zn  Zn161  1  0.93370065  0.68888487  0.44033787  1
  Zn  Zn162  1  0.93849757  0.68454317  0.93954529  1
  Zn  Zn163  1  0.06384037  0.31511901  0.05907953  1
  Zn  Zn164  1  0.05940873  0.31435076  0.56299890  1
  Zn  Zn165  1  0.06606328  0.81052174  0.06399539  1
  Zn  Zn166  1  0.06101974  0.81122728  0.56523205  1
  Zn  Zn167  1  0.56122657  0.30761691  0.06092350  1
  Zn  Zn168  1  0.55860074  0.31831550  0.56068082  1
  Zn  Zn169  1  0.56435313  0.81048246  0.06227017  1
  Zn  Zn170  1  0.55966585  0.80891399  0.55747249  1
  O  O171  1  0.11964424  0.11658281  0.12181378  1
  O  O172  1  0.11841402  0.12203328  0.61900646  1
  O  O173  1  0.11291422  0.61715213  0.12852603  1
  O  O174  1  0.12404844  0.62317415  0.61421160  1
  O  O175  1  0.61536048  0.12289749  0.11744703  1
  O  O176  1  0.61702089  0.11999530  0.61570992  1
  O  O177  1  0.61328091  0.62496468  0.12388160  1
  O  O178  1  0.64188151  0.62112368  0.63714796  1
  O  O179  1  0.38206898  0.36951033  0.38436297  1
  O  O180  1  0.38516312  0.36787005  0.87843258  1
  O  O181  1  0.38023233  0.88881406  0.37537324  1
  O  O182  1  0.38148847  0.87965602  0.88240651  1
  O  O183  1  0.87985210  0.36955158  0.38623862  1
  O  O184  1  0.86933683  0.38794835  0.88149970  1
  O  O185  1  0.88063228  0.87874016  0.38436638  1
  O  O186  1  0.89150006  0.88203741  0.87410867  1
  O  O187  1  0.26184570  0.00197876  0.37790189  1
  O  O188  1  0.25389867  0.00618955  0.87262492  1
  O  O189  1  0.24342691  0.50678011  0.36090986  1
  O  O190  1  0.24400963  0.51685516  0.88021325  1
  O  O191  1  0.74956297  0.00385268  0.36116534  1
  O  O192  1  0.77214804  -0.00415653  0.88502608  1
  O  O193  1  0.74924222  0.50684094  0.35925153  1
  O  O194  1  0.75607919  0.50637879  0.86775033  1
  O  O195  1  0.24080730  0.50989549  0.13677320  1
  O  O196  1  0.24516052  0.48547800  0.62045658  1
  O  O197  1  0.23958463  0.98985547  0.12079253  1
  O  O198  1  0.24208976  0.99905168  0.63169899  1
  O  O199  1  0.74823623  0.49020255  0.13273175  1
  O  O200  1  0.75901791  0.48999251  0.63700577  1
  O  O201  1  0.75035569  0.99072107  0.13323059  1
  O  O202  1  0.73340161  1.00046244  0.61932969  1
  O  O203  1  -0.00106751  0.37389612  0.25728014  1
  O  O204  1  0.00716384  0.36312845  0.74526621  1
  O  O205  1  0.00693546  0.86569654  0.24919823  1
  O  O206  1  0.01403202  0.87922982  0.76241096  1
  O  O207  1  0.50783314  0.37654621  0.25492906  1
  O  O208  1  0.50364813  0.36745844  0.75896075  1
  O  O209  1  0.50632527  0.86929406  0.25405047  1
  O  O210  1  0.50394316  0.86664583  0.76140512  1
  O  O211  1  0.49324368  0.12617057  0.24151379  1
  O  O212  1  0.49358604  0.12894424  0.74233046  1
  O  O213  1  0.50013529  0.63150810  0.24558186  1
  O  O214  1  0.48492171  0.63108732  0.75390691  1
  O  O215  1  0.99163046  0.12602194  0.24157362  1
  O  O216  1  0.99933554  0.13849393  0.74375609  1
  O  O217  1  0.99511903  0.62865182  0.24552314  1
  O  O218  1  0.98869355  0.62098778  0.75368218  1
  O  O219  1  0.36242207  0.25507721  -0.00338322  1
  O  O220  1  0.36566081  0.25201466  0.50159780  1
  O  O221  1  0.36498932  0.76305346  0.00007779  1
  O  O222  1  0.36010970  0.75269965  0.50048739  1
  O  O223  1  0.86763550  0.25985960  -0.00983347  1
  O  O224  1  0.88053060  0.26064647  0.51004611  1
  O  O225  1  0.87060602  0.74516733  0.01454307  1
  O  O226  1  0.87350453  0.76069501  0.50904931  1
  O  O227  1  0.12837963  0.24415340  0.49575338  1
  O  O228  1  0.13472154  0.24864296  0.99261522  1
  O  O229  1  0.13328174  0.74346353  0.50149069  1
  O  O230  1  0.13842981  0.75336846  0.99339692  1
  O  O231  1  0.61905685  0.24167154  0.49424707  1
  O  O232  1  0.63202838  0.24143972  0.99124269  1
  O  O233  1  0.63087550  0.74488550  0.49233988  1
  O  O234  1  0.63408377  0.74667325  0.99045532  1
  O  O235  1  0.50046961  0.22982150  0.11851900  1
  O  O236  1  0.49294461  0.24590307  0.63021452  1
  O  O237  1  0.49992884  0.74481124  0.13421764  1
  O  O238  1  0.50189731  0.75475456  0.64095304  1
  O  O239  1  1.00669240  0.23664414  0.12322704  1
  O  O240  1  0.99034510  0.24790671  0.63209059  1
  O  O241  1  0.99480079  0.74245406  0.12913196  1
  O  O242  1  0.98430654  0.74624836  0.62234072  1
  O  O243  1  0.00534452  0.26170781  0.37410077  1
  O  O244  1  0.01152787  0.24674211  0.86811491  1
  O  O245  1  -0.00328497  0.74925066  0.36194116  1
  O  O246  1  0.01050957  0.75648719  0.88577293  1
  O  O247  1  0.51341005  0.26361769  0.37742548  1
  O  O248  1  0.50736761  0.25439362  0.86792568  1
  O  O249  1  0.50691512  0.75383887  0.36955932  1
  O  O250  1  0.50881901  0.75581478  0.86971945  1
  O  O251  1  0.23596045  0.13259404  0.50464316  1
  O  O252  1  0.24761787  0.13451142  0.99851287  1
  O  O253  1  0.24291821  0.63098383  0.49401194  1
  O  O254  1  0.26076801  0.63490696  0.98852576  1
  O  O255  1  0.73637413  0.12100191  0.49698605  1
  O  O256  1  0.74549274  0.13760877  1.00810744  1
  O  O257  1  0.75775438  0.62441952  0.48516475  1
  O  O258  1  0.75312925  0.63420935  0.99627898  1
  O  O259  1  0.26346489  0.36363264  -0.00479126  1
  O  O260  1  0.25369632  0.36887335  0.50372260  1
  O  O261  1  0.25476719  0.86809494  0.01154515  1
  O  O262  1  0.24719415  0.86498687  0.49948773  1
  O  O263  1  0.75665299  0.36844951  0.00475890  1
  O  O264  1  0.75811629  0.38221231  0.50779150  1
  O  O265  1  0.75013165  0.86106190  0.00925012  1
  O  O266  1  0.76293704  0.87815163  0.49556228  1
  O  O267  1  0.13376628  0.49797262  0.24144897  1
  O  O268  1  0.11887072  0.48565291  0.75119105  1
  O  O269  1  0.11836798  0.99260852  0.23908102  1
  O  O270  1  0.12887080  0.99614600  0.74758203  1
  O  O271  1  0.63381449  0.48725148  0.24604975  1
  O  O272  1  0.63384701  0.48701715  0.75442380  1
  O  O273  1  0.63297290  0.99324809  0.24740032  1
  O  O274  1  0.61725552  0.99981554  0.72945849  1
  O  O275  1  0.37752411  0.00555010  0.26339011  1
  O  O276  1  0.36945957  0.00449060  0.75653228  1
  O  O277  1  0.35874836  0.49973674  0.24427496  1
  O  O278  1  0.37300836  0.51183334  0.75131004  1
  O  O279  1  0.86778189  0.00960391  0.25160845  1
  O  O280  1  0.88227417  0.00315872  0.76662303  1
  O  O281  1  0.86782135  0.50914306  0.24388611  1
  O  O282  1  0.86979441  0.50508697  0.75735314  1
  O  O283  1  0.11507248  0.36467225  0.37501685  1
  O  O284  1  0.13223381  0.36397272  0.86842057  1
  O  O285  1  0.12290220  0.88043295  0.35973709  1
  O  O286  1  0.11927318  0.86609712  0.87183148  1
  O  O287  1  0.61875878  0.37042297  0.36600350  1
  O  O288  1  0.61582631  0.36459537  0.86778031  1
  O  O289  1  0.62075851  0.86452997  0.37062771  1
  O  O290  1  0.61663436  0.86799095  0.87960751  1
  O  O291  1  0.38354226  0.11992367  0.13939404  1
  O  O292  1  0.37967768  0.12884624  0.62732355  1
  O  O293  1  0.38688132  0.62945462  0.12956687  1
  O  O294  1  0.36481530  0.62966333  0.64315795  1
  O  O295  1  0.88569153  0.11956884  0.13204653  1
  O  O296  1  0.88098381  0.13482615  0.62525071  1
  O  O297  1  0.88381342  0.63029664  0.13460264  1
  O  O298  1  0.87758477  0.63445667  0.63634303  1
  O  O299  1  0.24331157  0.24901156  0.11071014  1
  O  O300  1  0.25121708  0.25681844  0.61251529  1
  O  O301  1  0.25184283  0.75468062  0.11786574  1
  O  O302  1  0.24916909  0.75196702  0.61087971  1
  O  O303  1  0.74676803  0.26200615  0.11494448  1
  O  O304  1  0.76179172  0.25869304  0.63009785  1
  O  O305  1  0.75737825  0.75322179  0.12148334  1
  O  O306  1  0.77079666  0.75243965  0.62321003  1
  O  O307  1  0.23902003  0.25481884  0.38722906  1
  O  O308  1  0.24230212  0.24215197  0.88136019  1
  O  O309  1  0.24834215  0.74285108  0.38670610  1
  O  O310  1  0.24287527  0.74619671  0.88343692  1
  O  O311  1  0.73227651  0.25125453  0.37478871  1
  O  O312  1  0.73903552  0.25511179  0.88320366  1
  O  O313  1  0.74332120  0.74204423  0.37504945  1
  O  O314  1  0.74944695  0.74608524  0.88394019  1
  O  O315  1  0.00848436  0.11727230  0.00712604  1
  O  O316  1  0.00869229  0.12096433  0.50665427  1
  O  O317  1  -0.00569219  0.61269773  0.01075216  1
  O  O318  1  0.00471209  0.61834621  0.49762716  1
  O  O319  1  0.50860563  0.12484618  0.00639736  1
  O  O320  1  0.50635315  0.11913871  0.50123626  1
  O  O321  1  0.49961461  0.62637256  0.00717586  1
  O  O322  1  0.50272543  0.62358259  0.50560914  1
  O  O323  1  0.48812252  0.37737271  0.49170440  1
  O  O324  1  0.48728584  0.36779119  0.98972039  1
  O  O325  1  0.49762532  0.88312506  0.49084260  1
  O  O326  1  0.49046041  0.86852362  0.99245294  1
  O  O327  1  0.99217558  0.38211918  0.49457709  1
  O  O328  1  0.98803466  0.38309591  1.00343559  1
  O  O329  1  0.99512193  0.88402476  0.49959755  1
  O  O330  1  1.00797716  0.88398711  0.99496229  1
  O  O331  1  0.49882806  0.48626505  0.37245407  1
  O  O332  1  0.50061850  0.47895011  0.87528658  1
  O  O333  1  0.50059752  0.99597493  0.38360982  1
  O  O334  1  0.49585236  0.98803695  0.87123056  1
  O  O335  1  1.00387683  0.48732882  0.38093807  1
  O  O336  1  0.99155320  0.50494721  0.88625527  1
  O  O337  1  1.00053473  1.00140385  0.38981713  1
  O  O338  1  0.99808553  0.99251401  0.88530533  1
  O  O339  1  0.00654807  0.00531741  0.11894641  1
  O  O340  1  0.00525395  0.00638578  0.61723398  1
  O  O341  1  0.00612915  0.50666975  0.11815436  1
  O  O342  1  0.00199132  0.50426774  0.61644268  1
  O  O343  1  0.50289638  0.01589978  0.12447337  1
  O  O344  1  0.50376307  0.00458485  0.61125520  1
  O  O345  1  0.50176927  0.50938607  0.12148262  1
  O  O346  1  0.50470372  0.48489192  0.62640212  1
  O  O347  1  0.24593463  0.38793120  0.25330789  1
  O  O348  1  0.23929763  0.36558108  0.73891189  1
  O  O349  1  0.24365580  0.86621374  0.23874722  1
  O  O350  1  0.23921812  0.88258701  0.75385003  1
  O  O351  1  0.74695750  0.37993928  0.24126328  1
  O  O352  1  0.74263691  0.38239612  0.74369038  1
  O  O353  1  0.74691709  0.88041800  0.24489806  1
  O  O354  1  0.74186660  0.88710630  0.75810748  1
  O  O355  1  0.26350676  0.12240211  0.24562453  1
  O  O356  1  0.25412582  0.12095996  0.75544515  1
  O  O357  1  0.25008401  0.61825271  0.25853610  1
  O  O358  1  0.26075199  0.63096933  0.76427161  1
  O  O359  1  0.75537821  0.11863969  0.24649458  1
  O  O360  1  0.75264614  0.11388544  0.74821541  1
  O  O361  1  0.75772196  0.61734329  0.25329585  1
  O  O362  1  0.76293785  0.61876871  0.76030854  1
  O  O363  1  0.38127442  0.11416879  0.36297076  1
  O  O364  1  0.37135616  0.11935784  0.87155472  1
  O  O365  1  0.35986598  0.62675681  0.37313708  1
  O  O366  1  0.36417837  0.62841897  0.86589214  1
  O  O367  1  0.87240626  0.12324521  0.36670212  1
  O  O368  1  0.88521313  0.11040280  0.87545088  1
  O  O369  1  0.86783028  0.63137436  0.36144185  1
  O  O370  1  0.86763308  0.61765030  0.87225401  1
  O  O371  1  0.12071435  0.38887338  0.12637615  1
  O  O372  1  0.13062465  0.37347162  0.63337260  1
  O  O373  1  0.13175492  0.88131103  0.13291183  1
  O  O374  1  0.12498533  0.88095386  0.63577683  1
  O  O375  1  0.63055595  0.37309756  0.12939979  1
  O  O376  1  0.63719975  0.36609169  0.63303988  1
  O  O377  1  0.63744481  0.87439318  0.12960839  1
  O  O378  1  0.61966268  0.88821271  0.62049326  1
  O  O379  1  0.12103196  0.25147805  0.25849185  1
  O  O380  1  0.11838497  0.25654876  0.75733047  1
  O  O381  1  0.11453183  0.75858714  0.24179691  1
  O  O382  1  0.13077132  0.75842208  0.75989979  1
  O  O383  1  0.62936416  0.26225318  0.25495715  1
  O  O384  1  0.62109468  0.25708843  0.75563439  1
  O  O385  1  0.61670145  0.75613664  0.25620475  1
  O  O386  1  0.62040266  0.75187480  0.76371568  1
  O  O387  1  0.37067810  0.23535222  0.25686978  1
  O  O388  1  0.37772354  0.24239217  0.74295182  1
  O  O389  1  0.38856061  0.75067507  0.25197784  1
  O  O390  1  0.38431508  0.74520514  0.75158710  1
  O  O391  1  0.87390563  0.23779516  0.25113470  1
  O  O392  1  0.88225717  0.25216351  0.74546684  1
  O  O393  1  0.88224481  0.74317995  0.23989581  1
  O  O394  1  0.87446156  0.74558483  0.74345254  1
  O  O395  1  0.37189754  0.48953847  0.50305205  1
  O  O396  1  0.37559180  0.48308069  1.00252111  1
  O  O397  1  0.38200083  1.00337134  0.48713562  1
  O  O398  1  0.36779898  0.98685451  0.99410430  1
  O  O399  1  0.88655851  0.49215008  0.50354038  1
  O  O400  1  0.88036278  0.49295422  0.99351869  1
  O  O401  1  0.88277332  0.99482935  0.50181827  1
  O  O402  1  0.88920771  1.00250384  0.99283080  1
  O  O403  1  0.11873336  0.00405916  0.00945120  1
  O  O404  1  0.12005647  0.00760866  0.50553939  1
  O  O405  1  0.11514681  0.49423962  0.00635812  1
  O  O406  1  0.11265873  0.50579346  0.50180106  1
  O  O407  1  0.63664049  0.01497568  -0.00099712  1
  O  O408  1  0.61733960  0.00684486  0.50580305  1
  O  O409  1  0.61987253  0.50223635  0.00114741  1
  O  O410  1  0.62064136  0.51333417  0.48704147  1
  O  O411  1  0.38008033  0.36979025  0.11184697  1
  O  O412  1  0.36449473  0.36536589  0.61717987  1
  O  O413  1  0.36871859  0.87549032  0.12051452  1
  O  O414  1  0.37116871  0.87127754  0.62148777  1
  O  O415  1  0.86610403  0.37789244  0.11278270  1
  O  O416  1  0.86660376  0.36940518  0.61729141  1
  O  O417  1  0.86466531  0.86623094  0.13204907  1
  O  O418  1  0.88195228  0.86803308  0.62059282  1
  O  O419  1  0.11734826  0.13781057  0.38352541  1
  O  O420  1  0.12991290  0.13254143  0.88272965  1
  O  O421  1  0.13400579  0.62138898  0.38769465  1
  O  O422  1  0.13717807  0.63680678  0.87036298  1
  O  O423  1  0.62355956  0.13426045  0.38168768  1
  O  O424  1  0.61776517  0.13498161  0.88196207  1
  O  O425  1  0.63641051  0.63728602  0.36411587  1
  O  O426  1  0.64291235  0.63411791  0.87654512  1
