# generated using pymatgen
data_V85Zn86O256
_symmetry_space_group_name_H-M   'P 1'
_cell_length_a   16.97156330
_cell_length_b   16.97077766
_cell_length_c   16.98135315
_cell_angle_alpha   89.97764862
_cell_angle_beta   89.92385441
_cell_angle_gamma   90.02610487
_symmetry_Int_Tables_number   1
_chemical_formula_structural   V85Zn86O256
_chemical_formula_sum   'V85 Zn86 O256'
_cell_volume   4890.97478472
_cell_formula_units_Z   1
loop_
 _symmetry_equiv_pos_site_id
 _symmetry_equiv_pos_as_xyz
  1  'x, y, z'
loop_
 _atom_site_type_symbol
 _atom_site_label
 _atom_site_symmetry_multiplicity
 _atom_site_fract_x
 _atom_site_fract_y
 _atom_site_fract_z
 _atom_site_occupancy
  V  V0  1  0.24937495  0.00250709  0.25494643  1
  V  V1  1  0.49434647  0.61836926  0.12683584  1
  V  V2  1  0.74954415  -0.00211616  0.74532758  1
  V  V3  1  -0.00132662  0.87192627  0.38516766  1
  V  V4  1  0.37164807  0.00421385  0.37631795  1
  V  V5  1  0.87720060  0.37968646  0.50190475  1
  V  V6  1  0.38044571  0.62181105  0.74950515  1
  V  V7  1  0.62871177  0.37400650  0.74461452  1
  V  V8  1  0.24510466  0.36651756  0.12157362  1
  V  V9  1  0.62364355  0.88033969  0.25167280  1
  V  V10  1  0.12516574  0.87320140  0.25801788  1
  V  V11  1  0.37811017  0.74737292  0.62046320  1
  V  V12  1  0.87245258  0.25212246  0.62693217  1
  V  V13  1  0.24983302  0.87526778  0.12702924  1
  V  V14  1  0.05198160  0.55490996  0.45924260  1
  V  V15  1  0.25735800  0.37116576  0.62734707  1
  V  V16  1  0.13237880  0.12568272  -0.00019399  1
  V  V17  1  0.63900755  0.74684451  0.37659759  1
  V  V18  1  0.74588307  0.12051807  0.88381846  1
  V  V19  1  0.49749640  0.49731717  0.47970729  1
  V  V20  1  0.50453363  0.75301307  0.74724476  1
  V  V21  1  0.63520379  0.62189610  0.49482269  1
  V  V22  1  0.38062405  0.37470022  0.49028178  1
  V  V23  1  0.50927872  0.00111624  -0.00453020  1
  V  V24  1  0.62401340  0.24514038  0.88548689  1
  V  V25  1  0.62052826  0.38117173  0.24649297  1
  V  V26  1  0.50379002  0.23942761  0.74813857  1
  V  V27  1  0.61689560  0.13115543  0.50615615  1
  V  V28  1  0.00599315  0.25589877  0.25074112  1
  V  V29  1  0.25898264  0.11886766  0.87522053  1
  V  V30  1  0.13253042  0.49917996  0.12462158  1
  V  V31  1  0.50663653  0.12387173  0.12264488  1
  V  V32  1  0.00590471  0.12685674  0.61636440  1
  V  V33  1  0.87165675  0.87710882  0.00110798  1
  V  V34  1  0.00030636  0.24753498  0.74935615  1
  V  V35  1  0.38123292  0.23883599  0.62492421  1
  V  V36  1  0.80512538  0.82072752  0.55776960  1
  V  V37  1  0.12445440  0.74881649  0.86709719  1
  V  V38  1  0.86840361  0.50427152  0.87839473  1
  V  V39  1  0.61880219  0.00072294  0.62509273  1
  V  V40  1  0.12772432  0.23266941  0.37883537  1
  V  V41  1  0.87476442  0.75360818  0.12577338  1
  V  V42  1  0.87524598  0.00220137  0.87068952  1
  V  V43  1  -0.00043868  0.62489407  0.12304495  1
  V  V44  1  0.12466401  0.37188432  0.74880727  1
  V  V45  1  0.62240126  0.25603364  0.37328340  1
  V  V46  1  0.00120811  0.00154268  0.50187048  1
  V  V47  1  0.66439240  0.55523098  0.06770013  1
  V  V48  1  0.86674304  0.50821901  0.37884065  1
  V  V49  1  0.37542478  0.87283535  0.49813373  1
  V  V50  1  0.25340841  0.49746406  0.75197437  1
  V  V51  1  0.18373063  0.43122598  0.29808788  1
  V  V52  1  -0.00092401  0.37543934  0.37728382  1
  V  V53  1  0.49621917  0.74939589  0.25222758  1
  V  V54  1  -0.01711841  0.62674618  0.63862807  1
  V  V55  1  0.50006079  0.87504218  0.37875454  1
  V  V56  1  0.49851076  0.25417739  0.25067024  1
  V  V57  1  0.87836504  0.25731333  0.11682807  1
  V  V58  1  0.13154066  0.24492892  0.87507387  1
  V  V59  1  0.74927597  0.37614215  0.11823250  1
  V  V60  1  0.87538416  0.00037642  0.38010265  1
  V  V61  1  0.12504825  0.00278806  0.61874772  1
  V  V62  1  0.49787713  0.49583731  0.00328526  1
  V  V63  1  0.87613854  0.13037004  0.24990551  1
  V  V64  1  0.25581302  -0.00317695  0.75073917  1
  V  V65  1  0.23873333  0.73445173  0.48948258  1
  V  V66  1  0.74960856  0.25234850  0.50026357  1
  V  V67  1  0.37574660  0.49591467  0.87622182  1
  V  V68  1  0.36672972  0.36616239  -0.00030606  1
  V  V69  1  0.50261811  0.61020849  0.62062282  1
  V  V70  1  0.74897064  0.00380545  0.25053128  1
  V  V71  1  0.24732976  0.87088238  0.62214979  1
  V  V72  1  0.12442290  -0.00059175  0.12637859  1
  V  V73  1  0.25559816  0.62405209  0.87744763  1
  V  V74  1  0.35966950  0.61240166  0.26062322  1
  V  V75  1  0.37140556  0.12504238  0.25086448  1
  V  V76  1  0.24793432  0.23626457  0.49834084  1
  V  V77  1  0.49700378  0.87858640  0.86980904  1
  V  V78  1  0.00054596  0.75371466  0.25503592  1
  V  V79  1  0.74569396  0.50577384  0.25248631  1
  V  V80  1  0.12076801  0.50890291  0.63213520  1
  V  V81  1  0.12801377  0.62939091  0.00056758  1
  V  V82  1  0.37246787  0.74987517  0.12306516  1
  V  V83  1  0.00223312  0.00008344  -0.00177283  1
  V  V84  1  0.37371412  0.88261064  -0.00506748  1
  Zn  Zn85  1  0.76374204  0.53068954  0.74853412  1
  Zn  Zn86  1  0.87491621  0.12258091  0.74771604  1
  Zn  Zn87  1  0.75232973  0.24790525  0.00036550  1
  Zn  Zn88  1  0.25272669  0.75278530  -0.00237735  1
  Zn  Zn89  1  0.12345067  0.87440278  0.74833691  1
  Zn  Zn90  1  0.74565249  0.72749388  0.00411803  1
  Zn  Zn91  1  -0.01199701  0.37060232  0.88357529  1
  Zn  Zn92  1  0.00209666  0.12730108  0.12484548  1
  Zn  Zn93  1  0.74531435  0.87358537  0.12575785  1
  Zn  Zn94  1  0.86666712  0.63024533  0.25496033  1
  Zn  Zn95  1  0.50029328  0.37065208  0.87431148  1
  Zn  Zn96  1  0.62946527  0.00533103  0.11898190  1
  Zn  Zn97  1  0.74907901  0.12943466  0.37563097  1
  Zn  Zn98  1  -0.01559002  0.74925678  0.75181374  1
  Zn  Zn99  1  0.49631994  0.00934497  0.50303607  1
  Zn  Zn100  1  0.00169237  0.87317857  0.87184602  1
  Zn  Zn101  1  0.38143764  0.11715320  0.75037692  1
  Zn  Zn102  1  0.37019881  0.24589462  0.12119468  1
  Zn  Zn103  1  0.66661012  0.69514361  0.85404077  1
  Zn  Zn104  1  -0.00173513  0.48966605  -0.00033056  1
  Zn  Zn105  1  0.74507539  0.38796341  0.62663286  1
  Zn  Zn106  1  0.62742644  0.87372444  0.74317464  1
  Zn  Zn107  1  0.18623140  0.18712877  0.19031108  1
  Zn  Zn108  1  0.19094285  0.18300757  0.68703100  1
  Zn  Zn109  1  0.18714015  0.69008219  0.19109903  1
  Zn  Zn110  1  0.19311546  0.68613753  0.68699926  1
  Zn  Zn111  1  0.68852608  0.19052859  0.18657118  1
  Zn  Zn112  1  0.68917504  0.18417429  0.69099024  1
  Zn  Zn113  1  0.68651824  0.69394249  0.19248378  1
  Zn  Zn114  1  0.69006521  0.68784552  0.67315079  1
  Zn  Zn115  1  0.31498656  0.30367673  0.31636087  1
  Zn  Zn116  1  0.31439828  0.30616664  0.81246815  1
  Zn  Zn117  1  0.31255396  0.80825593  0.31316787  1
  Zn  Zn118  1  0.31578030  0.81038409  0.81135547  1
  Zn  Zn119  1  0.81187420  0.31893712  0.30979818  1
  Zn  Zn120  1  0.81189176  0.31512517  0.81742610  1
  Zn  Zn121  1  0.81396305  0.81864025  0.31598847  1
  Zn  Zn122  1  0.81098408  0.81012776  0.81365341  1
  Zn  Zn123  1  0.18965620  0.42634274  0.45702634  1
  Zn  Zn124  1  0.16231988  0.42268532  0.95087247  1
  Zn  Zn125  1  0.18838949  0.93428937  0.43974399  1
  Zn  Zn126  1  0.18881068  0.93609287  0.93583934  1
  Zn  Zn127  1  0.68504563  0.43686713  0.43774752  1
  Zn  Zn128  1  0.69251758  0.42967782  0.92716545  1
  Zn  Zn129  1  0.68616343  0.94303326  0.43832442  1
  Zn  Zn130  1  0.67923348  0.86358900  0.94196195  1
  Zn  Zn131  1  0.31491285  0.06115251  0.06550200  1
  Zn  Zn132  1  0.31207234  0.05967668  0.56268902  1
  Zn  Zn133  1  0.31207216  0.56010942  0.06484495  1
  Zn  Zn134  1  0.31503269  0.55908286  0.55970381  1
  Zn  Zn135  1  0.81483711  0.06354801  0.06489231  1
  Zn  Zn136  1  0.81170011  0.06170510  0.56503102  1
  Zn  Zn137  1  0.83090437  0.55630134  0.05928122  1
  Zn  Zn138  1  0.81127946  0.55977001  0.56583378  1
  Zn  Zn139  1  0.43135865  0.43673088  0.18841955  1
  Zn  Zn140  1  0.44305374  0.42846167  0.68877804  1
  Zn  Zn141  1  0.43876256  0.93974696  0.18661945  1
  Zn  Zn142  1  0.43867724  0.93947128  0.68067591  1
  Zn  Zn143  1  0.93661992  0.43913059  0.19058018  1
  Zn  Zn144  1  0.93466128  0.44048814  0.69483287  1
  Zn  Zn145  1  0.93833476  0.93986203  0.18947977  1
  Zn  Zn146  1  0.91270459  0.89482091  0.69791678  1
  Zn  Zn147  1  0.05887529  0.06173416  0.31166817  1
  Zn  Zn148  1  0.06555942  0.05947819  0.80667437  1
  Zn  Zn149  1  0.05650461  0.56897172  0.30052124  1
  Zn  Zn150  1  0.05585658  0.56123728  0.81619585  1
  Zn  Zn151  1  0.55990784  0.06804436  0.31629784  1
  Zn  Zn152  1  0.56345775  0.05943069  0.81739392  1
  Zn  Zn153  1  0.55962766  0.56517344  0.31003929  1
  Zn  Zn154  1  0.58708552  0.56994459  0.79972673  1
  Zn  Zn155  1  0.43619101  0.19090298  0.43340313  1
  Zn  Zn156  1  0.44050446  0.18536308  0.93852988  1
  Zn  Zn157  1  0.43778283  0.68618692  0.43598357  1
  Zn  Zn158  1  0.47961837  0.66858465  0.91940980  1
  Zn  Zn159  1  0.93713341  0.18939969  0.43766323  1
  Zn  Zn160  1  0.94269052  0.18390477  0.93642270  1
  Zn  Zn161  1  0.92714412  0.69467388  0.44153972  1
  Zn  Zn162  1  0.93678084  0.68712629  0.93810018  1
  Zn  Zn163  1  0.06806109  0.30980649  0.06396536  1
  Zn  Zn164  1  0.06427189  0.31412971  0.56183909  1
  Zn  Zn165  1  0.06181891  0.81376132  0.06220133  1
  Zn  Zn166  1  0.06185114  0.80694923  0.56404916  1
  Zn  Zn167  1  0.56012515  0.31401564  0.06582852  1
  Zn  Zn168  1  0.55863048  0.31412311  0.56385577  1
  Zn  Zn169  1  0.55673153  0.81230512  0.06613004  1
  Zn  Zn170  1  0.57053679  0.81016921  0.56037947  1
  O  O171  1  0.12626732  0.11857782  0.11652306  1
  O  O172  1  0.11796555  0.11656716  0.62716040  1
  O  O173  1  0.12043273  0.62136696  0.12160523  1
  O  O174  1  0.12967043  0.60978757  0.62992799  1
  O  O175  1  0.61148075  0.12455807  0.13165340  1
  O  O176  1  0.62678636  0.12084964  0.61473130  1
  O  O177  1  0.61311895  0.62452205  0.12965542  1
  O  O178  1  0.61244455  0.63063393  0.60283754  1
  O  O179  1  0.37252262  0.36745758  0.39132103  1
  O  O180  1  0.37246087  0.37877692  0.88215133  1
  O  O181  1  0.38259818  0.88039810  0.37879677  1
  O  O182  1  0.37703079  0.87351612  0.88658668  1
  O  O183  1  0.88289675  0.38440170  0.37989233  1
  O  O184  1  0.87581795  0.38425752  0.87580822  1
  O  O185  1  0.88686876  0.88954622  0.36804059  1
  O  O186  1  0.87843162  0.88987511  0.88597271  1
  O  O187  1  0.26331104  -0.00730759  0.37079015  1
  O  O188  1  0.24345591  0.00570398  0.86234213  1
  O  O189  1  0.23449465  0.48296154  0.36476379  1
  O  O190  1  0.26128433  0.50436969  0.87078194  1
  O  O191  1  0.75806643  0.00551972  0.36615773  1
  O  O192  1  0.76104427  0.00968326  0.86872770  1
  O  O193  1  0.75737798  0.49270097  0.36538152  1
  O  O194  1  0.76160896  0.49767977  0.87041268  1
  O  O195  1  0.23823734  0.49257787  0.12531429  1
  O  O196  1  0.24651370  0.48941952  0.63088558  1
  O  O197  1  0.24446964  0.99351443  0.13460846  1
  O  O198  1  0.24386598  0.99032530  0.62639959  1
  O  O199  1  0.74149308  0.49608791  0.12615499  1
  O  O200  1  0.75478309  0.49918085  0.63963177  1
  O  O201  1  0.74861239  1.00298763  0.13956351  1
  O  O202  1  0.73598797  1.01222617  0.63430215  1
  O  O203  1  -0.00463351  0.36878811  0.26485622  1
  O  O204  1  0.01042551  0.36173608  0.74857457  1
  O  O205  1  0.00633186  0.87165043  0.25871692  1
  O  O206  1  0.00934116  0.87331787  0.75442299  1
  O  O207  1  0.50661386  0.36599610  0.24160347  1
  O  O208  1  0.50685306  0.35704155  0.75309077  1
  O  O209  1  0.50460617  0.87375892  0.26089951  1
  O  O210  1  0.49330310  0.86958530  0.75278711  1
  O  O211  1  0.49048431  0.13009045  0.24361843  1
  O  O212  1  0.49776544  0.13443147  0.75721470  1
  O  O213  1  0.49113230  0.62842456  0.23983442  1
  O  O214  1  0.49761830  0.63234476  0.73753112  1
  O  O215  1  0.99248221  0.13434218  0.24759588  1
  O  O216  1  1.00033470  0.13457469  0.73985045  1
  O  O217  1  0.99531689  0.63695417  0.23841985  1
  O  O218  1  1.00117544  0.62988663  0.74219539  1
  O  O219  1  0.37796073  0.26260518  0.00056640  1
  O  O220  1  0.37189252  0.25370066  0.50708066  1
  O  O221  1  0.37512860  0.76248405  0.01645566  1
  O  O222  1  0.37227984  0.75274125  0.50867634  1
  O  O223  1  0.88174100  0.24606612  0.01428141  1
  O  O224  1  0.86751302  0.25761875  0.50482224  1
  O  O225  1  0.87096539  0.75971432  0.00808868  1
  O  O226  1  0.86872889  0.75555374  0.51199020  1
  O  O227  1  0.13619624  0.25892505  0.49031881  1
  O  O228  1  0.12478560  0.23526043  0.98900643  1
  O  O229  1  0.14075746  0.74941316  0.50354324  1
  O  O230  1  0.12731454  0.74116638  0.99590775  1
  O  O231  1  0.62938650  0.24953346  0.49360839  1
  O  O232  1  0.62285923  0.25315658  0.98838266  1
  O  O233  1  0.61845100  0.73480863  0.48777826  1
  O  O234  1  0.64095489  0.77545599  1.00708600  1
  O  O235  1  0.49668159  0.24202478  0.13428103  1
  O  O236  1  0.49152246  0.24936695  0.63270438  1
  O  O237  1  0.49083775  0.74249292  0.13167503  1
  O  O238  1  0.49257681  0.74512928  0.62623918  1
  O  O239  1  0.99679781  0.25319026  0.13434825  1
  O  O240  1  0.99694301  0.24523107  0.62967131  1
  O  O241  1  0.99155914  0.74611127  0.13058757  1
  O  O242  1  1.01030052  0.72758600  0.62708498  1
  O  O243  1  0.00754869  0.25801166  0.37100032  1
  O  O244  1  0.01220200  0.24839980  0.86581257  1
  O  O245  1  -0.00812835  0.75909674  0.36714569  1
  O  O246  1  0.01021420  0.74889078  0.87445804  1
  O  O247  1  0.50700640  0.24762441  0.35967765  1
  O  O248  1  0.50771423  0.24883633  0.86956277  1
  O  O249  1  0.50290678  0.75978019  0.36927998  1
  O  O250  1  0.48294854  0.76326034  0.85616424  1
  O  O251  1  0.25253368  0.13717997  0.50330121  1
  O  O252  1  0.24016916  0.11164785  0.99200893  1
  O  O253  1  0.25440148  0.63513398  0.50262296  1
  O  O254  1  0.24546876  0.62827546  0.99524953  1
  O  O255  1  0.74299378  0.13998286  0.49779505  1
  O  O256  1  0.75660187  0.12629506  0.98859651  1
  O  O257  1  0.73340797  0.61579534  0.49828779  1
  O  O258  1  0.73792320  0.61200364  1.01679384  1
  O  O259  1  0.25329577  0.37814915  0.00981495  1
  O  O260  1  0.26186763  0.36492537  0.51440010  1
  O  O261  1  0.25672879  0.87578456  0.00807656  1
  O  O262  1  0.25647063  0.86842595  0.50999344  1
  O  O263  1  0.74210722  0.37081415  0.01521065  1
  O  O264  1  0.75354913  0.36606485  0.50471844  1
  O  O265  1  0.76859170  0.89517417  0.01018259  1
  O  O266  1  0.74968243  0.86473960  0.48390394  1
  O  O267  1  0.12487125  0.49864722  0.24343800  1
  O  O268  1  0.13181281  0.49009149  0.74838362  1
  O  O269  1  0.12884273  0.99432559  0.24680414  1
  O  O270  1  0.13660085  0.99810797  0.73601006  1
  O  O271  1  0.62987730  0.49066017  0.25708561  1
  O  O272  1  0.61253973  0.47277313  0.75264444  1
  O  O273  1  0.63336726  0.99686634  0.25676470  1
  O  O274  1  0.62809256  1.00495952  0.73671615  1
  O  O275  1  0.37077549  0.00619194  0.25706642  1
  O  O276  1  0.36039819  0.00054344  0.73905979  1
  O  O277  1  0.37187362  0.51319359  0.24743847  1
  O  O278  1  0.37403581  0.49899377  0.75751313  1
  O  O279  1  0.87063001  0.01056098  0.25674639  1
  O  O280  1  0.86866500  -0.00147520  0.75686441  1
  O  O281  1  0.86537271  0.50275934  0.25872144  1
  O  O282  1  0.87549087  0.50143533  0.76810146  1
  O  O283  1  0.12216256  0.37531342  0.36632844  1
  O  O284  1  0.13899816  0.36151396  0.85557978  1
  O  O285  1  0.11680871  0.88091643  0.36378350  1
  O  O286  1  0.12632744  0.86119889  0.87579371  1
  O  O287  1  0.62854603  0.36326481  0.36398402  1
  O  O288  1  0.62300925  0.36039653  0.86599129  1
  O  O289  1  0.61777980  0.87062020  0.36856966  1
  O  O290  1  0.60146463  0.88285819  0.86234442  1
  O  O291  1  0.38359657  0.12620981  0.13334591  1
  O  O292  1  0.37092879  0.13548166  0.62660718  1
  O  O293  1  0.37687617  0.63256765  0.13285753  1
  O  O294  1  0.38273673  0.62984046  0.62877380  1
  O  O295  1  0.87814478  0.13441895  0.13652922  1
  O  O296  1  0.88378685  0.13772464  0.62539037  1
  O  O297  1  0.88481700  0.63329770  0.12719872  1
  O  O298  1  0.88456640  0.62280069  0.63015387  1
  O  O299  1  0.24903042  0.26178152  0.12945446  1
  O  O300  1  0.25644513  0.25497316  0.62107918  1
  O  O301  1  0.25535685  0.75862018  0.12441850  1
  O  O302  1  0.25885733  0.75486748  0.61888678  1
  O  O303  1  0.76042194  0.25705548  0.12408149  1
  O  O304  1  0.76003543  0.25006699  0.61861446  1
  O  O305  1  0.76443721  0.75278125  0.12964014  1
  O  O306  1  0.74041888  0.77108230  0.62061893  1
  O  O307  1  0.23910428  0.25185178  0.38460484  1
  O  O308  1  0.23829467  0.23602909  0.86644162  1
  O  O309  1  0.25297252  0.75333310  0.39115481  1
  O  O310  1  0.24600669  0.74121141  0.87678352  1
  O  O311  1  0.74396982  0.25331751  0.38228358  1
  O  O312  1  0.74344453  0.23995182  0.87877381  1
  O  O313  1  0.73750090  0.74678542  0.36041733  1
  O  O314  1  0.74174574  0.76914657  0.88941156  1
  O  O315  1  0.01316705  0.11678856  0.00231058  1
  O  O316  1  -0.00121225  0.12407739  0.51054412  1
  O  O317  1  0.00876428  0.62744965  0.01336573  1
  O  O318  1  -0.00598520  0.62072491  0.51082302  1
  O  O319  1  0.49328791  0.11370991  0.01014818  1
  O  O320  1  0.51324131  0.12856259  0.49280959  1
  O  O321  1  0.48634518  0.60906581  0.01764248  1
  O  O322  1  0.49729134  0.61035831  0.50271172  1
  O  O323  1  0.49618786  0.38903759  0.50250146  1
  O  O324  1  0.48873672  0.38288656  1.00314163  1
  O  O325  1  0.49702040  0.87600137  0.48919260  1
  O  O326  1  0.49039160  0.88009416  0.99080242  1
  O  O327  1  0.99401031  0.36937032  0.48678185  1
  O  O328  1  1.04725328  0.38357450  0.98335270  1
  O  O329  1  1.00711497  0.87899543  0.48944783  1
  O  O330  1  0.99165050  0.88355068  0.99908688  1
  O  O331  1  0.49512308  0.49923487  0.38184560  1
  O  O332  1  0.48504709  0.49196068  0.88579293  1
  O  O333  1  0.48986292  0.99338909  0.37692466  1
  O  O334  1  0.49330466  0.99503143  0.88361721  1
  O  O335  1  0.99749062  0.49735223  0.38332835  1
  O  O336  1  0.99354252  0.49269742  0.87816645  1
  O  O337  1  0.99472816  0.99474175  0.38190651  1
  O  O338  1  0.99623094  1.00172004  0.88204901  1
  O  O339  1  0.00687607  0.00271185  0.11784843  1
  O  O340  1  0.00845620  0.01015819  0.61693489  1
  O  O341  1  0.00993272  0.50800093  0.12608496  1
  O  O342  1  0.00764701  0.51251193  0.63335878  1
  O  O343  1  0.50272307  0.00828125  0.11954977  1
  O  O344  1  0.51242239  0.00676394  0.62137273  1
  O  O345  1  0.49657543  0.50574280  0.11867702  1
  O  O346  1  0.49636533  0.50878153  0.62349352  1
  O  O347  1  0.25088083  0.37311921  0.24560697  1
  O  O348  1  0.24879884  0.37524943  0.74005620  1
  O  O349  1  0.24135590  0.87872549  0.24801138  1
  O  O350  1  0.25014250  0.87762894  0.73742033  1
  O  O351  1  0.74293809  0.38601427  0.23999338  1
  O  O352  1  0.73347725  0.36316999  0.74790480  1
  O  O353  1  0.74161296  0.88629408  0.25030955  1
  O  O354  1  0.74167397  0.89583245  0.76020693  1
  O  O355  1  0.26315503  0.11963827  0.24563841  1
  O  O356  1  0.25231955  0.11429691  0.75783865  1
  O  O357  1  0.26020577  0.62905310  0.25050603  1
  O  O358  1  0.26105511  0.61679584  0.75590864  1
  O  O359  1  0.75797748  0.12234242  0.25275276  1
  O  O360  1  0.75458045  0.11723208  0.76131756  1
  O  O361  1  0.74828070  0.61022559  0.24260941  1
  O  O362  1  0.69669274  0.62276969  0.76450569  1
  O  O363  1  0.37988436  0.11529633  0.36562327  1
  O  O364  1  0.36121055  0.12825920  0.87563823  1
  O  O365  1  0.37867022  0.62983029  0.35796760  1
  O  O366  1  0.37807099  0.61496596  0.86846079  1
  O  O367  1  0.87538887  0.12320751  0.36309307  1
  O  O368  1  0.87368905  0.11486607  0.87300153  1
  O  O369  1  0.88121359  0.61211699  0.37394783  1
  O  O370  1  0.87642574  0.60669472  0.88817432  1
  O  O371  1  0.13343807  0.38476782  0.12820210  1
  O  O372  1  0.13333714  0.37943633  0.63440666  1
  O  O373  1  0.12840883  0.88003766  0.13544349  1
  O  O374  1  0.13391968  0.88002506  0.62461369  1
  O  O375  1  0.63340990  0.36723615  0.13890680  1
  O  O376  1  0.62651109  0.36306304  0.63990947  1
  O  O377  1  0.62187799  0.88202388  0.14370320  1
  O  O378  1  0.61936367  0.89524340  0.62235475  1
  O  O379  1  0.11244187  0.24538189  0.25880495  1
  O  O380  1  0.11964386  0.25222349  0.75230746  1
  O  O381  1  0.11030352  0.75901214  0.24601536  1
  O  O382  1  0.13058565  0.74746336  0.76200782  1
  O  O383  1  0.61869940  0.25610996  0.25612110  1
  O  O384  1  0.61846902  0.25030103  0.75825982  1
  O  O385  1  0.61564619  0.75976162  0.25626892  1
  O  O386  1  0.60964792  0.75612205  0.74344970  1
  O  O387  1  0.38202011  0.24169881  0.24823087  1
  O  O388  1  0.38359404  0.24583687  0.74162397  1
  O  O389  1  0.37933225  0.74818246  0.23950009  1
  O  O390  1  0.37969134  0.74377486  0.73527663  1
  O  O391  1  0.88495672  0.24686820  0.24639447  1
  O  O392  1  0.88384163  0.24947390  0.74291327  1
  O  O393  1  0.88411362  0.75219274  0.24437212  1
  O  O394  1  0.87877038  0.78662313  0.73368489  1
  O  O395  1  0.38770493  0.48923556  0.50344140  1
  O  O396  1  0.37769849  0.48951150  0.99519721  1
  O  O397  1  0.37694165  0.99389823  0.49317505  1
  O  O398  1  0.38361151  0.98583273  1.01093867  1
  O  O399  1  0.86895032  0.48994178  0.49187842  1
  O  O400  1  0.88324494  0.48846869  0.99026955  1
  O  O401  1  0.88087003  1.01601925  0.48410680  1
  O  O402  1  0.88874566  1.00019060  0.99685437  1
  O  O403  1  0.11661799  0.00184263  0.00399040  1
  O  O404  1  0.12112356  -0.00406310  0.51121370  1
  O  O405  1  0.12728976  0.51816950  0.00947043  1
  O  O406  1  0.11654631  0.49252456  0.51410610  1
  O  O407  1  0.60920294  -0.01226921  0.00261117  1
  O  O408  1  0.62495799  0.01285375  0.50775942  1
  O  O409  1  0.61475437  0.49023228  -0.00000244  1
  O  O410  1  0.61027486  0.50966595  0.49023142  1
  O  O411  1  0.36241944  0.37354874  0.11745701  1
  O  O412  1  0.37071177  0.36348501  0.62055910  1
  O  O413  1  0.36920330  0.86942388  0.12353077  1
  O  O414  1  0.36982539  0.86671169  0.61670338  1
  O  O415  1  0.86510011  0.36784889  0.13274910  1
  O  O416  1  0.87979862  0.36486346  0.62025007  1
  O  O417  1  0.87776912  0.86817209  0.12119853  1
  O  O418  1  0.85891385  0.89846600  0.59969544  1
  O  O419  1  0.12032010  0.13367851  0.37619437  1
  O  O420  1  0.13222736  0.12759557  0.88013731  1
  O  O421  1  0.10652607  0.60838502  0.39664150  1
  O  O422  1  0.13138350  0.62980646  0.88378042  1
  O  O423  1  0.62784458  0.13954580  0.38067950  1
  O  O424  1  0.63539765  0.13117993  0.87351268  1
  O  O425  1  0.61688452  0.63429629  0.38390105  1
  O  O426  1  0.58498040  0.63034057  0.89266525  1
