# generated using pymatgen
data_V85Zn86O256
_symmetry_space_group_name_H-M   'P 1'
_cell_length_a   16.95484932
_cell_length_b   16.96162465
_cell_length_c   16.94935962
_cell_angle_alpha   90.04544541
_cell_angle_beta   89.93820377
_cell_angle_gamma   89.95275143
_symmetry_Int_Tables_number   1
_chemical_formula_structural   V85Zn86O256
_chemical_formula_sum   'V85 Zn86 O256'
_cell_volume   4874.32115126
_cell_formula_units_Z   1
loop_
 _symmetry_equiv_pos_site_id
 _symmetry_equiv_pos_as_xyz
  1  'x, y, z'
loop_
 _atom_site_type_symbol
 _atom_site_label
 _atom_site_symmetry_multiplicity
 _atom_site_fract_x
 _atom_site_fract_y
 _atom_site_fract_z
 _atom_site_occupancy
  V  V0  1  0.49459837  0.87569901  0.88290581  1
  V  V1  1  0.23943595  0.36693446  0.12318605  1
  V  V2  1  0.25357778  0.62627906  0.37101899  1
  V  V3  1  0.12282294  0.74640949  0.37199989  1
  V  V4  1  0.24496695  -0.01228457  0.74948014  1
  V  V5  1  0.75539096  0.00612253  0.25704192  1
  V  V6  1  0.63221246  0.38451636  0.23144788  1
  V  V7  1  0.62693940  0.12490421  0.00790811  1
  V  V8  1  0.37655359  0.37247976  0.49880915  1
  V  V9  1  0.75425039  0.37221492  0.61969250  1
  V  V10  1  0.24600742  0.25140136  0.49574900  1
  V  V11  1  0.87327156  0.61909896  0.24143024  1
  V  V12  1  0.49556496  0.00303251  0.00641449  1
  V  V13  1  0.12812980  0.25877357  0.36793107  1
  V  V14  1  0.75721083  0.24530506  -0.00492864  1
  V  V15  1  0.87285001  0.49705059  0.87349784  1
  V  V16  1  0.88302723  0.74755584  0.12587707  1
  V  V17  1  0.49018738  0.75408451  0.23663356  1
  V  V18  1  0.62229333  0.36905891  0.74874245  1
  V  V19  1  0.00296328  0.00074497  0.00169437  1
  V  V20  1  -0.00161145  0.37402368  0.87936968  1
  V  V21  1  0.49782468  0.37458623  0.88146766  1
  V  V22  1  0.12167577  0.50826598  0.12988734  1
  V  V23  1  0.50824983  0.23836089  0.24799299  1
  V  V24  1  0.25162479  0.37333053  0.62608334  1
  V  V25  1  0.00652284  0.12034174  0.61407757  1
  V  V26  1  0.50221522  0.12723726  0.62481317  1
  V  V27  1  0.62480862  0.62747454  0.50512072  1
  V  V28  1  0.12637299  0.88299902  0.24697861  1
  V  V29  1  0.00470514  0.24887301  0.75019572  1
  V  V30  1  0.24267038  0.62685175  0.87905432  1
  V  V31  1  0.24255283  0.49303935  0.25120568  1
  V  V32  1  -0.00565527  0.49226128  0.50042586  1
  V  V33  1  0.62141166  0.75046847  0.37530215  1
  V  V34  1  0.74977261  0.74234832  -0.01317070  1
  V  V35  1  0.18455442  0.07902884  0.44268487  1
  V  V36  1  0.49988786  -0.00046346  0.49408798  1
  V  V37  1  0.87089615  0.25018775  0.12428820  1
  V  V38  1  0.36983441  0.87402021  0.50369443  1
  V  V39  1  -0.00269251  0.12544286  0.12762830  1
  V  V40  1  0.25009383  0.49768867  0.75509409  1
  V  V41  1  0.87331877  0.74931683  0.62468393  1
  V  V42  1  0.87296707  0.12666674  0.75208754  1
  V  V43  1  0.12867158  0.13386464  0.00200628  1
  V  V44  1  0.62388826  0.49751845  0.62432539  1
  V  V45  1  0.87554214  0.87633256  -0.00029525  1
  V  V46  1  0.00198932  0.50427486  0.00377974  1
  V  V47  1  -0.00065072  0.62289221  0.62261577  1
  V  V48  1  0.86626264  0.50031422  0.37788484  1
  V  V49  1  0.37390929  0.24124546  0.11916669  1
  V  V50  1  0.36990623  0.62704267  0.74871462  1
  V  V51  1  0.49763325  0.62695133  0.62697742  1
  V  V52  1  0.26270534  0.87897407  0.12838200  1
  V  V53  1  0.49999877  0.49916363  0.50043348  1
  V  V54  1  0.42199930  0.58145960  0.19935708  1
  V  V55  1  0.82358080  0.42431257  0.05324847  1
  V  V56  1  0.62670301  0.00214948  0.62549712  1
  V  V57  1  0.37101920  0.37838226  0.00186440  1
  V  V58  1  0.87760782  0.88013583  0.49972858  1
  V  V59  1  0.49985942  0.75225097  0.75578503  1
  V  V60  1  0.37264383  0.12324604  0.75116170  1
  V  V61  1  0.35856194  0.12131044  0.25454233  1
  V  V62  1  0.74804429  0.87345471  0.62663597  1
  V  V63  1  0.62881744  0.24241622  0.87569128  1
  V  V64  1  0.87769950  0.25161824  0.61837409  1
  V  V65  1  0.37746250  0.50229159  0.37697304  1
  V  V66  1  0.87465502  0.62512373  0.75431734  1
  V  V67  1  0.74752524  0.75079967  0.50280936  1
  V  V68  1  0.62459876  0.87538621  0.75796185  1
  V  V69  1  0.00700647  0.87765158  0.87025642  1
  V  V70  1  0.00721449  0.75354917  0.74951291  1
  V  V71  1  0.00018782  0.37854013  0.36765865  1
  V  V72  1  0.24915957  0.12946225  0.87789982  1
  V  V73  1  0.12572637  0.49808810  0.62358631  1
  V  V74  1  0.75223838  0.24764960  0.48767855  1
  V  V75  1  0.75036141  0.00360387  0.75318734  1
  V  V76  1  0.12448054  -0.00792148  0.62784033  1
  V  V77  1  0.75100927  0.87414231  0.12408850  1
  V  V78  1  0.25705394  0.75659487  0.00686922  1
  V  V79  1  0.62565051  0.87561935  0.24992878  1
  V  V80  1  0.87109353  0.00574914  0.87639033  1
  V  V81  1  0.75016023  0.49940585  0.75177989  1
  V  V82  1  0.63064637  0.12884714  0.48695217  1
  V  V83  1  -0.00382275  0.87772442  0.37454560  1
  V  V84  1  0.51121465  0.36881965  0.37314120  1
  Zn  Zn85  1  0.86820458  0.13574099  0.25970900  1
  Zn  Zn86  1  0.00173317  0.25552993  0.24742674  1
  Zn  Zn87  1  0.00247972  0.74522469  0.24542942  1
  Zn  Zn88  1  0.87641343  0.00962006  0.38444282  1
  Zn  Zn89  1  0.37800001  0.50428872  0.88395539  1
  Zn  Zn90  1  0.49745269  0.24667206  0.75143312  1
  Zn  Zn91  1  0.12846339  0.25402638  0.87990666  1
  Zn  Zn92  1  0.36088571  0.00346503  0.37289125  1
  Zn  Zn93  1  0.36547986  0.76261536  0.63224994  1
  Zn  Zn94  1  0.37140263  -0.00228827  0.88052597  1
  Zn  Zn95  1  0.62523793  0.00385298  0.12658149  1
  Zn  Zn96  1  0.12561160  0.75603207  0.87641399  1
  Zn  Zn97  1  0.55094798  0.56849036  0.06794011  1
  Zn  Zn98  1  0.61550513  0.64140896  -0.06132293  1
  Zn  Zn99  1  0.37277951  0.24742493  0.62361069  1
  Zn  Zn100  1  0.11796329  0.63294713  0.00787553  1
  Zn  Zn101  1  0.74886880  0.62333014  0.37273791  1
  Zn  Zn102  1  0.12667155  0.37255959  0.75255389  1
  Zn  Zn103  1  0.13004508  0.00188303  0.12931314  1
  Zn  Zn104  1  0.12526490  0.62346697  0.49700276  1
  Zn  Zn105  1  0.49365850  0.87612623  0.37278205  1
  Zn  Zn106  1  0.24813148  0.74763917  0.50540327  1
  Zn  Zn107  1  0.18605011  0.18705426  0.18762791  1
  Zn  Zn108  1  0.18769237  0.18340843  0.68590810  1
  Zn  Zn109  1  0.19524537  0.68793242  0.19053609  1
  Zn  Zn110  1  0.18650382  0.68755393  0.68544877  1
  Zn  Zn111  1  0.68950133  0.19277255  0.18587408  1
  Zn  Zn112  1  0.69031637  0.18744291  0.68425614  1
  Zn  Zn113  1  0.68996224  0.69166915  0.19007419  1
  Zn  Zn114  1  0.67107693  0.67028136  0.72947162  1
  Zn  Zn115  1  0.31670181  0.31087975  0.31022026  1
  Zn  Zn116  1  0.31349712  0.30837877  0.81384768  1
  Zn  Zn117  1  0.31176001  0.81704512  0.31452916  1
  Zn  Zn118  1  0.31379125  0.81129472  0.81996862  1
  Zn  Zn119  1  0.81489608  0.32110030  0.30844822  1
  Zn  Zn120  1  0.81340128  0.31273074  0.81113726  1
  Zn  Zn121  1  0.81128266  0.80970082  0.31232105  1
  Zn  Zn122  1  0.81982072  0.81748942  0.81121033  1
  Zn  Zn123  1  0.18668167  0.43681725  0.43814445  1
  Zn  Zn124  1  0.18501173  0.43595052  0.94205630  1
  Zn  Zn125  1  0.18066935  0.91904724  0.44449994  1
  Zn  Zn126  1  0.18861557  0.94049454  0.94083159  1
  Zn  Zn127  1  0.68769651  0.43427986  0.43889686  1
  Zn  Zn128  1  0.67829403  0.44180439  0.93575928  1
  Zn  Zn129  1  0.68655038  0.93701809  0.43649713  1
  Zn  Zn130  1  0.68686898  0.93761433  0.93875876  1
  Zn  Zn131  1  0.31295326  0.06228513  0.06588975  1
  Zn  Zn132  1  0.31668301  0.05503060  0.57042027  1
  Zn  Zn133  1  0.30395115  0.55937416  0.05991024  1
  Zn  Zn134  1  0.31016202  0.56564714  0.56233601  1
  Zn  Zn135  1  0.81010876  0.06491930  0.06458414  1
  Zn  Zn136  1  0.81314485  0.06499884  0.56453894  1
  Zn  Zn137  1  0.71414527  0.57042852  0.07134761  1
  Zn  Zn138  1  0.81199885  0.56299644  0.56276344  1
  Zn  Zn139  1  0.43805439  0.41436421  0.18697220  1
  Zn  Zn140  1  0.43610165  0.43558191  0.68970477  1
  Zn  Zn141  1  0.43838571  0.94245176  0.18769007  1
  Zn  Zn142  1  0.43748532  0.94180945  0.68739453  1
  Zn  Zn143  1  0.94037745  0.44371144  0.19310168  1
  Zn  Zn144  1  0.93876574  0.43312591  0.68861100  1
  Zn  Zn145  1  0.93877977  0.93511139  0.18897131  1
  Zn  Zn146  1  0.93887365  0.93847144  0.68565424  1
  Zn  Zn147  1  0.05332099  0.06165250  0.31190726  1
  Zn  Zn148  1  0.06374883  0.06390697  0.81146660  1
  Zn  Zn149  1  0.05835598  0.56428394  0.31040166  1
  Zn  Zn150  1  0.06152263  0.56195874  0.81245482  1
  Zn  Zn151  1  0.56494541  0.06137107  0.31102573  1
  Zn  Zn152  1  0.56091748  0.06144477  0.81701192  1
  Zn  Zn153  1  0.56972391  0.56279395  0.31162164  1
  Zn  Zn154  1  0.55633189  0.55456511  0.81117843  1
  Zn  Zn155  1  0.43613824  0.18636148  0.43293103  1
  Zn  Zn156  1  0.43929064  0.18595616  0.93837351  1
  Zn  Zn157  1  0.43891646  0.68896474  0.43463218  1
  Zn  Zn158  1  0.43179311  0.68896359  0.93773897  1
  Zn  Zn159  1  0.93928354  0.19126224  0.43461682  1
  Zn  Zn160  1  0.93928151  0.18737936  0.93786783  1
  Zn  Zn161  1  0.93767701  0.68569272  0.43561711  1
  Zn  Zn162  1  0.93327954  0.68662830  0.93748515  1
  Zn  Zn163  1  0.05801353  0.31642392  0.06302982  1
  Zn  Zn164  1  0.06483256  0.31237742  0.55832442  1
  Zn  Zn165  1  0.06692012  0.81378231  0.06112309  1
  Zn  Zn166  1  0.06051049  0.80897987  0.55781777  1
  Zn  Zn167  1  0.55995906  0.31044461  0.06279089  1
  Zn  Zn168  1  0.56435003  0.30796702  0.55980151  1
  Zn  Zn169  1  0.56779813  0.80722302  0.05929984  1
  Zn  Zn170  1  0.55688275  0.81430084  0.56829601  1
  O  O171  1  0.11842663  0.12176067  0.11926828  1
  O  O172  1  0.11191499  0.11651149  0.62930015  1
  O  O173  1  0.13076179  0.61265885  0.12727808  1
  O  O174  1  0.11804421  0.61123050  0.62472827  1
  O  O175  1  0.62764185  0.12662109  0.11165962  1
  O  O176  1  0.61859308  0.11962736  0.62086591  1
  O  O177  1  0.63244887  0.61631039  0.13390154  1
  O  O178  1  0.61629282  0.61747989  0.62768212  1
  O  O179  1  0.38393619  0.38553460  0.37734607  1
  O  O180  1  0.37978489  0.36932057  0.88554762  1
  O  O181  1  0.37492202  0.88495683  0.38489260  1
  O  O182  1  0.38974873  0.88018880  0.87253689  1
  O  O183  1  0.88481294  0.38874461  0.37112870  1
  O  O184  1  0.88934297  0.38179800  0.86534253  1
  O  O185  1  0.88029896  0.87300426  0.38291523  1
  O  O186  1  0.88608503  0.88594192  0.88054750  1
  O  O187  1  0.23801080  0.01143452  0.38807089  1
  O  O188  1  0.24973665  0.00781461  0.86580340  1
  O  O189  1  0.25772704  0.50071545  0.36850567  1
  O  O190  1  0.24967973  0.50611393  0.86963917  1
  O  O191  1  0.75215432  -0.00619398  0.35970372  1
  O  O192  1  0.76396061  -0.00523715  0.87044929  1
  O  O193  1  0.76230705  0.50080400  0.38482155  1
  O  O194  1  0.76597782  0.48614551  0.86596448  1
  O  O195  1  0.24099750  0.49168770  0.13326242  1
  O  O196  1  0.24298710  0.49544950  0.63166161  1
  O  O197  1  0.24668568  0.98307544  0.11737174  1
  O  O198  1  0.24070724  1.00373610  0.64023828  1
  O  O199  1  0.77612162  0.48455011  0.11482982  1
  O  O200  1  0.74507013  0.49017664  0.62850109  1
  O  O201  1  0.74910011  0.98816114  0.13125427  1
  O  O202  1  0.74637331  0.99414444  0.63349060  1
  O  O203  1  0.00205288  0.37617016  0.26300769  1
  O  O204  1  0.00400181  0.36425836  0.75491581  1
  O  O205  1  0.00742010  0.86834106  0.25543442  1
  O  O206  1  -0.00852151  0.86534718  0.75779587  1
  O  O207  1  0.50928267  0.36392712  0.25722358  1
  O  O208  1  0.50733644  0.36699917  0.75280561  1
  O  O209  1  0.50763001  0.86930243  0.25051557  1
  O  O210  1  0.50521280  0.87191517  0.75472803  1
  O  O211  1  0.50076660  0.13650493  0.25197178  1
  O  O212  1  0.49269832  0.12225941  0.74261160  1
  O  O213  1  0.49391742  0.63541418  0.25397852  1
  O  O214  1  0.48776189  0.63274423  0.74880320  1
  O  O215  1  0.99908285  0.12719059  0.23526241  1
  O  O216  1  0.99193209  0.13244143  0.74431738  1
  O  O217  1  0.98151858  0.62983516  0.25617905  1
  O  O218  1  0.99199061  0.62959616  0.74348449  1
  O  O219  1  0.38047109  0.25251176  0.01397632  1
  O  O220  1  0.36461261  0.25420534  0.49866923  1
  O  O221  1  0.35606989  0.75170854  -0.00403605  1
  O  O222  1  0.38025755  0.76613012  0.49808526  1
  O  O223  1  0.86535394  0.24707433  0.00291535  1
  O  O224  1  0.86950866  0.24526444  0.51310984  1
  O  O225  1  0.87145347  0.75837370  0.00639195  1
  O  O226  1  0.86703365  0.75638279  0.50440826  1
  O  O227  1  0.13831350  0.25170933  0.49142845  1
  O  O228  1  0.11805067  0.23709925  1.00025123  1
  O  O229  1  0.12696295  0.74730942  0.48572524  1
  O  O230  1  0.13318078  0.74765646  0.99590281  1
  O  O231  1  0.63466862  0.23610108  0.50299413  1
  O  O232  1  0.63215042  0.24445539  0.99422473  1
  O  O233  1  0.62592940  0.74776131  0.49682011  1
  O  O234  1  0.64367453  0.74602071  0.99671736  1
  O  O235  1  0.48810790  0.25559484  0.13985214  1
  O  O236  1  0.49937927  0.23644415  0.62556462  1
  O  O237  1  0.50206724  0.75305411  0.13724854  1
  O  O238  1  0.49170086  0.74509707  0.63771135  1
  O  O239  1  0.98999916  0.24372399  0.12303619  1
  O  O240  1  0.99707539  0.24377321  0.62989876  1
  O  O241  1  0.98686382  0.75435338  0.12162317  1
  O  O242  1  0.99489839  0.74455347  0.63105544  1
  O  O243  1  0.00893037  0.26337003  0.37756370  1
  O  O244  1  0.00087916  0.25655413  0.86750984  1
  O  O245  1  0.00744313  0.75729778  0.37364513  1
  O  O246  1  -0.00213204  0.75937953  0.86746011  1
  O  O247  1  0.49372639  0.25732729  0.36001801  1
  O  O248  1  0.50849368  0.25724414  0.87287210  1
  O  O249  1  0.51135941  0.75272747  0.36893238  1
  O  O250  1  0.49576478  0.76016900  0.86325987  1
  O  O251  1  0.25285713  0.13159024  0.50181542  1
  O  O252  1  0.23965594  0.11591233  0.99199959  1
  O  O253  1  0.24726337  0.62121073  0.48429152  1
  O  O254  1  0.24640544  0.63503527  0.99401979  1
  O  O255  1  0.73837478  0.13140112  0.50628332  1
  O  O256  1  0.74247332  0.13426004  0.99840319  1
  O  O257  1  0.74149342  0.63492074  0.50261384  1
  O  O258  1  0.76645571  0.64393848  0.99718203  1
  O  O259  1  0.25583317  0.37314110  0.01029758  1
  O  O260  1  0.25661451  0.36919796  0.50544077  1
  O  O261  1  0.24457675  0.86531784  0.01057922  1
  O  O262  1  0.26557456  0.87112633  0.50026989  1
  O  O263  1  0.75315477  0.37020289  -0.00057237  1
  O  O264  1  0.74226969  0.36445808  0.51378269  1
  O  O265  1  0.75597298  0.87146879  0.00714294  1
  O  O266  1  0.75241420  0.86803862  0.50593630  1
  O  O267  1  0.13192429  0.50027043  0.24512082  1
  O  O268  1  0.13535390  0.49873370  0.74350111  1
  O  O269  1  0.12091014  0.98661245  0.25137438  1
  O  O270  1  0.13634289  1.00109955  0.74437467  1
  O  O271  1  0.62244990  0.48277036  0.25429027  1
  O  O272  1  0.62775544  0.48232467  0.74193580  1
  O  O273  1  0.63438416  0.99270907  0.24782865  1
  O  O274  1  0.63076818  0.99695841  0.74665698  1
  O  O275  1  0.38062158  0.01707301  0.25242518  1
  O  O276  1  0.36469050  0.00885847  0.75028108  1
  O  O277  1  0.37185967  0.50326425  0.25482317  1
  O  O278  1  0.36210851  0.50551703  0.75141365  1
  O  O279  1  0.86055285  -0.00245516  0.24941357  1
  O  O280  1  0.87196432  0.00768574  0.75675581  1
  O  O281  1  0.87567451  0.51181772  0.25899105  1
  O  O282  1  0.87429730  0.50537476  0.75552371  1
  O  O283  1  0.11687898  0.36871591  0.37866783  1
  O  O284  1  0.11492883  0.37329516  0.87268777  1
  O  O285  1  0.11751083  0.86562184  0.36833362  1
  O  O286  1  0.11034864  0.87897467  0.87863361  1
  O  O287  1  0.61265917  0.37489718  0.37668298  1
  O  O288  1  0.61740534  0.36682613  0.86827068  1
  O  O289  1  0.62250037  0.86959803  0.36461144  1
  O  O290  1  0.61728953  0.88180348  0.86241124  1
  O  O291  1  0.37007804  0.13225869  0.13684679  1
  O  O292  1  0.38440989  0.12479226  0.63222240  1
  O  O293  1  0.36302871  0.62838850  0.13550401  1
  O  O294  1  0.37977941  0.62010449  0.63798737  1
  O  O295  1  0.88126832  0.13348405  0.12724940  1
  O  O296  1  0.88631169  0.13017207  0.63196763  1
  O  O297  1  0.87168034  0.63309296  0.13934743  1
  O  O298  1  0.88311150  0.63003842  0.62914289  1
  O  O299  1  0.25798734  0.25828792  0.13259416  1
  O  O300  1  0.24875175  0.25568813  0.61709834  1
  O  O301  1  0.24557252  0.76015591  0.11434861  1
  O  O302  1  0.25604612  0.73882843  0.61822929  1
  O  O303  1  0.76330953  0.24848513  0.11437335  1
  O  O304  1  0.76011350  0.25479913  0.61990590  1
  O  O305  1  0.76079959  0.76207140  0.11875637  1
  O  O306  1  0.75609356  0.75796365  0.62056934  1
  O  O307  1  0.24277017  0.25833005  0.38209860  1
  O  O308  1  0.24602245  0.23438093  0.87067865  1
  O  O309  1  0.24476349  0.74071341  0.37547817  1
  O  O310  1  0.24534124  0.74496977  0.88410684  1
  O  O311  1  0.76149546  0.25670806  0.38939303  1
  O  O312  1  0.74209941  0.25746468  0.88321267  1
  O  O313  1  0.73637141  0.75256316  0.38418874  1
  O  O314  1  0.76035510  0.75850898  0.88818545  1
  O  O315  1  0.00450694  0.11917094  0.00925509  1
  O  O316  1  -0.00126936  0.12925664  0.51646622  1
  O  O317  1  -0.00098499  0.60911856  -0.00724246  1
  O  O318  1  0.00258246  0.61479680  0.50647276  1
  O  O319  1  0.51010652  0.11105821  -0.00570800  1
  O  O320  1  0.50961337  0.12203724  0.50456318  1
  O  O321  1  0.50917282  0.62519744  -0.02010280  1
  O  O322  1  0.50492737  0.62095883  0.50700479  1
  O  O323  1  0.49544116  0.37624275  0.49368743  1
  O  O324  1  0.48930643  0.37051308  0.99235548  1
  O  O325  1  0.49435411  0.88479777  0.49791838  1
  O  O326  1  0.51355287  0.88649589  0.99148341  1
  O  O327  1  1.00320503  0.38700279  0.49331713  1
  O  O328  1  1.00357023  0.38670533  0.98907624  1
  O  O329  1  0.98696879  0.86822928  0.49069197  1
  O  O330  1  0.99508041  0.88491811  0.99464690  1
  O  O331  1  0.49411616  0.49473209  0.38067173  1
  O  O332  1  0.49208723  0.47957502  0.86444236  1
  O  O333  1  0.50280128  1.00007999  0.38740454  1
  O  O334  1  0.49863407  0.99292139  0.88585724  1
  O  O335  1  0.99466789  0.49591751  0.38343233  1
  O  O336  1  0.99284612  0.49279717  0.87823188  1
  O  O337  1  0.99713861  0.98247674  0.37281459  1
  O  O338  1  0.99230338  0.99706401  0.87968870  1
  O  O339  1  -0.00082812  0.00696840  0.11690818  1
  O  O340  1  0.00541430  0.01347421  0.63029435  1
  O  O341  1  0.00947874  0.49372515  0.11649526  1
  O  O342  1  0.00588028  0.50051342  0.61977530  1
  O  O343  1  0.50716625  -0.00620912  0.11010276  1
  O  O344  1  0.50489480  0.01041810  0.61464930  1
  O  O345  1  0.47655568  0.51527849  0.14095450  1
  O  O346  1  0.50404675  0.50363110  0.62019767  1
  O  O347  1  0.25830002  0.38682791  0.24127561  1
  O  O348  1  0.24993281  0.38128533  0.74666356  1
  O  O349  1  0.24213386  0.86850792  0.23678843  1
  O  O350  1  0.25483782  0.88931714  0.75643002  1
  O  O351  1  0.72974606  0.36508717  0.24817956  1
  O  O352  1  0.74280806  0.37724013  0.73948342  1
  O  O353  1  0.74402505  0.88028108  0.24347675  1
  O  O354  1  0.74313796  0.88039351  0.74673058  1
  O  O355  1  0.25961976  0.12427421  0.25115775  1
  O  O356  1  0.25613875  0.11730493  0.75616830  1
  O  O357  1  0.25057626  0.61154155  0.26235579  1
  O  O358  1  0.25309235  0.61762619  0.75672062  1
  O  O359  1  0.74899976  0.10932202  0.24261902  1
  O  O360  1  0.76506709  0.12130684  0.74403204  1
  O  O361  1  0.76828589  0.63546248  0.25783182  1
  O  O362  1  0.76966808  0.61335506  0.73534744  1
  O  O363  1  0.37469850  0.12263687  0.36040886  1
  O  O364  1  0.36829007  0.12195645  0.86882604  1
  O  O365  1  0.37073044  0.61146139  0.37931367  1
  O  O366  1  0.36091752  0.62316899  0.86449557  1
  O  O367  1  0.88611245  0.12034432  0.36966788  1
  O  O368  1  0.88210927  0.11690440  0.86529536  1
  O  O369  1  0.87198017  0.61633521  0.37109416  1
  O  O370  1  0.88068186  0.61275129  0.86391672  1
  O  O371  1  0.13474391  0.38168559  0.12130838  1
  O  O372  1  0.13029012  0.38473067  0.62707816  1
  O  O373  1  0.12969110  0.87784446  0.13401062  1
  O  O374  1  0.11434536  0.89347473  0.61276514  1
  O  O375  1  0.61871468  0.38019334  0.13105255  1
  O  O376  1  0.62990334  0.37453208  0.63174617  1
  O  O377  1  0.63424980  0.87260036  0.13563309  1
  O  O378  1  0.62753184  0.88420371  0.63398355  1
  O  O379  1  0.12229090  0.24536790  0.26413916  1
  O  O380  1  0.11381707  0.24818819  0.75078407  1
  O  O381  1  0.12501666  0.75483334  0.25922484  1
  O  O382  1  0.11042473  0.74501417  0.75263371  1
  O  O383  1  0.61185632  0.25575350  0.24278987  1
  O  O384  1  0.62708096  0.25621903  0.75592292  1
  O  O385  1  0.61869158  0.75790546  0.25845088  1
  O  O386  1  0.61152211  0.76564355  0.74129841  1
  O  O387  1  0.38222475  0.23865442  0.24390972  1
  O  O388  1  0.37542343  0.23523043  0.74678910  1
  O  O389  1  0.39201225  0.75647462  0.25589314  1
  O  O390  1  0.37845526  0.74256443  0.75068858  1
  O  O391  1  0.87820839  0.25265721  0.23849966  1
  O  O392  1  0.88359037  0.24367072  0.74170297  1
  O  O393  1  0.87752465  0.74637037  0.24101231  1
  O  O394  1  0.88271065  0.74203613  0.74533406  1
  O  O395  1  0.38012282  0.49361164  0.49437229  1
  O  O396  1  0.36899061  0.48463716  1.00057877  1
  O  O397  1  0.38257588  0.99324241  0.49750084  1
  O  O398  1  0.39174169  1.00528019  1.00034417  1
  O  O399  1  0.88412147  0.50447656  0.49330443  1
  O  O400  1  0.88083219  0.48921872  0.99122171  1
  O  O401  1  0.86535688  0.98450752  0.50137697  1
  O  O402  1  0.88318223  0.99993750  0.99378786  1
  O  O403  1  0.11194363  0.00889773  0.00012231  1
  O  O404  1  0.13432815  0.01260837  0.50393844  1
  O  O405  1  0.11789079  0.50506444  0.00964126  1
  O  O406  1  0.11850425  0.50093852  0.50892357  1
  O  O407  1  0.62121242  0.01003286  0.00003821  1
  O  O408  1  0.62142873  0.00917943  0.50478794  1
  O  O409  1  0.63773268  0.52728161  -0.00719117  1
  O  O410  1  0.61943887  0.50584155  0.50617812  1
  O  O411  1  0.36451998  0.36470869  0.11742137  1
  O  O412  1  0.36963304  0.37103967  0.61861211  1
  O  O413  1  0.36145554  0.87688447  0.13096571  1
  O  O414  1  0.38140295  0.87889619  0.60911210  1
  O  O415  1  0.88366898  0.36904219  0.11848572  1
  O  O416  1  0.86647142  0.36422140  0.63053724  1
  O  O417  1  0.86973578  0.86983804  0.11933414  1
  O  O418  1  0.87062638  0.86919319  0.61913197  1
  O  O419  1  0.11992764  0.13117764  0.38098509  1
  O  O420  1  0.13066681  0.12611224  0.88367713  1
  O  O421  1  0.13210629  0.63072894  0.37348012  1
  O  O422  1  0.13543860  0.62558835  0.87460303  1
  O  O423  1  0.62584714  0.12296340  0.38871669  1
  O  O424  1  0.62231607  0.13849102  0.87984279  1
  O  O425  1  0.62719155  0.63344927  0.38366148  1
  O  O426  1  0.64180268  0.62176614  0.83168103  1
