# generated using pymatgen
data_V85Zn86O256
_symmetry_space_group_name_H-M   'P 1'
_cell_length_a   16.93884775
_cell_length_b   16.95302637
_cell_length_c   16.94307959
_cell_angle_alpha   90.01513183
_cell_angle_beta   90.01297611
_cell_angle_gamma   90.01316033
_symmetry_Int_Tables_number   1
_chemical_formula_structural   V85Zn86O256
_chemical_formula_sum   'V85 Zn86 O256'
_cell_volume   4865.45449553
_cell_formula_units_Z   1
loop_
 _symmetry_equiv_pos_site_id
 _symmetry_equiv_pos_as_xyz
  1  'x, y, z'
loop_
 _atom_site_type_symbol
 _atom_site_label
 _atom_site_symmetry_multiplicity
 _atom_site_fract_x
 _atom_site_fract_y
 _atom_site_fract_z
 _atom_site_occupancy
  V  V0  1  -0.00391354  0.12395920  0.62296572  1
  V  V1  1  0.12079956  0.12882186  0.49375999  1
  V  V2  1  0.75248491  0.25244776  -0.00170713  1
  V  V3  1  0.49474270  0.13195511  0.12238933  1
  V  V4  1  0.75134768  0.37451432  0.12591860  1
  V  V5  1  0.00100350  0.74865363  0.25171789  1
  V  V6  1  0.87660346  0.50016345  0.37464248  1
  V  V7  1  0.61328141  0.87415335  0.26774260  1
  V  V8  1  0.87589110  0.37137426  0.50131559  1
  V  V9  1  0.12429398  0.49791063  0.63269450  1
  V  V10  1  0.12625367  0.12991748  -0.00304740  1
  V  V11  1  0.87623010  0.24984313  0.12588859  1
  V  V12  1  0.24525037  0.25474422  0.49110569  1
  V  V13  1  0.62068766  0.25468094  0.37817992  1
  V  V14  1  0.88078853  0.87340249  0.50298899  1
  V  V15  1  -0.00192153  0.74352905  0.75245011  1
  V  V16  1  0.61926789  0.11778032  0.50467542  1
  V  V17  1  0.13351362  0.74786191  0.87761896  1
  V  V18  1  0.49947522  -0.00004025  -0.00573353  1
  V  V19  1  0.50153749  0.60805992  0.61191238  1
  V  V20  1  0.75194601  0.50270586  0.75829735  1
  V  V21  1  0.12012513  0.49855050  0.12532172  1
  V  V22  1  0.74511579  0.62776863  0.37613509  1
  V  V23  1  0.87454439  -0.00171599  0.87227842  1
  V  V24  1  0.00211989  0.25047984  0.25283106  1
  V  V25  1  0.87482406  0.75046893  0.12506376  1
  V  V26  1  0.74996252  0.75368206  -0.00041200  1
  V  V27  1  0.12972555  0.36940556  0.25291150  1
  V  V28  1  0.87566820  0.62584230  0.24891901  1
  V  V29  1  0.00016212  -0.00084988  -0.00263186  1
  V  V30  1  0.62313553  0.50032508  0.12367136  1
  V  V31  1  0.49900764  0.25818876  0.25109926  1
  V  V32  1  0.87441102  0.12434519  0.25160802  1
  V  V33  1  0.49704381  -0.01068601  0.49779078  1
  V  V34  1  0.26431072  0.25342700  -0.00094653  1
  V  V35  1  0.87918770  0.50551471  0.87814098  1
  V  V36  1  0.35392552  0.86997732  0.49968096  1
  V  V37  1  0.24646715  -0.00202626  0.74427230  1
  V  V38  1  0.73452452  0.41380454  0.60468875  1
  V  V39  1  0.43560722  0.68220221  0.30996700  1
  V  V40  1  0.00035737  0.12637743  0.12485152  1
  V  V41  1  0.62790113  0.37960322  0.74950911  1
  V  V42  1  0.25275835  0.87566109  0.12282871  1
  V  V43  1  0.75506918  0.63015991  0.87147028  1
  V  V44  1  0.00787993  0.38109525  0.86777844  1
  V  V45  1  0.61752390  0.75673174  0.85764974  1
  V  V46  1  0.14656815  0.63003869  0.50216150  1
  V  V47  1  0.00229769  0.50299480  0.50034411  1
  V  V48  1  -0.00502509  0.62429645  0.62514710  1
  V  V49  1  0.11949079  -0.00539159  0.61468959  1
  V  V50  1  0.75281776  0.49998958  0.24779008  1
  V  V51  1  0.88264474  -0.00195320  0.37983211  1
  V  V52  1  0.87325587  0.75159082  0.62747448  1
  V  V53  1  0.24983274  0.00528375  0.24725697  1
  V  V54  1  0.12280952  0.25153129  0.86459323  1
  V  V55  1  0.37523323  0.00182227  0.37402102  1
  V  V56  1  0.62154115  0.63175269  -0.00072405  1
  V  V57  1  0.25326158  0.50959676  0.25713590  1
  V  V58  1  0.74993544  -0.00056593  0.25668331  1
  V  V59  1  0.37249325  0.12555227  0.74622779  1
  V  V60  1  0.62459843  -0.00053129  0.12769910  1
  V  V61  1  0.12883797  0.87097162  0.74502356  1
  V  V62  1  0.74904641  0.24250865  0.50575109  1
  V  V63  1  0.26268793  0.37225986  0.12112153  1
  V  V64  1  0.62668071  0.12543122  0.00126935  1
  V  V65  1  0.38711002  0.49664337  0.37366300  1
  V  V66  1  0.38102612  0.62931287  0.76174170  1
  V  V67  1  0.00703515  0.36984118  0.37757989  1
  V  V68  1  0.12584375  0.00023696  0.12227571  1
  V  V69  1  0.13704563  0.74306074  0.37535204  1
  V  V70  1  0.37412725  0.13319667  0.24779825  1
  V  V71  1  0.37935775  0.87310178  -0.00519172  1
  V  V72  1  0.75074178  0.12532525  0.87092164  1
  V  V73  1  0.25595693  0.50222553  0.76143137  1
  V  V74  1  0.74292097  0.75089622  0.50346604  1
  V  V75  1  0.12503538  0.61278137  -0.00475776  1
  V  V76  1  0.88352113  0.37834716  -0.00107007  1
  V  V77  1  0.50117921  0.25194727  0.74839947  1
  V  V78  1  0.12443289  0.87430472  0.24891241  1
  V  V79  1  0.74588646  -0.01133924  0.73993485  1
  V  V80  1  0.38100686  0.75187331  0.13002344  1
  V  V81  1  0.24624847  0.37601645  0.62648328  1
  V  V82  1  0.74763614  0.87538928  0.12798092  1
  V  V83  1  0.38802731  0.37904485  0.49746428  1
  V  V84  1  0.49411459  0.62692071  0.12578869  1
  Zn  Zn85  1  0.25289037  0.74580458  -0.00203970  1
  Zn  Zn86  1  0.87498357  0.87596605  0.00065467  1
  Zn  Zn87  1  0.49818807  0.12270828  0.62321746  1
  Zn  Zn88  1  0.50039891  0.87405836  0.84570601  1
  Zn  Zn89  1  0.74835205  0.12413501  0.37597470  1
  Zn  Zn90  1  0.24907699  0.12441564  0.87251059  1
  Zn  Zn91  1  0.37332510  0.25071264  0.62143207  1
  Zn  Zn92  1  0.00372980  0.87468261  0.38019393  1
  Zn  Zn93  1  0.62279140  0.25161179  0.87476282  1
  Zn  Zn94  1  0.00097597  0.87303666  0.87388811  1
  Zn  Zn95  1  0.61738637  0.74524241  0.37197791  1
  Zn  Zn96  1  0.47370980  0.49549105  -0.00647086  1
  Zn  Zn97  1  0.35304125  0.74092361  0.62269750  1
  Zn  Zn98  1  0.87565257  0.12702666  0.74710249  1
  Zn  Zn99  1  0.24363387  0.13229026  0.37170946  1
  Zn  Zn100  1  -0.00336646  0.25238623  0.74708908  1
  Zn  Zn101  1  0.87243908  0.25382826  0.62904560  1
  Zn  Zn102  1  0.37230939  -0.00281780  0.86977187  1
  Zn  Zn103  1  0.47573489  0.38189986  0.87345893  1
  Zn  Zn104  1  -0.00155314  0.61979888  0.12152075  1
  Zn  Zn105  1  0.62267548  0.37700680  0.25469705  1
  Zn  Zn106  1  0.58888030  -0.04973916  0.66894086  1
  Zn  Zn107  1  0.18805245  0.19239960  0.18376244  1
  Zn  Zn108  1  0.18691953  0.18563080  0.68053025  1
  Zn  Zn109  1  0.18846904  0.68731113  0.18318426  1
  Zn  Zn110  1  0.19180508  0.68378984  0.68942338  1
  Zn  Zn111  1  0.68515955  0.18787213  0.18909707  1
  Zn  Zn112  1  0.68557340  0.18379440  0.68695061  1
  Zn  Zn113  1  0.68398480  0.69117687  0.19054862  1
  Zn  Zn114  1  0.68746893  0.68064241  0.68344939  1
  Zn  Zn115  1  0.31459267  0.31599667  0.31402441  1
  Zn  Zn116  1  0.30642395  0.30895669  0.80642490  1
  Zn  Zn117  1  0.31035492  0.82023372  0.31614824  1
  Zn  Zn118  1  0.31262736  0.81125247  0.80971877  1
  Zn  Zn119  1  0.81007802  0.31073718  0.31693064  1
  Zn  Zn120  1  0.81230800  0.31700148  0.80879697  1
  Zn  Zn121  1  0.81083936  0.81531939  0.31563384  1
  Zn  Zn122  1  0.81418387  0.81341542  0.81091485  1
  Zn  Zn123  1  0.18968501  0.44271005  0.44020264  1
  Zn  Zn124  1  0.30338920  0.44094734  0.93834843  1
  Zn  Zn125  1  0.18251585  0.94396588  0.42928995  1
  Zn  Zn126  1  0.18917417  0.93504919  0.93210408  1
  Zn  Zn127  1  0.68867698  0.43624602  0.43531372  1
  Zn  Zn128  1  0.61874489  0.44127884  0.93445769  1
  Zn  Zn129  1  0.64720866  0.89274176  0.49670950  1
  Zn  Zn130  1  0.68660302  0.93654891  0.93461492  1
  Zn  Zn131  1  0.31422836  0.06504924  0.05921495  1
  Zn  Zn132  1  0.30710023  0.06360833  0.56207212  1
  Zn  Zn133  1  0.30346306  0.56855803  0.07252964  1
  Zn  Zn134  1  0.31779928  0.56198888  0.56563348  1
  Zn  Zn135  1  0.81304842  0.06176653  0.06296833  1
  Zn  Zn136  1  0.81185671  0.05846342  0.56024825  1
  Zn  Zn137  1  0.81082619  0.56382185  0.05823052  1
  Zn  Zn138  1  0.80704067  0.56503266  0.55750388  1
  Zn  Zn139  1  0.43582138  0.44228096  0.18549273  1
  Zn  Zn140  1  0.43379329  0.43967437  0.68824552  1
  Zn  Zn141  1  0.43827433  0.94338022  0.18574730  1
  Zn  Zn142  1  0.42081522  0.93437725  0.67548295  1
  Zn  Zn143  1  0.93933470  0.43552045  0.18895578  1
  Zn  Zn144  1  0.93091660  0.43978188  0.68962526  1
  Zn  Zn145  1  0.93787472  0.93581856  0.18802072  1
  Zn  Zn146  1  0.93937901  0.93467871  0.68740545  1
  Zn  Zn147  1  0.06191255  0.06226539  0.31188694  1
  Zn  Zn148  1  0.06191563  0.06262028  0.80767035  1
  Zn  Zn149  1  0.06610356  0.56206506  0.31381750  1
  Zn  Zn150  1  0.06542412  0.56161839  0.81417644  1
  Zn  Zn151  1  0.56144202  0.06651737  0.31688319  1
  Zn  Zn152  1  0.56214939  0.06738666  0.81410221  1
  Zn  Zn153  1  0.56657810  0.55733270  0.31408159  1
  Zn  Zn154  1  0.56195238  0.56446583  0.80650302  1
  Zn  Zn155  1  0.43548385  0.18902246  0.43571395  1
  Zn  Zn156  1  0.43742341  0.18791231  0.92776941  1
  Zn  Zn157  1  0.47301685  0.72260857  0.49123493  1
  Zn  Zn158  1  0.43845023  0.68710557  0.93702645  1
  Zn  Zn159  1  0.93819042  0.18606094  0.43897513  1
  Zn  Zn160  1  0.93823636  0.18824279  0.93365291  1
  Zn  Zn161  1  0.93877971  0.68795460  0.43796824  1
  Zn  Zn162  1  0.94340121  0.68715323  0.94083421  1
  Zn  Zn163  1  0.06685471  0.31535041  0.06035461  1
  Zn  Zn164  1  0.06360719  0.31005670  0.56538764  1
  Zn  Zn165  1  0.06219119  0.81020218  0.06191466  1
  Zn  Zn166  1  0.06797289  0.80776760  0.56178846  1
  Zn  Zn167  1  0.56165133  0.31311377  0.06276010  1
  Zn  Zn168  1  0.56390692  0.31113420  0.56723301  1
  Zn  Zn169  1  0.56208966  0.81446944  0.06628367  1
  Zn  Zn170  1  0.54890518  0.79587217  0.65938186  1
  O  O171  1  0.11929410  0.12164690  0.11637608  1
  O  O172  1  0.11534973  0.11786935  0.61568967  1
  O  O173  1  0.12186329  0.61494661  0.12179056  1
  O  O174  1  0.11240732  0.61678919  0.61643997  1
  O  O175  1  0.61898346  0.11810306  0.12029415  1
  O  O176  1  0.62243459  0.12528462  0.60889343  1
  O  O177  1  0.61416972  0.62455392  0.12216748  1
  O  O178  1  0.59977301  0.63366057  0.63330495  1
  O  O179  1  0.37372192  0.38074698  0.38836975  1
  O  O180  1  0.36528646  0.36806915  0.87913146  1
  O  O181  1  0.36870298  0.89617534  0.37707768  1
  O  O182  1  0.38232928  0.87479289  0.88011331  1
  O  O183  1  0.88047403  0.37887155  0.38522360  1
  O  O184  1  0.88287709  0.38106178  0.88301913  1
  O  O185  1  0.87888981  0.88150260  0.38148811  1
  O  O186  1  0.87785310  0.88677513  0.87836364  1
  O  O187  1  0.25280841  0.00941410  0.36165939  1
  O  O188  1  0.24783294  0.00297255  0.85968031  1
  O  O189  1  0.25623133  0.49409999  0.36046748  1
  O  O190  1  0.23466863  0.48966124  0.85706100  1
  O  O191  1  0.76251093  0.00143145  0.36046237  1
  O  O192  1  0.75701707  0.00709039  0.87217198  1
  O  O193  1  0.75654216  0.50617576  0.36602574  1
  O  O194  1  0.75816684  0.51216524  0.87038157  1
  O  O195  1  0.24076066  0.48783256  0.13692923  1
  O  O196  1  0.24072595  0.49368202  0.62938718  1
  O  O197  1  0.24481663  0.99704656  0.12743527  1
  O  O198  1  0.23509495  1.00583997  0.63606582  1
  O  O199  1  0.74635652  0.49699654  0.13136667  1
  O  O200  1  0.77711816  0.50814979  0.65270526  1
  O  O201  1  0.74535828  0.99619871  0.13463523  1
  O  O202  1  0.75304684  1.00197943  0.64085041  1
  O  O203  1  0.00748562  0.37036413  0.25880785  1
  O  O204  1  -0.00452245  0.37396705  0.76388421  1
  O  O205  1  0.00782694  0.86619806  0.24897750  1
  O  O206  1  0.01086392  0.86251401  0.75004715  1
  O  O207  1  0.50119862  0.36085237  0.23838331  1
  O  O208  1  0.50934034  0.36986257  0.75055002  1
  O  O209  1  0.51555390  0.88669016  0.24950122  1
  O  O210  1  0.50550183  0.88225092  0.73152415  1
  O  O211  1  0.49345032  0.13172915  0.24120163  1
  O  O212  1  0.49243483  0.13116676  0.74699526  1
  O  O213  1  0.49986001  0.62862519  0.24608440  1
  O  O214  1  0.48401531  0.62251455  0.74884359  1
  O  O215  1  0.99591162  0.13174510  0.24501764  1
  O  O216  1  0.99794959  0.12766625  0.73843192  1
  O  O217  1  0.99372891  0.63125927  0.24746051  1
  O  O218  1  1.00627388  0.63575832  0.74240504  1
  O  O219  1  0.36292973  0.23893198  -0.00139057  1
  O  O220  1  0.36669423  0.26165695  0.49966049  1
  O  O221  1  0.37523965  0.75785492  0.00896115  1
  O  O222  1  0.36827209  0.77218933  0.47706023  1
  O  O223  1  0.87137416  0.25293420  0.00645070  1
  O  O224  1  0.86790558  0.25613574  0.50096162  1
  O  O225  1  0.87046307  0.75364674  0.00754108  1
  O  O226  1  0.87126611  0.75462420  0.50724282  1
  O  O227  1  0.13238919  0.24137889  0.50258972  1
  O  O228  1  0.12625047  0.23938381  0.99366655  1
  O  O229  1  0.12000673  0.73959879  0.48701957  1
  O  O230  1  0.12676653  0.74753945  0.99120571  1
  O  O231  1  0.62973219  0.24327285  0.49537704  1
  O  O232  1  0.63752233  0.24295408  1.00026972  1
  O  O233  1  0.64248629  0.75455201  0.49056619  1
  O  O234  1  0.63014672  0.74237347  1.00211803  1
  O  O235  1  0.50809775  0.23754554  0.13103364  1
  O  O236  1  0.49617276  0.24766518  0.63620888  1
  O  O237  1  0.48911265  0.74539457  0.12513573  1
  O  O238  1  0.47338172  0.73230169  0.60695016  1
  O  O239  1  0.99553600  0.24586338  0.13044688  1
  O  O240  1  0.99611579  0.24152418  0.62710085  1
  O  O241  1  0.99244577  0.75077806  0.13570688  1
  O  O242  1  0.99554860  0.74187387  0.63176653  1
  O  O243  1  -0.00548819  0.26317780  0.37034238  1
  O  O244  1  0.00504475  0.25918857  0.87231201  1
  O  O245  1  0.00406043  0.75006076  0.36133614  1
  O  O246  1  0.00782096  0.75098415  0.86721826  1
  O  O247  1  0.50834149  0.24562215  0.36402487  1
  O  O248  1  0.50336236  0.25301669  0.86080396  1
  O  O249  1  0.49807067  0.73220914  0.37575313  1
  O  O250  1  0.51510277  0.75304225  0.87631439  1
  O  O251  1  0.24026322  0.13640091  0.49971280  1
  O  O252  1  0.24101371  0.13231304  0.99825305  1
  O  O253  1  0.24232076  0.60879606  0.49195529  1
  O  O254  1  0.22979273  0.63240947  1.01106040  1
  O  O255  1  0.74112414  0.12582282  0.49632323  1
  O  O256  1  0.74957704  0.13231951  0.99279744  1
  O  O257  1  0.76009046  0.63999046  0.48670662  1
  O  O258  1  0.74399731  0.63570477  0.99161913  1
  O  O259  1  0.24524040  0.36747820  0.01430779  1
  O  O260  1  0.25177401  0.36987927  0.50735960  1
  O  O261  1  0.26388491  0.87618494  0.00414960  1
  O  O262  1  0.25566536  0.88373477  0.49161452  1
  O  O263  1  0.76272132  0.36000579  0.00627308  1
  O  O264  1  0.75898183  0.36009796  0.50179222  1
  O  O265  1  0.74980989  0.87063314  0.00890247  1
  O  O266  1  0.76297207  0.85591206  0.49425399  1
  O  O267  1  0.13429267  0.49026209  0.24692105  1
  O  O268  1  0.13165527  0.50593458  0.73728146  1
  O  O269  1  0.12938647  0.99719097  0.24117840  1
  O  O270  1  0.12697350  0.98983779  0.74232482  1
  O  O271  1  0.63251125  0.49884594  0.23835974  1
  O  O272  1  0.63925702  0.49288048  0.75334257  1
  O  O273  1  0.63240374  0.99493020  0.25045749  1
  O  O274  1  0.63940402  1.00728381  0.75292528  1
  O  O275  1  0.37064996  0.01193367  0.25373632  1
  O  O276  1  0.36269330  0.00481842  0.74656384  1
  O  O277  1  0.36102150  0.49214283  0.25690452  1
  O  O278  1  0.36239260  0.50502576  0.75463652  1
  O  O279  1  0.86925772  0.00484645  0.25280219  1
  O  O280  1  0.86652077  0.00152706  0.75741188  1
  O  O281  1  0.87174923  0.50491525  0.25417110  1
  O  O282  1  0.87209058  0.49622614  0.77176363  1
  O  O283  1  0.11691872  0.38127652  0.36744352  1
  O  O284  1  0.10743235  0.36626420  0.88180462  1
  O  O285  1  0.12214543  0.86721760  0.36591520  1
  O  O286  1  0.12136256  0.86633093  0.86627973  1
  O  O287  1  0.62906740  0.36207497  0.37436386  1
  O  O288  1  0.64514964  0.36569402  0.85458424  1
  O  O289  1  0.62374129  0.87283214  0.36920590  1
  O  O290  1  0.62207936  0.85928129  0.87897015  1
  O  O291  1  0.38490323  0.12055593  0.13310306  1
  O  O292  1  0.37347606  0.12697059  0.63480051  1
  O  O293  1  0.38650933  0.63427869  0.12677656  1
  O  O294  1  0.38371644  0.61510947  0.63823480  1
  O  O295  1  0.88167243  0.12920626  0.13111857  1
  O  O296  1  0.88705367  0.12267289  0.62123606  1
  O  O297  1  0.87578056  0.63225423  0.12970808  1
  O  O298  1  0.88816747  0.63509169  0.61884643  1
  O  O299  1  0.24521016  0.26389584  0.11518610  1
  O  O300  1  0.24925073  0.25985216  0.61566803  1
  O  O301  1  0.26462401  0.75717103  0.12770039  1
  O  O302  1  0.24338568  0.72253121  0.60208829  1
  O  O303  1  0.75654402  0.25250296  0.11961113  1
  O  O304  1  0.75191865  0.24285043  0.61136898  1
  O  O305  1  0.75510972  0.75538179  0.12095452  1
  O  O306  1  0.75947470  0.73803951  0.61216543  1
  O  O307  1  0.24985347  0.25175528  0.38643710  1
  O  O308  1  0.23739540  0.24785324  0.88296691  1
  O  O309  1  0.23531302  0.74803706  0.36190226  1
  O  O310  1  0.23709892  0.75375789  0.87704129  1
  O  O311  1  0.74309875  0.24602930  0.38659470  1
  O  O312  1  0.75548520  0.24077204  0.88338665  1
  O  O313  1  0.75286150  0.74106638  0.38134836  1
  O  O314  1  0.74260181  0.74815432  0.87905904  1
  O  O315  1  0.00591506  0.11656182  0.00290845  1
  O  O316  1  0.00870284  0.12943350  0.50822997  1
  O  O317  1  0.01818089  0.63074589  0.00691610  1
  O  O318  1  0.00200685  0.61784878  0.50714913  1
  O  O319  1  0.50319516  0.12033110  0.00363833  1
  O  O320  1  0.50388416  0.11978450  0.50072137  1
  O  O321  1  0.50777425  0.62433374  0.00895126  1
  O  O322  1  0.49712792  0.61125017  0.51011226  1
  O  O323  1  0.48655477  0.37086514  0.50515606  1
  O  O324  1  0.52503783  0.38590011  0.98796437  1
  O  O325  1  0.48626628  0.89071216  0.49193089  1
  O  O326  1  0.48932073  0.88429111  1.00596086  1
  O  O327  1  0.99451067  0.37880415  0.49494011  1
  O  O328  1  0.98836126  0.36843360  0.99172981  1
  O  O329  1  0.98613000  0.86670996  0.49839128  1
  O  O330  1  1.00086060  0.88959428  1.00025796  1
  O  O331  1  0.48722194  0.49480882  0.36336897  1
  O  O332  1  0.52303420  0.49313149  0.88447885  1
  O  O333  1  0.48628828  1.01151431  0.38522732  1
  O  O334  1  0.50184791  0.99593544  0.88555927  1
  O  O335  1  0.99538290  0.48920509  0.37777673  1
  O  O336  1  0.99644387  0.48902991  0.87545636  1
  O  O337  1  0.98675054  0.99551100  0.36742572  1
  O  O338  1  0.99297990  0.99987523  0.88076852  1
  O  O339  1  0.00524470  0.00607180  0.11754583  1
  O  O340  1  0.00949074  0.00801812  0.62957927  1
  O  O341  1  0.01527463  0.49773713  0.13151980  1
  O  O342  1  0.00326029  0.50533914  0.62341580  1
  O  O343  1  0.50522975  0.01070957  0.11420505  1
  O  O344  1  0.49502147  0.00328713  0.60840824  1
  O  O345  1  0.50796395  0.50910997  0.12393112  1
  O  O346  1  0.50141780  0.50717064  0.62894227  1
  O  O347  1  0.24373748  0.37497368  0.24096155  1
  O  O348  1  0.25365374  0.38406473  0.73313626  1
  O  O349  1  0.24444645  0.88531021  0.24162377  1
  O  O350  1  0.23687476  0.88088664  0.75105492  1
  O  O351  1  0.75137949  0.38133107  0.24389530  1
  O  O352  1  0.74729399  0.38720373  0.73683736  1
  O  O353  1  0.74304923  0.88347432  0.24611553  1
  O  O354  1  0.74989859  0.89008859  0.75426762  1
  O  O355  1  0.25713413  0.12440496  0.24595581  1
  O  O356  1  0.25442232  0.11870794  0.74929738  1
  O  O357  1  0.24664621  0.60751036  0.24445696  1
  O  O358  1  0.25711950  0.60781263  0.75048195  1
  O  O359  1  0.75583638  0.11742372  0.25024040  1
  O  O360  1  0.75155143  0.11997923  0.76201420  1
  O  O361  1  0.75726080  0.62106324  0.25365213  1
  O  O362  1  0.74721792  0.62316764  0.76535487  1
  O  O363  1  0.36871879  0.11999842  0.36513580  1
  O  O364  1  0.37220360  0.11951450  0.85934148  1
  O  O365  1  0.38026823  0.61755982  0.36172187  1
  O  O366  1  0.37642325  0.62798248  0.86272070  1
  O  O367  1  0.87436831  0.11696381  0.36939989  1
  O  O368  1  0.86883699  0.11344814  0.87537703  1
  O  O369  1  0.86960523  0.61949218  0.36705404  1
  O  O370  1  0.86774341  0.61853974  0.88599226  1
  O  O371  1  0.12966159  0.38086019  0.13344772  1
  O  O372  1  0.13105789  0.38693037  0.61850630  1
  O  O373  1  0.13179136  0.88020350  0.12795253  1
  O  O374  1  0.11883942  0.88350614  0.63096043  1
  O  O375  1  0.63430166  0.38540870  0.12659253  1
  O  O376  1  0.63891469  0.37199017  0.63185366  1
  O  O377  1  0.63083592  0.88251680  0.13264551  1
  O  O378  1  0.62070979  0.86627542  0.60456881  1
  O  O379  1  0.11926706  0.26169038  0.24734498  1
  O  O380  1  0.12517968  0.24547889  0.76185021  1
  O  O381  1  0.11717462  0.75192073  0.25191359  1
  O  O382  1  0.12126106  0.75296341  0.75644784  1
  O  O383  1  0.61761160  0.25049850  0.25903718  1
  O  O384  1  0.61798794  0.25555209  0.74809875  1
  O  O385  1  0.62777554  0.76876394  0.25415541  1
  O  O386  1  0.62515258  0.75162384  0.75622334  1
  O  O387  1  0.38202089  0.24053198  0.25457075  1
  O  O388  1  0.38051194  0.24166506  0.74531295  1
  O  O389  1  0.37971062  0.75055239  0.25128491  1
  O  O390  1  0.36202111  0.73265461  0.74439221  1
  O  O391  1  0.87992602  0.24511538  0.24574413  1
  O  O392  1  0.87505442  0.24630286  0.74593379  1
  O  O393  1  0.88079186  0.74678432  0.24509726  1
  O  O394  1  0.88450675  0.75376903  0.74157953  1
  O  O395  1  0.36862313  0.48588801  0.48868225  1
  O  O396  1  0.36443411  0.50391229  1.00728971  1
  O  O397  1  0.37709414  0.99968660  0.49228064  1
  O  O398  1  0.38300476  0.99426578  0.99554542  1
  O  O399  1  0.88141063  0.49258740  0.49275005  1
  O  O400  1  0.86971892  0.48919089  0.99185271  1
  O  O401  1  0.86859720  0.98773963  0.49008525  1
  O  O402  1  0.88395132  1.00008350  0.99350503  1
  O  O403  1  0.12064002  0.00974971  0.00093935  1
  O  O404  1  0.12791069  0.00808852  0.50908989  1
  O  O405  1  0.12785686  0.51179674  0.00972716  1
  O  O406  1  0.11877611  0.50858049  0.50775796  1
  O  O407  1  0.61886559  0.00523987  0.00491132  1
  O  O408  1  0.60590904  0.00330377  0.48824403  1
  O  O409  1  0.63984006  0.51954236  0.01578660  1
  O  O410  1  0.69899378  0.48827631  0.53495411  1
  O  O411  1  0.36127834  0.37475814  0.12740367  1
  O  O412  1  0.36573386  0.37657224  0.61219269  1
  O  O413  1  0.37300092  0.87083639  0.12023399  1
  O  O414  1  0.36369856  0.86752683  0.60434015  1
  O  O415  1  0.87219278  0.37062322  0.11840534  1
  O  O416  1  0.86293269  0.38028429  0.61061224  1
  O  O417  1  0.86593152  0.86842805  0.12531352  1
  O  O418  1  0.87922036  0.86121574  0.61898174  1
  O  O419  1  0.12326353  0.12027311  0.38862671  1
  O  O420  1  0.12235532  0.13274377  0.88202435  1
  O  O421  1  0.12003069  0.63196058  0.38722795  1
  O  O422  1  0.12189066  0.63029782  0.88785906  1
  O  O423  1  0.62643402  0.13588321  0.38466430  1
  O  O424  1  0.63495472  0.12890578  0.88341838  1
  O  O425  1  0.64076212  0.62463683  0.36896606  1
  O  O426  1  0.63136481  0.63987137  0.88237999  1
