# generated using pymatgen
data_V85Zn86O256
_symmetry_space_group_name_H-M   'P 1'
_cell_length_a   16.96945008
_cell_length_b   16.94922723
_cell_length_c   16.95070607
_cell_angle_alpha   90.06101791
_cell_angle_beta   90.02093707
_cell_angle_gamma   90.02187466
_symmetry_Int_Tables_number   1
_chemical_formula_structural   V85Zn86O256
_chemical_formula_sum   'V85 Zn86 O256'
_cell_volume   4875.34278951
_cell_formula_units_Z   1
loop_
 _symmetry_equiv_pos_site_id
 _symmetry_equiv_pos_as_xyz
  1  'x, y, z'
loop_
 _atom_site_type_symbol
 _atom_site_label
 _atom_site_symmetry_multiplicity
 _atom_site_fract_x
 _atom_site_fract_y
 _atom_site_fract_z
 _atom_site_occupancy
  V  V0  1  0.62505047  0.49848075  0.13301939  1
  V  V1  1  0.37130765  0.50907380  0.37560114  1
  V  V2  1  0.00564751  0.75009893  0.74765371  1
  V  V3  1  0.50040095  0.37604631  0.37239010  1
  V  V4  1  0.50238578  0.24443407  0.25201755  1
  V  V5  1  0.75902817  0.00282516  0.25186071  1
  V  V6  1  0.49894089  0.12451910  0.12664340  1
  V  V7  1  0.00102421  0.62470904  0.61468204  1
  V  V8  1  0.00249341  0.00237358  0.50089117  1
  V  V9  1  0.74919433  0.50357369  0.75359775  1
  V  V10  1  0.37590051  -0.00596279  0.87761835  1
  V  V11  1  0.24902745  0.37671140  0.12209564  1
  V  V12  1  -0.00526694  0.38696574  0.87501861  1
  V  V13  1  0.63304737  0.74167312  0.87629757  1
  V  V14  1  0.12467946  0.13000181  -0.00439104  1
  V  V15  1  0.00325684  0.62269510  0.12484096  1
  V  V16  1  0.75652843  0.26103941  0.00567421  1
  V  V17  1  0.75186629  0.12808411  0.87866320  1
  V  V18  1  0.63331232  0.62241462  0.00361792  1
  V  V19  1  0.24834093  0.49986348  0.74858403  1
  V  V20  1  0.37634226  0.75339657  0.62314038  1
  V  V21  1  0.12391282  0.49829424  0.62129258  1
  V  V22  1  0.87394473  0.74726647  0.12636163  1
  V  V23  1  0.12415613  0.75147105  0.88109779  1
  V  V24  1  0.00295175  0.87233940  0.86824971  1
  V  V25  1  0.26203103  -0.00382956  0.25911472  1
  V  V26  1  0.38177180  0.62648081  0.24439344  1
  V  V27  1  0.50152308  -0.00483353  0.48262465  1
  V  V28  1  0.12805223  0.61828581  0.00170470  1
  V  V29  1  0.38003252  0.12183277  0.74300267  1
  V  V30  1  0.12842248  0.87774299  0.24523456  1
  V  V31  1  0.24678474  0.50785595  0.24946019  1
  V  V32  1  0.50407939  0.75552153  0.25444601  1
  V  V33  1  -0.00013926  0.75019240  0.25008741  1
  V  V34  1  0.00121853  0.00084565  0.00076966  1
  V  V35  1  0.74830646  -0.00220496  0.75134859  1
  V  V36  1  0.49140511  0.37403147  0.87499545  1
  V  V37  1  0.11760150  0.36169064  0.26102694  1
  V  V38  1  0.35799730  0.87019249  0.00329444  1
  V  V39  1  0.74424460  0.37031572  0.61481074  1
  V  V40  1  0.13268948  -0.00018960  0.12472611  1
  V  V41  1  0.61981697  -0.00227723  0.62602455  1
  V  V42  1  0.12356939  0.36978755  0.75098785  1
  V  V43  1  0.62549336  0.12599384  0.00405644  1
  V  V44  1  0.62288796  0.37339600  0.75139500  1
  V  V45  1  0.25180779  0.25190888  -0.01338709  1
  V  V46  1  0.87582428  0.87073934  0.00061531  1
  V  V47  1  0.25018468  0.87309528  0.62355693  1
  V  V48  1  0.24927378  0.12291815  0.87284217  1
  V  V49  1  0.49907969  0.62678462  0.62393879  1
  V  V50  1  0.00257638  0.87696628  0.37441800  1
  V  V51  1  0.37297754  0.24361288  0.12105120  1
  V  V52  1  0.37427825  0.62523617  0.74813720  1
  V  V53  1  0.86436134  0.25178686  0.62506609  1
  V  V54  1  0.37179516  0.36239973  0.50483329  1
  V  V55  1  -0.00097460  0.12592550  0.62692870  1
  V  V56  1  0.37894572  0.87831152  0.48476491  1
  V  V57  1  0.62497441  0.87268708  0.26421980  1
  V  V58  1  0.50209785  0.87037787  0.88213755  1
  V  V59  1  0.49542043  0.50751544  0.00505047  1
  V  V60  1  0.49737469  0.50280349  0.49814354  1
  V  V61  1  0.87557804  0.87547143  0.49997133  1
  V  V62  1  0.87196260  0.12481736  0.75150788  1
  V  V63  1  0.62392280  0.63293077  0.49597840  1
  V  V64  1  0.89287150  0.50016481  0.38293109  1
  V  V65  1  0.14137775  0.13493955  0.49416603  1
  V  V66  1  0.12492523  -0.00505866  0.62544725  1
  V  V67  1  0.62658170  -0.00172635  0.12768408  1
  V  V68  1  0.88245383  0.14566364  0.24817842  1
  V  V69  1  0.32145957  0.17023369  0.30648732  1
  V  V70  1  0.37040359  0.74808457  0.11936437  1
  V  V71  1  0.24523882  -0.00638908  0.75038477  1
  V  V72  1  0.62434069  0.50180532  0.62435883  1
  V  V73  1  -0.00112984  0.24931337  0.76078817  1
  V  V74  1  0.74899582  0.87256291  0.12651276  1
  V  V75  1  0.74587695  0.61560428  0.36826164  1
  V  V76  1  0.13485389  0.62276124  0.49180164  1
  V  V77  1  0.63239175  0.12872156  0.50123761  1
  V  V78  1  0.91697659  0.35681772  0.48019393  1
  V  V79  1  0.87417041  -0.00122679  0.87635233  1
  V  V80  1  0.25081207  0.63113476  0.87887024  1
  V  V81  1  0.63589576  0.25232221  0.37812941  1
  V  V82  1  0.75016995  0.74960303  0.49329963  1
  V  V83  1  0.62565098  0.87175693  0.75266683  1
  V  V84  1  0.87296539  0.62406105  0.74869614  1
  Zn  Zn85  1  0.23919485  0.34753112  0.60465283  1
  Zn  Zn86  1  0.00207309  0.13862506  0.13594206  1
  Zn  Zn87  1  0.74931437  0.87190452  0.62404752  1
  Zn  Zn88  1  0.63321453  0.37772949  0.24901995  1
  Zn  Zn89  1  0.12446259  0.49742278  0.12417834  1
  Zn  Zn90  1  0.77147851  0.37727983  0.12920885  1
  Zn  Zn91  1  0.49805339  -0.00265050  0.00479964  1
  Zn  Zn92  1  0.87453518  0.74805912  0.62251716  1
  Zn  Zn93  1  0.75749245  0.13053458  0.37919005  1
  Zn  Zn94  1  0.50196051  0.74807665  0.75130610  1
  Zn  Zn95  1  0.37461795  0.37644794  -0.00286673  1
  Zn  Zn96  1  0.87141925  0.61784257  0.25092157  1
  Zn  Zn97  1  0.87762197  0.00690869  0.37545375  1
  Zn  Zn98  1  0.49827479  0.25230887  0.74413568  1
  Zn  Zn99  1  0.86605392  0.50062593  0.87584356  1
  Zn  Zn100  1  0.25434909  0.74771940  0.48906139  1
  Zn  Zn101  1  -0.04919670  0.46122587  0.03257407  1
  Zn  Zn102  1  0.37403427  0.50124494  0.87394148  1
  Zn  Zn103  1  0.13196329  0.74618974  0.37114413  1
  Zn  Zn104  1  0.75191379  0.74454367  -0.00058492  1
  Zn  Zn105  1  0.62170176  0.25022468  0.87679835  1
  Zn  Zn106  1  0.49786818  0.12999031  0.62006544  1
  Zn  Zn107  1  0.18570587  0.18705436  0.18057012  1
  Zn  Zn108  1  0.18481194  0.18417439  0.68237128  1
  Zn  Zn109  1  0.19154469  0.69048460  0.18742384  1
  Zn  Zn110  1  0.18646463  0.68845643  0.68588050  1
  Zn  Zn111  1  0.69342212  0.19320307  0.18962300  1
  Zn  Zn112  1  0.68121989  0.18667779  0.68955483  1
  Zn  Zn113  1  0.68188683  0.68327076  0.18441693  1
  Zn  Zn114  1  0.68908399  0.68920564  0.68301367  1
  Zn  Zn115  1  0.30499364  0.33419224  0.31762960  1
  Zn  Zn116  1  0.29747209  0.29614120  0.77990044  1
  Zn  Zn117  1  0.30954286  0.81033873  0.30765335  1
  Zn  Zn118  1  0.31227232  0.81138775  0.81030290  1
  Zn  Zn119  1  0.81273453  0.32202640  0.31156316  1
  Zn  Zn120  1  0.81009981  0.31385896  0.81401685  1
  Zn  Zn121  1  0.81294262  0.81113910  0.31509150  1
  Zn  Zn122  1  0.81526071  0.80795204  0.81161551  1
  Zn  Zn123  1  0.18718144  0.43911589  0.43497179  1
  Zn  Zn124  1  0.18504174  0.43821765  0.92976753  1
  Zn  Zn125  1  0.18907294  0.93940773  0.43626906  1
  Zn  Zn126  1  0.18387014  0.93640801  0.93550783  1
  Zn  Zn127  1  0.68467069  0.44138229  0.43652938  1
  Zn  Zn128  1  0.68098719  0.43897612  0.93617235  1
  Zn  Zn129  1  0.69139195  0.94194461  0.43681273  1
  Zn  Zn130  1  0.68787571  0.93619045  0.94137841  1
  Zn  Zn131  1  0.31193400  0.05962306  0.06329584  1
  Zn  Zn132  1  0.31544564  0.05708905  0.55864998  1
  Zn  Zn133  1  0.31262435  0.56630893  0.06143115  1
  Zn  Zn134  1  0.31008420  0.55826190  0.56424184  1
  Zn  Zn135  1  0.81520556  0.06671669  0.06675043  1
  Zn  Zn136  1  0.81068224  0.05894127  0.56497673  1
  Zn  Zn137  1  0.81689185  0.54706302  0.07217157  1
  Zn  Zn138  1  0.81455005  0.55484796  0.55925248  1
  Zn  Zn139  1  0.43647703  0.43438047  0.18607126  1
  Zn  Zn140  1  0.43613478  0.43781732  0.68532779  1
  Zn  Zn141  1  0.43913289  0.93109819  0.18544517  1
  Zn  Zn142  1  0.43927608  0.93625245  0.68921545  1
  Zn  Zn143  1  0.93636503  0.43848211  0.20059544  1
  Zn  Zn144  1  0.93865098  0.43528868  0.67406402  1
  Zn  Zn145  1  0.94079564  0.94032078  0.18372495  1
  Zn  Zn146  1  0.93650217  0.93576818  0.68698047  1
  Zn  Zn147  1  0.06601820  0.06654796  0.31524281  1
  Zn  Zn148  1  0.06334374  0.06124481  0.81270755  1
  Zn  Zn149  1  0.06285794  0.55778294  0.30996218  1
  Zn  Zn150  1  0.06293759  0.56664998  0.80653666  1
  Zn  Zn151  1  0.56843409  0.06596777  0.31070737  1
  Zn  Zn152  1  0.56311158  0.05754128  0.81819571  1
  Zn  Zn153  1  0.55868252  0.56927723  0.31260603  1
  Zn  Zn154  1  0.56098892  0.56126975  0.81507527  1
  Zn  Zn155  1  0.44700692  0.18599620  0.44174547  1
  Zn  Zn156  1  0.43756175  0.18639134  0.93390837  1
  Zn  Zn157  1  0.43523881  0.69155350  0.43366294  1
  Zn  Zn158  1  0.43956602  0.68763845  0.93783752  1
  Zn  Zn159  1  0.94241202  0.18872953  0.43895310  1
  Zn  Zn160  1  0.95778096  0.21295659  0.96766349  1
  Zn  Zn161  1  0.93804550  0.68825898  0.43563567  1
  Zn  Zn162  1  0.92057398  0.65569785  0.95347591  1
  Zn  Zn163  1  0.06873731  0.31189339  0.06304506  1
  Zn  Zn164  1  0.05679239  0.30594117  0.55720172  1
  Zn  Zn165  1  0.06414934  0.81118300  0.06123632  1
  Zn  Zn166  1  0.06579619  0.80928832  0.55988900  1
  Zn  Zn167  1  0.56231979  0.31433738  0.06050304  1
  Zn  Zn168  1  0.55683572  0.31016033  0.56357817  1
  Zn  Zn169  1  0.55894625  0.80641296  0.06825686  1
  Zn  Zn170  1  0.56226146  0.81396607  0.56011666  1
  O  O171  1  0.12153158  0.11787854  0.11256024  1
  O  O172  1  0.12113192  0.11058115  0.62220738  1
  O  O173  1  0.12285831  0.62711742  0.11796285  1
  O  O174  1  0.12093980  0.61935929  0.61595795  1
  O  O175  1  0.62223573  0.12037569  0.12106070  1
  O  O176  1  0.62378608  0.11507866  0.61874631  1
  O  O177  1  0.61807228  0.61334530  0.11677324  1
  O  O178  1  0.61825978  0.62206328  0.61627563  1
  O  O179  1  0.38275687  0.38732747  0.38325154  1
  O  O180  1  0.38596985  0.37703925  0.87063002  1
  O  O181  1  0.37243617  0.87195857  0.38635463  1
  O  O182  1  0.38261366  0.87350345  0.88182418  1
  O  O183  1  0.87737544  0.38557415  0.38153652  1
  O  O184  1  0.88896498  0.38127498  0.86732178  1
  O  O185  1  0.88388467  0.87618475  0.38524852  1
  O  O186  1  0.88342335  0.87675267  0.88178648  1
  O  O187  1  0.24926960  0.00005487  0.35828344  1
  O  O188  1  0.25425020  0.00075977  0.86700327  1
  O  O189  1  0.26100966  0.49527636  0.36232339  1
  O  O190  1  0.25119475  0.51489342  0.86844555  1
  O  O191  1  0.75511934  0.00606508  0.36559081  1
  O  O192  1  0.75564925  0.00498525  0.87303846  1
  O  O193  1  0.75163016  0.51375573  0.37848048  1
  O  O194  1  0.74698133  0.49558686  0.85843082  1
  O  O195  1  0.25162705  0.49179058  0.12868631  1
  O  O196  1  0.23918134  0.49853625  0.63417081  1
  O  O197  1  0.23685674  1.00397882  0.13126082  1
  O  O198  1  0.24477983  0.99311344  0.63142750  1
  O  O199  1  0.72646548  0.50144072  0.12478831  1
  O  O200  1  0.74171729  0.49137326  0.63142895  1
  O  O201  1  0.74653335  0.99447328  0.13262591  1
  O  O202  1  0.73743200  0.99538815  0.63130216  1
  O  O203  1  0.01895986  0.37567157  0.24535967  1
  O  O204  1  0.00481415  0.36818686  0.75294961  1
  O  O205  1  0.00480095  0.87087812  0.25642440  1
  O  O206  1  -0.00638460  0.86557947  0.75849910  1
  O  O207  1  0.49581442  0.36382081  0.26022630  1
  O  O208  1  0.50683173  0.37865209  0.75570887  1
  O  O209  1  0.51058752  0.86627344  0.24880037  1
  O  O210  1  0.50682537  0.87292875  0.76342582  1
  O  O211  1  0.50514680  0.13645380  0.24347999  1
  O  O212  1  0.48693119  0.11361828  0.75331374  1
  O  O213  1  0.48887952  0.63570845  0.24923392  1
  O  O214  1  0.49221987  0.62491389  0.74317195  1
  O  O215  1  0.98766820  0.12351621  0.25178663  1
  O  O216  1  0.99389119  0.13059600  0.74894883  1
  O  O217  1  1.00444494  0.63473753  0.24198245  1
  O  O218  1  0.99415541  0.63375843  0.73888850  1
  O  O219  1  0.36867634  0.25214476  0.00484020  1
  O  O220  1  0.38174973  0.26392738  0.49624306  1
  O  O221  1  0.37998554  0.75409978  0.01117575  1
  O  O222  1  0.37547905  0.75784104  0.50890725  1
  O  O223  1  0.85299794  0.25280270  -0.01192015  1
  O  O224  1  0.86828832  0.26027126  0.51762646  1
  O  O225  1  0.87328290  0.75020963  0.00760916  1
  O  O226  1  0.86985618  0.75787244  0.50072989  1
  O  O227  1  0.13651892  0.23339710  0.52248740  1
  O  O228  1  0.13812434  0.23644937  0.99548142  1
  O  O229  1  0.12936252  0.73516075  0.49937260  1
  O  O230  1  0.12362003  0.74496437  0.98624637  1
  O  O231  1  0.61622375  0.23924054  0.49066125  1
  O  O232  1  0.62994396  0.23780778  1.00023247  1
  O  O233  1  0.63126783  0.74005807  0.50172813  1
  O  O234  1  0.62421072  0.73949948  0.99552916  1
  O  O235  1  0.49169333  0.24841144  0.13244200  1
  O  O236  1  0.50090638  0.24259550  0.63086248  1
  O  O237  1  0.48551521  0.75402045  0.13888577  1
  O  O238  1  0.49253122  0.74558431  0.62649223  1
  O  O239  1  0.99476213  0.23249894  0.07511767  1
  O  O240  1  0.98708930  0.24191272  0.63852182  1
  O  O241  1  0.99390568  0.74824901  0.13335502  1
  O  O242  1  1.00100433  0.74396370  0.63162896  1
  O  O243  1  -0.00631570  0.29077916  0.44288191  1
  O  O244  1  -0.00767801  0.26102734  0.86514003  1
  O  O245  1  0.00478002  0.75995447  0.36808392  1
  O  O246  1  0.00663951  0.75607338  0.86688967  1
  O  O247  1  0.50651503  0.25720441  0.36811702  1
  O  O248  1  0.50320097  0.25938377  0.87332005  1
  O  O249  1  0.49438884  0.74898638  0.35485454  1
  O  O250  1  0.51050099  0.75552070  0.87334375  1
  O  O251  1  0.24002521  0.11611103  0.50036519  1
  O  O252  1  0.24528624  0.12871326  0.99158733  1
  O  O253  1  0.23777954  0.62552860  0.50341089  1
  O  O254  1  0.24366197  0.62757481  0.98958945  1
  O  O255  1  0.73643958  0.11717506  0.49833557  1
  O  O256  1  0.74448372  0.13086322  0.99607447  1
  O  O257  1  0.74233136  0.62953108  0.49391002  1
  O  O258  1  0.73548405  0.62303037  1.00570708  1
  O  O259  1  0.25024769  0.36790747  0.00025573  1
  O  O260  1  0.26510812  0.37593187  0.49628346  1
  O  O261  1  0.25909573  0.87192714  -0.00802896  1
  O  O262  1  0.26052583  0.88044817  0.51029807  1
  O  O263  1  0.73911163  0.36361263  0.00056873  1
  O  O264  1  0.73676588  0.37575694  0.51512124  1
  O  O265  1  0.75795496  0.87253492  0.00926843  1
  O  O266  1  0.75857105  0.86820337  0.49737447  1
  O  O267  1  0.13538009  0.49466482  0.24685658  1
  O  O268  1  0.13151974  0.49634524  0.74244251  1
  O  O269  1  0.12971389  0.99670613  0.24289824  1
  O  O270  1  0.13741061  1.00151464  0.74305315  1
  O  O271  1  0.60910632  0.50003833  0.23596965  1
  O  O272  1  0.62877461  0.49586587  0.74306414  1
  O  O273  1  0.63699848  0.99414564  0.24573033  1
  O  O274  1  0.62912385  0.99252057  0.74550865  1
  O  O275  1  0.36049589  -0.00708080  0.24273515  1
  O  O276  1  0.36684309  0.00224340  0.75751619  1
  O  O277  1  0.37278132  0.50767276  0.25346083  1
  O  O278  1  0.36590348  0.50728121  0.74901861  1
  O  O279  1  0.86542766  -0.00350272  0.25171872  1
  O  O280  1  0.86848266  0.00444394  0.75566066  1
  O  O281  1  0.87869430  0.50389831  0.27555159  1
  O  O282  1  0.86541663  0.50678459  0.74439361  1
  O  O283  1  0.13329667  0.37300745  0.36024251  1
  O  O284  1  0.11225518  0.38009632  0.85888157  1
  O  O285  1  0.11712774  0.87707656  0.36379624  1
  O  O286  1  0.11218727  0.86793380  0.87668658  1
  O  O287  1  0.61547234  0.37120695  0.37378170  1
  O  O288  1  0.61200872  0.37664268  0.86627177  1
  O  O289  1  0.63377123  0.87461299  0.36299279  1
  O  O290  1  0.61898404  0.86860962  0.87300978  1
  O  O291  1  0.38101649  0.13585713  0.11778446  1
  O  O292  1  0.37677721  0.11339694  0.64026240  1
  O  O293  1  0.37539746  0.63673436  0.12943446  1
  O  O294  1  0.37864785  0.63320459  0.62644480  1
  O  O295  1  0.87839293  0.12152619  0.14481736  1
  O  O296  1  0.87563504  0.12982747  0.63242688  1
  O  O297  1  0.88443866  0.63043801  0.13197415  1
  O  O298  1  0.88491881  0.62294382  0.62676015  1
  O  O299  1  0.25676759  0.25363928  0.11152132  1
  O  O300  1  0.25948101  0.26371335  0.67303332  1
  O  O301  1  0.27047005  0.75323213  0.13337658  1
  O  O302  1  0.25685165  0.75823233  0.62169205  1
  O  O303  1  0.75048467  0.25338151  0.11014119  1
  O  O304  1  0.75291240  0.25630268  0.63274560  1
  O  O305  1  0.75768617  0.75413730  0.12721499  1
  O  O306  1  0.75285156  0.75202037  0.60932808  1
  O  O307  1  0.26814340  0.23472757  0.36004268  1
  O  O308  1  0.25741718  0.23977281  0.88021181  1
  O  O309  1  0.24475441  0.75216361  0.37587978  1
  O  O310  1  0.23884439  0.73958398  0.86287923  1
  O  O311  1  0.73837199  0.25251464  0.37476883  1
  O  O312  1  0.74235209  0.24227139  0.88088100  1
  O  O313  1  0.75731883  0.73736027  0.38699571  1
  O  O314  1  0.73697000  0.75492116  0.87877587  1
  O  O315  1  0.01321458  0.10735509  -0.02349988  1
  O  O316  1  0.00288149  0.11796499  0.51151823  1
  O  O317  1  0.01443659  0.63761310  0.01766287  1
  O  O318  1  0.00847055  0.63132580  0.51096596  1
  O  O319  1  0.50910084  0.12321995  0.00611515  1
  O  O320  1  0.51108164  0.10959635  0.50076354  1
  O  O321  1  0.50524309  0.61045599  -0.00514208  1
  O  O322  1  0.50663215  0.62467364  0.50148893  1
  O  O323  1  0.49236047  0.38150568  0.48922716  1
  O  O324  1  0.49750807  0.38407748  0.99127310  1
  O  O325  1  0.49591107  0.88718627  0.50095086  1
  O  O326  1  0.49845409  0.87381201  0.99049972  1
  O  O327  1  0.97892598  0.39286763  0.55412790  1
  O  O328  1  1.01119623  0.37973596  0.97950541  1
  O  O329  1  0.99665706  0.87931496  0.49307826  1
  O  O330  1  0.99669527  0.88466854  0.99279036  1
  O  O331  1  0.49430914  0.49381731  0.37788874  1
  O  O332  1  0.49724734  0.49361315  0.88612511  1
  O  O333  1  0.51001247  0.99832124  0.38458624  1
  O  O334  1  0.49430449  0.98816209  0.88150368  1
  O  O335  1  0.99169863  0.50669680  0.38525253  1
  O  O336  1  0.99776444  0.48917135  0.86214988  1
  O  O337  1  0.99964224  0.98960859  0.37949087  1
  O  O338  1  0.99430503  0.98925919  0.87558324  1
  O  O339  1  0.00892714  0.00567358  0.11346532  1
  O  O340  1  0.00826409  0.00355067  0.62405514  1
  O  O341  1  0.00738138  0.51173749  0.12689729  1
  O  O342  1  0.01659585  0.51470467  0.63764154  1
  O  O343  1  0.50816952  0.00578497  0.12608536  1
  O  O344  1  0.51246950  0.00014427  0.62331415  1
  O  O345  1  0.50055353  0.49517419  0.10959597  1
  O  O346  1  0.50429724  0.50747909  0.61745309  1
  O  O347  1  0.24494868  0.38673240  0.23791645  1
  O  O348  1  0.23854145  0.39310400  0.76528147  1
  O  O349  1  0.24003077  0.88662739  0.24866221  1
  O  O350  1  0.25576642  0.88179785  0.73615504  1
  O  O351  1  0.74499337  0.36796799  0.23877579  1
  O  O352  1  0.73561038  0.38092768  0.74641354  1
  O  O353  1  0.74649413  0.88029032  0.24517900  1
  O  O354  1  0.74423974  0.87993534  0.75007878  1
  O  O355  1  0.25344266  0.11468880  0.24613039  1
  O  O356  1  0.26004059  0.11300223  0.75651140  1
  O  O357  1  0.26178154  0.61397710  0.24265434  1
  O  O358  1  0.25325697  0.61730237  0.75358712  1
  O  O359  1  0.76339028  0.12039632  0.25292507  1
  O  O360  1  0.74958631  0.11783322  0.75981907  1
  O  O361  1  0.75023859  0.63294729  0.26586167  1
  O  O362  1  0.75889654  0.61524062  0.73689252  1
  O  O363  1  0.38293372  0.12251796  0.36833707  1
  O  O364  1  0.36601611  0.11186260  0.87386054  1
  O  O365  1  0.37905734  0.61482025  0.36588335  1
  O  O366  1  0.36685768  0.62845933  0.86742636  1
  O  O367  1  0.87728302  0.12840683  0.36602320  1
  O  O368  1  0.86111892  0.11900176  0.87093039  1
  O  O369  1  0.86541340  0.61447413  0.38131644  1
  O  O370  1  0.87710921  0.62858023  0.85096432  1
  O  O371  1  0.13881140  0.37586217  0.12489278  1
  O  O372  1  0.12676929  0.38210536  0.63318610  1
  O  O373  1  0.11689249  0.88380290  0.13621851  1
  O  O374  1  0.13377101  0.88581447  0.61789746  1
  O  O375  1  0.61584205  0.39123828  0.12620954  1
  O  O376  1  0.62548548  0.38096554  0.63274626  1
  O  O377  1  0.63262954  0.88053675  0.12933396  1
  O  O378  1  0.62548659  0.87955849  0.63388868  1
  O  O379  1  0.13098183  0.26238132  0.24391873  1
  O  O380  1  0.11027279  0.25793749  0.74598629  1
  O  O381  1  0.11576134  0.75920152  0.24753446  1
  O  O382  1  0.11209619  0.74279480  0.75836127  1
  O  O383  1  0.61651617  0.25128937  0.25861184  1
  O  O384  1  0.62151184  0.26095042  0.75487116  1
  O  O385  1  0.61244177  0.75724692  0.24303652  1
  O  O386  1  0.62534472  0.75391149  0.75761024  1
  O  O387  1  0.37747989  0.24255551  0.24505357  1
  O  O388  1  0.38438420  0.22331634  0.76532956  1
  O  O389  1  0.38212264  0.74515528  0.24223455  1
  O  O390  1  0.37652784  0.74496257  0.73730023  1
  O  O391  1  0.87846391  0.24406250  0.25218180  1
  O  O392  1  0.87619584  0.24208794  0.74568903  1
  O  O393  1  0.88764218  0.74842992  0.24788248  1
  O  O394  1  0.88391375  0.74420319  0.74271417  1
  O  O395  1  0.38071486  0.50106478  0.49116594  1
  O  O396  1  0.38397242  0.49889056  0.99721792  1
  O  O397  1  0.39378335  0.99340874  0.50285004  1
  O  O398  1  0.37492195  0.98799346  0.99590833  1
  O  O399  1  0.86979181  0.48404917  0.48745537  1
  O  O400  1  0.88633864  0.54182144  0.98127474  1
  O  O401  1  0.88289559  0.99367695  0.49899237  1
  O  O402  1  0.88362465  0.99600878  0.99592869  1
  O  O403  1  0.12123416  0.00481802  0.00571316  1
  O  O404  1  0.11992274  0.00559659  0.50783284  1
  O  O405  1  0.12882212  0.51427152  -0.00028490  1
  O  O406  1  0.13054699  0.50981619  0.50787421  1
  O  O407  1  0.62656953  0.01079147  0.00898182  1
  O  O408  1  0.61755039  0.00119411  0.50707769  1
  O  O409  1  0.61331226  0.50545468  0.00584243  1
  O  O410  1  0.61706449  0.51210466  0.50421512  1
  O  O411  1  0.36413537  0.36266399  0.12382811  1
  O  O412  1  0.37469239  0.38207197  0.60592550  1
  O  O413  1  0.37867418  0.86494189  0.11196734  1
  O  O414  1  0.37105398  0.86821161  0.62016555  1
  O  O415  1  0.87042820  0.43040650  0.10870779  1
  O  O416  1  0.85397324  0.36347799  0.64065816  1
  O  O417  1  0.87139958  0.86786238  0.11970054  1
  O  O418  1  0.87421284  0.87483010  0.61061003  1
  O  O419  1  0.11735322  0.12900227  0.39594898  1
  O  O420  1  0.14159080  0.11567902  0.87955341  1
  O  O421  1  0.11863172  0.62257642  0.38999614  1
  O  O422  1  0.12898340  0.63156442  0.88152319  1
  O  O423  1  0.62862746  0.13515944  0.38235123  1
  O  O424  1  0.63524385  0.12134934  0.88502689  1
  O  O425  1  0.63594014  0.62185168  0.38201785  1
  O  O426  1  0.62027935  0.63268423  0.88472328  1
