# generated using pymatgen
data_V85Zn86O256
_symmetry_space_group_name_H-M   'P 1'
_cell_length_a   16.94995271
_cell_length_b   16.94928563
_cell_length_c   16.92954348
_cell_angle_alpha   90.05895241
_cell_angle_beta   89.97781184
_cell_angle_gamma   89.92667025
_symmetry_Int_Tables_number   1
_chemical_formula_structural   V85Zn86O256
_chemical_formula_sum   'V85 Zn86 O256'
_cell_volume   4863.67467956
_cell_formula_units_Z   1
loop_
 _symmetry_equiv_pos_site_id
 _symmetry_equiv_pos_as_xyz
  1  'x, y, z'
loop_
 _atom_site_type_symbol
 _atom_site_label
 _atom_site_symmetry_multiplicity
 _atom_site_fract_x
 _atom_site_fract_y
 _atom_site_fract_z
 _atom_site_occupancy
  V  V0  1  0.39701501  -0.00055488  0.88081249  1
  V  V1  1  0.75312698  0.37856956  0.13724213  1
  V  V2  1  0.12009643  0.49762331  0.62668024  1
  V  V3  1  0.37709451  0.37267416  0.50039210  1
  V  V4  1  0.62637910  0.62469808  -0.01194554  1
  V  V5  1  0.12576080  0.74977052  0.38012240  1
  V  V6  1  0.75023062  0.74834871  -0.01352501  1
  V  V7  1  0.12416959  0.24974896  0.37385691  1
  V  V8  1  0.50786090  0.36937225  0.37335797  1
  V  V9  1  0.12584378  0.62584068  0.50415145  1
  V  V10  1  -0.00029596  0.37608407  0.37390414  1
  V  V11  1  0.62723388  0.87613026  0.25305726  1
  V  V12  1  0.25267353  0.12376183  0.36892503  1
  V  V13  1  0.50143379  0.24918063  0.75029064  1
  V  V14  1  0.25593538  0.74957157  0.50561837  1
  V  V15  1  0.68067405  0.69150354  0.33178700  1
  V  V16  1  0.87109359  0.25088642  0.63214493  1
  V  V17  1  -0.00350968  0.37394090  0.87369208  1
  V  V18  1  0.49707071  0.62682905  0.12045417  1
  V  V19  1  0.62110134  0.37774836  0.75593724  1
  V  V20  1  0.87513324  0.75010076  0.12337473  1
  V  V21  1  -0.00622534  0.12666239  0.63342488  1
  V  V22  1  0.12744182  0.87213518  0.24150822  1
  V  V23  1  0.24778594  0.87918833  0.62780961  1
  V  V24  1  0.87410231  0.73936953  0.62791945  1
  V  V25  1  0.37746272  0.12562305  0.74404104  1
  V  V26  1  0.86443508  0.50707762  0.36788126  1
  V  V27  1  0.74639114  0.50862233  0.76101539  1
  V  V28  1  0.37373979  0.25690126  0.13263008  1
  V  V29  1  0.00239930  0.86798256  0.86390749  1
  V  V30  1  0.49788870  0.74843868  0.25052888  1
  V  V31  1  0.87332232  0.87884753  0.50218587  1
  V  V32  1  0.25103562  0.25775660  0.00561278  1
  V  V33  1  0.00109602  0.62353322  0.12876540  1
  V  V34  1  0.35578847  0.75434417  0.11956458  1
  V  V35  1  0.00112036  0.24457470  0.24557574  1
  V  V36  1  0.87844520  0.11752293  0.25505753  1
  V  V37  1  0.75196215  0.13451281  0.86998487  1
  V  V38  1  0.24945212  0.24863586  0.49948275  1
  V  V39  1  0.37459280  0.87367898  -0.00263282  1
  V  V40  1  -0.00254950  0.00198293  0.00541375  1
  V  V41  1  0.37665488  0.00234486  0.36491154  1
  V  V42  1  0.12225880  0.12545187  0.49967314  1
  V  V43  1  0.12443499  0.00348427  0.63317304  1
  V  V44  1  -0.00180304  0.87895977  0.37902012  1
  V  V45  1  0.87650909  0.00418505  0.86748864  1
  V  V46  1  0.87302165  0.37358694  0.00377849  1
  V  V47  1  0.87425962  0.37697382  0.50081421  1
  V  V48  1  0.25071744  0.11972737  0.87801347  1
  V  V49  1  0.62078369  0.13150731  0.49680563  1
  V  V50  1  0.12020179  0.12551492  0.00991625  1
  V  V51  1  0.13351919  0.37408427  0.24525486  1
  V  V52  1  0.49295948  0.61691802  0.63050349  1
  V  V53  1  0.37349607  0.49966153  0.37409494  1
  V  V54  1  0.62934051  0.50068023  0.13371118  1
  V  V55  1  -0.00198654  0.50673205  0.49990617  1
  V  V56  1  0.50054414  0.00599273  0.50208292  1
  V  V57  1  0.12573859  0.24950532  0.87531833  1
  V  V58  1  0.37879236  0.49808118  0.87467713  1
  V  V59  1  0.62510577  0.00225683  0.62573275  1
  V  V60  1  0.49124192  0.12069897  0.11779341  1
  V  V61  1  0.50658777  0.49623245  0.50292279  1
  V  V62  1  0.62163702  0.00166696  0.11878456  1
  V  V63  1  0.40801035  0.78423110  0.65048965  1
  V  V64  1  -0.00289643  0.00094323  0.49914388  1
  V  V65  1  0.50247601  0.48829039  -0.00239729  1
  V  V66  1  0.62508751  0.62646829  0.50611706  1
  V  V67  1  0.60830123  0.76397306  0.86425444  1
  V  V68  1  0.75173938  0.11817348  0.37617800  1
  V  V69  1  0.25187192  0.50272226  0.75444870  1
  V  V70  1  0.13442616  0.63846350  -0.01083884  1
  V  V71  1  0.50318878  0.87243262  0.37419037  1
  V  V72  1  0.74352039  0.38564074  0.62621993  1
  V  V73  1  0.74150158  0.75181831  0.50047346  1
  V  V74  1  0.25133510  0.37130062  0.62735391  1
  V  V75  1  0.25142618  -0.00400731  0.24153309  1
  V  V76  1  0.50624537  0.23866884  0.25511167  1
  V  V77  1  0.74998862  0.87816462  0.12138158  1
  V  V78  1  0.37487662  0.87520605  0.49553253  1
  V  V79  1  0.74626421  0.25224870  0.49473512  1
  V  V80  1  0.13588311  0.49734790  0.12331048  1
  V  V81  1  0.74680789  -0.00179791  0.75106259  1
  V  V82  1  0.87506041  0.24062737  0.12599852  1
  V  V83  1  0.00122046  0.50053583  0.00348091  1
  V  V84  1  -0.00043418  0.74874427  0.25240640  1
  Zn  Zn85  1  0.12331584  0.37339679  0.75105545  1
  Zn  Zn86  1  0.37720378  0.62940055  0.75960125  1
  Zn  Zn87  1  0.25521269  0.49698041  0.24640851  1
  Zn  Zn88  1  0.37968405  0.24405624  0.62285258  1
  Zn  Zn89  1  0.85564209  0.62410348  0.25112289  1
  Zn  Zn90  1  -0.00547149  0.24934255  0.75285481  1
  Zn  Zn91  1  0.87624309  0.87648207  -0.00354207  1
  Zn  Zn92  1  0.25257362  0.62435612  0.37551320  1
  Zn  Zn93  1  0.14628772  0.81890922  0.78840986  1
  Zn  Zn94  1  0.86931137  0.50874431  0.88139086  1
  Zn  Zn95  1  0.87793140  0.63110569  0.76498869  1
  Zn  Zn96  1  0.74561473  0.24884039  0.00336530  1
  Zn  Zn97  1  0.12363339  -0.00022527  0.12491345  1
  Zn  Zn98  1  0.74826581  0.87406919  0.63227559  1
  Zn  Zn99  1  0.61285958  0.25326384  0.88395727  1
  Zn  Zn100  1  0.04099640  0.67521660  0.68518353  1
  Zn  Zn101  1  0.75407040  -0.00011473  0.25199171  1
  Zn  Zn102  1  0.24998626  0.00131182  0.75335829  1
  Zn  Zn103  1  0.37026560  0.62405742  0.24809756  1
  Zn  Zn104  1  0.62978901  0.37240076  0.25477994  1
  Zn  Zn105  1  0.62426297  0.12473090  -0.00181173  1
  Zn  Zn106  1  0.37460524  0.37486512  0.00083196  1
  Zn  Zn107  1  0.19118539  0.18593854  0.18800956  1
  Zn  Zn108  1  0.18704063  0.18659666  0.69124239  1
  Zn  Zn109  1  0.18449433  0.67915187  0.19101331  1
  Zn  Zn110  1  0.21779849  0.70618053  0.71136236  1
  Zn  Zn111  1  0.68755966  0.18638557  0.18732792  1
  Zn  Zn112  1  0.68545208  0.18662669  0.68551441  1
  Zn  Zn113  1  0.68323702  0.69137736  0.16590623  1
  Zn  Zn114  1  0.68238522  0.68819759  0.68649644  1
  Zn  Zn115  1  0.31822258  0.31080972  0.31186324  1
  Zn  Zn116  1  0.31586748  0.31497014  0.81578393  1
  Zn  Zn117  1  0.31137411  0.81033506  0.31128321  1
  Zn  Zn118  1  0.31779533  0.81621389  0.82107783  1
  Zn  Zn119  1  0.81537810  0.30942404  0.31551567  1
  Zn  Zn120  1  0.81074091  0.31917824  0.81176681  1
  Zn  Zn121  1  0.81904470  0.81852097  0.31020325  1
  Zn  Zn122  1  0.81471413  0.81624004  0.81106083  1
  Zn  Zn123  1  0.18735944  0.43514770  0.43820234  1
  Zn  Zn124  1  0.18721850  0.43971254  0.93546037  1
  Zn  Zn125  1  0.18503645  0.93844295  0.43744031  1
  Zn  Zn126  1  0.18786658  0.93519381  0.94288720  1
  Zn  Zn127  1  0.68662732  0.43940726  0.43824713  1
  Zn  Zn128  1  0.68572732  0.43370803  0.94058722  1
  Zn  Zn129  1  0.68773528  0.93899591  0.43837753  1
  Zn  Zn130  1  0.68594588  0.93733162  0.93446506  1
  Zn  Zn131  1  0.31411505  0.06433845  0.05879294  1
  Zn  Zn132  1  0.31186399  0.06147156  0.55831962  1
  Zn  Zn133  1  0.31384748  0.56561017  0.05642612  1
  Zn  Zn134  1  0.31256592  0.55815730  0.56426016  1
  Zn  Zn135  1  0.81114704  0.06288561  0.05760371  1
  Zn  Zn136  1  0.81163900  0.06436915  0.56365038  1
  Zn  Zn137  1  0.81155356  0.56421135  0.06181201  1
  Zn  Zn138  1  0.80578754  0.56359417  0.55690682  1
  Zn  Zn139  1  0.44196744  0.43496806  0.18814336  1
  Zn  Zn140  1  0.43890593  0.43391307  0.68889947  1
  Zn  Zn141  1  0.43749007  0.93210456  0.17926168  1
  Zn  Zn142  1  0.44128317  0.95216039  0.68667184  1
  Zn  Zn143  1  0.94030583  0.43604882  0.19035431  1
  Zn  Zn144  1  0.93426304  0.44597481  0.69053142  1
  Zn  Zn145  1  0.93967470  0.93630991  0.18673239  1
  Zn  Zn146  1  0.93265237  0.93680826  0.68699108  1
  Zn  Zn147  1  0.06376227  0.06011172  0.31186493  1
  Zn  Zn148  1  0.06045045  0.06285149  0.81698165  1
  Zn  Zn149  1  0.06390363  0.56120214  0.31415294  1
  Zn  Zn150  1  0.05967205  0.55767972  0.81580279  1
  Zn  Zn151  1  0.56765436  0.06180999  0.31290921  1
  Zn  Zn152  1  0.56747463  0.07146764  0.80846872  1
  Zn  Zn153  1  0.55250285  0.55809953  0.31072829  1
  Zn  Zn154  1  0.56370933  0.55961934  0.81432806  1
  Zn  Zn155  1  0.43508876  0.18649384  0.43457476  1
  Zn  Zn156  1  0.43543983  0.18984570  0.93687400  1
  Zn  Zn157  1  0.44037041  0.68629576  0.43869824  1
  Zn  Zn158  1  0.43458893  0.68450877  0.93775553  1
  Zn  Zn159  1  0.93479920  0.18870179  0.43921170  1
  Zn  Zn160  1  0.93512332  0.18572395  0.93795673  1
  Zn  Zn161  1  0.93369532  0.68884555  0.44094403  1
  Zn  Zn162  1  0.94192723  0.68693716  0.93683051  1
  Zn  Zn163  1  0.06130076  0.31192221  0.06410742  1
  Zn  Zn164  1  0.05962546  0.31382803  0.56272255  1
  Zn  Zn165  1  0.06012156  0.81409565  0.05639592  1
  Zn  Zn166  1  0.06796880  0.80865257  0.58209115  1
  Zn  Zn167  1  0.56598960  0.30889589  0.06949496  1
  Zn  Zn168  1  0.56342145  0.31005374  0.57003839  1
  Zn  Zn169  1  0.55903996  0.81460414  0.05532163  1
  Zn  Zn170  1  0.56029815  0.81775636  0.57688676  1
  O  O171  1  0.12576719  0.12609146  0.11323133  1
  O  O172  1  0.11770646  0.12273800  0.61850826  1
  O  O173  1  0.11682078  0.61573444  0.11844093  1
  O  O174  1  0.12258490  0.60827273  0.61320728  1
  O  O175  1  0.61573116  0.11720927  0.12517820  1
  O  O176  1  0.63236621  0.11669130  0.60715522  1
  O  O177  1  0.61470400  0.61729796  0.11529470  1
  O  O178  1  0.61324224  0.62696791  0.61241442  1
  O  O179  1  0.38616810  0.37806953  0.38129053  1
  O  O180  1  0.37019280  0.38944857  0.88331632  1
  O  O181  1  0.38067851  0.88196159  0.37917139  1
  O  O182  1  0.37966044  0.88998978  0.87978395  1
  O  O183  1  0.88101100  0.38366274  0.37988808  1
  O  O184  1  0.88027092  0.37662688  0.88692500  1
  O  O185  1  0.88965829  0.87007747  0.38440653  1
  O  O186  1  0.88391610  0.88521400  0.87598291  1
  O  O187  1  0.25668063  0.00545282  0.36870337  1
  O  O188  1  0.24944186  0.01289993  0.87477546  1
  O  O189  1  0.26508125  0.49582348  0.37877314  1
  O  O190  1  0.25449796  0.49650692  0.86252511  1
  O  O191  1  0.75033235  0.01350362  0.37368974  1
  O  O192  1  0.75533219  0.00846728  0.87014617  1
  O  O193  1  0.76605315  0.49652179  0.37836781  1
  O  O194  1  0.74812631  0.49771459  0.86517831  1
  O  O195  1  0.23887362  0.50163638  0.12385376  1
  O  O196  1  0.24166906  0.48498905  0.62459381  1
  O  O197  1  0.25082330  1.00833148  0.13893320  1
  O  O198  1  0.24070301  0.99860616  0.62412438  1
  O  O199  1  0.74168444  0.49252984  0.12245108  1
  O  O200  1  0.75200517  0.48888911  0.62813350  1
  O  O201  1  0.74548774  0.99054456  0.12626528  1
  O  O202  1  0.74489538  1.00369128  0.63451371  1
  O  O203  1  0.00884324  0.36641750  0.25675140  1
  O  O204  1  -0.00051028  0.37483105  0.76178241  1
  O  O205  1  0.00481764  0.86960286  0.25961942  1
  O  O206  1  -0.00186122  0.88032140  0.76277696  1
  O  O207  1  0.50327680  0.36345417  0.25814944  1
  O  O208  1  0.50952404  0.36535377  0.74796757  1
  O  O209  1  0.50907288  0.86635658  0.24964003  1
  O  O210  1  0.48917744  0.85010811  0.67944580  1
  O  O211  1  0.50397478  0.13467151  0.24561545  1
  O  O212  1  0.49108096  0.13614459  0.74975841  1
  O  O213  1  0.49584856  0.63154646  0.23972759  1
  O  O214  1  0.50066330  0.61528690  0.73320319  1
  O  O215  1  0.99404506  0.13411556  0.25666224  1
  O  O216  1  1.00234857  0.12829267  0.73712820  1
  O  O217  1  1.00495268  0.63060175  0.23943084  1
  O  O218  1  0.98763659  0.59942922  0.74158445  1
  O  O219  1  0.36670040  0.25125940  0.00792255  1
  O  O220  1  0.36790764  0.25358652  0.50199115  1
  O  O221  1  0.37498713  0.75584338  0.01105170  1
  O  O222  1  0.37707329  0.76629087  0.50014568  1
  O  O223  1  0.87575998  0.25680951  0.01083225  1
  O  O224  1  0.86762385  0.25916380  0.50756615  1
  O  O225  1  0.86868027  0.75067698  0.01103978  1
  O  O226  1  0.86091418  0.75597948  0.50473557  1
  O  O227  1  0.12919876  0.24535838  0.49367996  1
  O  O228  1  0.12789863  0.24435236  0.99359743  1
  O  O229  1  0.13126988  0.74056028  0.50298917  1
  O  O230  1  0.12273628  0.73773320  1.00236181  1
  O  O231  1  0.63302474  0.24379148  0.50453906  1
  O  O232  1  0.62833238  0.24678065  0.99937343  1
  O  O233  1  0.63359776  0.74714259  0.50288118  1
  O  O234  1  0.63131474  0.74377535  0.99506926  1
  O  O235  1  0.49444498  0.23890757  0.13524980  1
  O  O236  1  0.49525797  0.25141599  0.64153401  1
  O  O237  1  0.50095451  0.74097835  0.13353556  1
  O  O238  1  0.49271170  0.72544897  0.60613784  1
  O  O239  1  0.99161854  0.25364146  0.13755879  1
  O  O240  1  0.99102026  0.24411340  0.62497487  1
  O  O241  1  0.99189836  0.74368365  0.12790278  1
  O  O242  1  0.97708368  0.74523570  0.61154361  1
  O  O243  1  0.00421959  0.25566693  0.36736147  1
  O  O244  1  0.00507503  0.25828780  0.87678191  1
  O  O245  1  0.00576385  0.75485643  0.37322819  1
  O  O246  1  -0.00225492  0.76852425  0.87770497  1
  O  O247  1  0.49582448  0.25369029  0.36281856  1
  O  O248  1  0.49690281  0.24752049  0.85933639  1
  O  O249  1  0.49224893  0.75577715  0.35943826  1
  O  O250  1  0.50947724  0.74861544  0.87863556  1
  O  O251  1  0.24382688  0.12928832  0.48976764  1
  O  O252  1  0.24244446  0.13375395  0.99425724  1
  O  O253  1  0.24383208  0.63054749  0.50213451  1
  O  O254  1  0.23302661  0.62099566  1.00010638  1
  O  O255  1  0.74634694  0.13321411  0.49303772  1
  O  O256  1  0.74832943  0.12738928  0.98619773  1
  O  O257  1  0.73660313  0.63418786  0.49681610  1
  O  O258  1  0.73784851  0.63737862  1.01119970  1
  O  O259  1  0.24553833  0.36025703  -0.00082714  1
  O  O260  1  0.25444178  0.36675092  0.50607566  1
  O  O261  1  0.27039285  0.88425196  -0.00001151  1
  O  O262  1  0.25816313  0.87267793  0.50273497  1
  O  O263  1  0.76243400  0.37497000  0.00982056  1
  O  O264  1  0.75108269  0.36993218  0.50691547  1
  O  O265  1  0.75286517  0.86898095  0.00673139  1
  O  O266  1  0.75819761  0.86954941  0.49756959  1
  O  O267  1  0.12558937  0.49051411  0.24258817  1
  O  O268  1  0.13309970  0.49523685  0.74151087  1
  O  O269  1  0.13198604  0.99093631  0.24754626  1
  O  O270  1  0.12595415  1.00982218  0.73653668  1
  O  O271  1  0.61806065  0.49760482  0.23708601  1
  O  O272  1  0.63523332  0.49163939  0.75286078  1
  O  O273  1  0.62906836  0.99184691  0.23958490  1
  O  O274  1  0.63087368  1.00824302  0.73733295  1
  O  O275  1  0.36844943  -0.01031110  0.25865016  1
  O  O276  1  0.37664118  0.00786684  0.76248064  1
  O  O277  1  0.37578553  0.49845940  0.25864535  1
  O  O278  1  0.36988475  0.49555934  0.75823443  1
  O  O279  1  0.87646194  0.01378335  0.24514350  1
  O  O280  1  0.86796409  0.00207832  0.76039194  1
  O  O281  1  0.87868150  0.50292440  0.26307504  1
  O  O282  1  0.85505846  0.49592187  0.75517663  1
  O  O283  1  0.11933027  0.36835117  0.36908846  1
  O  O284  1  0.11551719  0.36599607  0.87706592  1
  O  O285  1  0.11508962  0.86813339  0.37216434  1
  O  O286  1  0.10979387  0.88565425  0.87259684  1
  O  O287  1  0.61214890  0.37913642  0.37431758  1
  O  O288  1  0.63365526  0.36811431  0.86148245  1
  O  O289  1  0.61979983  0.88231478  0.36120054  1
  O  O290  1  0.62052774  0.86345936  0.87891629  1
  O  O291  1  0.38716746  0.13161590  0.12362057  1
  O  O292  1  0.36660333  0.12303118  0.63943221  1
  O  O293  1  0.38179012  0.63621576  0.12234229  1
  O  O294  1  0.38868738  0.61961059  0.62508429  1
  O  O295  1  0.86801121  0.13606457  0.13252723  1
  O  O296  1  0.88313371  0.13722549  0.61751828  1
  O  O297  1  0.88053095  0.63157535  0.13076747  1
  O  O298  1  0.86545497  0.63820745  0.62070108  1
  O  O299  1  0.26178977  0.24240907  0.11917723  1
  O  O300  1  0.24849619  0.25879707  0.62133349  1
  O  O301  1  0.25870498  0.74421125  0.12887813  1
  O  O302  1  0.27334151  0.76541698  0.62013101  1
  O  O303  1  0.75898460  0.25837075  0.12565084  1
  O  O304  1  0.75563438  0.25542349  0.61636745  1
  O  O305  1  0.75652172  0.76272677  0.11681687  1
  O  O306  1  0.75328932  0.75372225  0.61678840  1
  O  O307  1  0.24641269  0.24151912  0.37702156  1
  O  O308  1  0.24362294  0.24194654  0.88221130  1
  O  O309  1  0.24411535  0.74942665  0.38646924  1
  O  O310  1  0.23115717  0.74859364  0.81968622  1
  O  O311  1  0.75434940  0.24421017  0.38909625  1
  O  O312  1  0.75463828  0.24003578  0.87534687  1
  O  O313  1  0.74849228  0.75579573  0.38032887  1
  O  O314  1  0.74590009  0.75679469  0.88497178  1
  O  O315  1  0.00942051  0.11652547  -0.00725640  1
  O  O316  1  0.00310036  0.12096021  0.50688141  1
  O  O317  1  0.00483063  0.61688203  0.01267003  1
  O  O318  1  0.00649620  0.61328888  0.49589091  1
  O  O319  1  0.50110814  0.12906412  0.01529656  1
  O  O320  1  0.50838371  0.11854593  0.49037523  1
  O  O321  1  0.50725991  0.61854902  0.00775987  1
  O  O322  1  0.50444149  0.61270350  0.50346662  1
  O  O323  1  0.49891656  0.37775981  0.49547790  1
  O  O324  1  0.50295871  0.38610453  1.00840735  1
  O  O325  1  0.49400142  0.88433857  0.49425987  1
  O  O326  1  0.47727094  0.88208269  1.01803730  1
  O  O327  1  0.99510229  0.38233797  0.49147338  1
  O  O328  1  0.99017347  0.37999380  0.99851331  1
  O  O329  1  0.99395230  0.87943365  0.49687863  1
  O  O330  1  0.99770004  0.88618073  0.99022777  1
  O  O331  1  0.49058233  0.48948751  0.38149610  1
  O  O332  1  0.49517411  0.50084001  0.88645439  1
  O  O333  1  0.49291732  0.99529317  0.37861420  1
  O  O334  1  0.49468055  1.00713565  0.87438186  1
  O  O335  1  0.99457007  0.49407500  0.38195955  1
  O  O336  1  0.99849474  0.48613082  0.88798516  1
  O  O337  1  1.00624266  0.99001155  0.38483821  1
  O  O338  1  0.99110928  0.99808487  0.88136173  1
  O  O339  1  -0.00025723  -0.00267842  0.11016492  1
  O  O340  1  0.00410750  0.00772590  0.61999453  1
  O  O341  1  0.00607306  0.50640348  0.12204438  1
  O  O342  1  0.00897771  0.48624404  0.61171582  1
  O  O343  1  0.50483241  0.01473846  0.13481236  1
  O  O344  1  0.50721796  0.00776993  0.60905902  1
  O  O345  1  0.50525251  0.50881694  0.11919085  1
  O  O346  1  0.49809492  0.50508944  0.61441223  1
  O  O347  1  0.23709918  0.37412750  0.25619516  1
  O  O348  1  0.24842411  0.38031656  0.74146756  1
  O  O349  1  0.23812146  0.88340022  0.25869694  1
  O  O350  1  0.25012694  0.88493926  0.73543506  1
  O  O351  1  0.75056678  0.37049998  0.24157956  1
  O  O352  1  0.74259201  0.38251934  0.74273331  1
  O  O353  1  0.74441785  0.87642533  0.24242209  1
  O  O354  1  0.75234791  0.89292903  0.75103772  1
  O  O355  1  0.24363460  0.11492849  0.26289439  1
  O  O356  1  0.25809959  0.12609192  0.76105228  1
  O  O357  1  0.25202379  0.61631946  0.25728807  1
  O  O358  1  0.26167038  0.60263680  0.72815628  1
  O  O359  1  0.75805818  0.12678219  0.25927569  1
  O  O360  1  0.74627907  0.11854144  0.76264935  1
  O  O361  1  0.73745690  0.64085270  0.25727271  1
  O  O362  1  0.74684609  0.60883902  0.74281019  1
  O  O363  1  0.36496506  0.11374074  0.37756294  1
  O  O364  1  0.36947601  0.11537658  0.87062156  1
  O  O365  1  0.37617672  0.61349156  0.37479951  1
  O  O366  1  0.37665011  0.60875516  0.87464613  1
  O  O367  1  0.86678361  0.13080586  0.36624187  1
  O  O368  1  0.86306499  0.11921412  0.87601679  1
  O  O369  1  0.87817126  0.61196059  0.37168244  1
  O  O370  1  0.87382409  0.62233089  0.87904982  1
  O  O371  1  0.11872976  0.38367770  0.13425975  1
  O  O372  1  0.13149981  0.38112628  0.62502065  1
  O  O373  1  0.11792412  0.87454276  0.13856666  1
  O  O374  1  0.13733417  0.89391800  0.60950474  1
  O  O375  1  0.63629427  0.38336670  0.12752491  1
  O  O376  1  0.63502054  0.36980816  0.63859658  1
  O  O377  1  0.63136027  0.87795346  0.13306083  1
  O  O378  1  0.63439949  0.89738966  0.61128656  1
  O  O379  1  0.11906190  0.25415054  0.25222742  1
  O  O380  1  0.12214318  0.25131275  0.76440336  1
  O  O381  1  0.11974850  0.75511084  0.25737868  1
  O  O382  1  0.11479667  0.75888263  0.69350498  1
  O  O383  1  0.60998487  0.25239900  0.24526708  1
  O  O384  1  0.61425444  0.25275711  0.75143122  1
  O  O385  1  0.62115446  0.75257282  0.25523831  1
  O  O386  1  0.62709605  0.74764481  0.76594935  1
  O  O387  1  0.38837483  0.25024011  0.24357110  1
  O  O388  1  0.38141622  0.24334144  0.74993531  1
  O  O389  1  0.38102165  0.74967644  0.23716520  1
  O  O390  1  0.38306577  0.74786438  0.74380851  1
  O  O391  1  0.88349045  0.24216867  0.24551810  1
  O  O392  1  0.87398599  0.25652858  0.73611831  1
  O  O393  1  0.88054895  0.74697574  0.24003339  1
  O  O394  1  0.86551971  0.74727780  0.73322143  1
  O  O395  1  0.38516107  0.49169788  0.49456745  1
  O  O396  1  0.38528440  0.49749921  0.99708509  1
  O  O397  1  0.38119056  0.99427816  0.48921755  1
  O  O398  1  0.37608897  0.99996970  0.98491136  1
  O  O399  1  0.88136825  0.49746073  0.49256698  1
  O  O400  1  0.88578345  0.49242529  1.00585277  1
  O  O401  1  0.87975401  0.98707756  0.50656247  1
  O  O402  1  0.88148251  1.00074367  0.98930276  1
  O  O403  1  0.11815485  0.00872494  0.00331291  1
  O  O404  1  0.11833159  0.01024225  0.50548160  1
  O  O405  1  0.11383768  0.49830840  0.00778505  1
  O  O406  1  0.11814670  0.50391344  0.50360761  1
  O  O407  1  0.62865073  -0.00041148  0.01526003  1
  O  O408  1  0.61694312  0.00945321  0.50025344  1
  O  O409  1  0.62017155  0.50621016  0.00635768  1
  O  O410  1  0.61401005  0.50852967  0.49499814  1
  O  O411  1  0.38004413  0.36096429  0.12283107  1
  O  O412  1  0.36643744  0.37240543  0.61803006  1
  O  O413  1  0.36922295  0.85946737  0.12277913  1
  O  O414  1  0.36337033  0.88784132  0.61245060  1
  O  O415  1  0.87108288  0.36803320  0.12278618  1
  O  O416  1  0.86692277  0.37052496  0.61849810  1
  O  O417  1  0.86781810  0.86785258  0.12406914  1
  O  O418  1  0.87046074  0.86563486  0.61664389  1
  O  O419  1  0.13094589  0.13082257  0.37968980  1
  O  O420  1  0.13152703  0.13218019  0.88235070  1
  O  O421  1  0.12664609  0.62887853  0.38843718  1
  O  O422  1  0.11544902  0.62015954  0.89139758  1
  O  O423  1  0.63504189  0.12400428  0.38590567  1
  O  O424  1  0.63802678  0.12951855  0.87820662  1
  O  O425  1  0.61503673  0.62683212  0.38275065  1
  O  O426  1  0.62233024  0.63183465  0.88580678  1
