# generated using pymatgen
data_V85Zn86O256
_symmetry_space_group_name_H-M   'P 1'
_cell_length_a   16.94035348
_cell_length_b   16.94252293
_cell_length_c   16.93506876
_cell_angle_alpha   89.99285036
_cell_angle_beta   89.95013863
_cell_angle_gamma   89.96511697
_symmetry_Int_Tables_number   1
_chemical_formula_structural   V85Zn86O256
_chemical_formula_sum   'V85 Zn86 O256'
_cell_volume   4860.57071860
_cell_formula_units_Z   1
loop_
 _symmetry_equiv_pos_site_id
 _symmetry_equiv_pos_as_xyz
  1  'x, y, z'
loop_
 _atom_site_type_symbol
 _atom_site_label
 _atom_site_symmetry_multiplicity
 _atom_site_fract_x
 _atom_site_fract_y
 _atom_site_fract_z
 _atom_site_occupancy
  V  V0  1  0.86981068  0.87578566  0.00009018  1
  V  V1  1  0.62498513  0.62950712  0.50109406  1
  V  V2  1  0.87747074  0.62472182  0.25008880  1
  V  V3  1  0.50144271  0.50241524  0.50011418  1
  V  V4  1  0.49942866  -0.00338461  -0.01422425  1
  V  V5  1  0.62515137  0.00060846  0.12279191  1
  V  V6  1  0.23078264  0.12249003  0.88150290  1
  V  V7  1  0.74853501  0.49696429  0.23905173  1
  V  V8  1  0.87451891  0.37461647  0.50013993  1
  V  V9  1  0.00631080  0.62580953  0.11585908  1
  V  V10  1  0.23559792  0.24921395  -0.00235051  1
  V  V11  1  0.50292256  0.37723526  0.87353022  1
  V  V12  1  0.87475834  0.49930084  0.37474480  1
  V  V13  1  0.38315137  0.62946956  0.25098829  1
  V  V14  1  0.25426560  -0.00146846  0.25350452  1
  V  V15  1  0.24884498  0.49981132  0.25074672  1
  V  V16  1  0.87670288  0.75066976  0.12455827  1
  V  V17  1  -0.00638682  0.87873356  0.37987280  1
  V  V18  1  0.00925604  0.00265313  -0.00290951  1
  V  V19  1  0.87125341  0.25293247  0.12494976  1
  V  V20  1  0.37530839  0.12292742  0.25026683  1
  V  V21  1  0.73795803  0.74353088  0.00052667  1
  V  V22  1  -0.00017965  0.75171099  0.74924414  1
  V  V23  1  0.62809296  0.37692454  0.74709233  1
  V  V24  1  0.25477797  0.25361118  0.50367296  1
  V  V25  1  0.38399138  0.75051691  0.12610955  1
  V  V26  1  0.50048713  0.37569023  0.37488289  1
  V  V27  1  0.74936996  0.25490956  0.00081732  1
  V  V28  1  0.86499101  0.12341904  0.75291020  1
  V  V29  1  0.49277496  0.62971934  0.62880466  1
  V  V30  1  0.85521924  0.00462600  0.87319395  1
  V  V31  1  0.37890672  0.87595983  -0.01117341  1
  V  V32  1  0.37685370  0.37538245  0.00058145  1
  V  V33  1  0.62903434  0.37842969  0.23804995  1
  V  V34  1  0.12694686  0.87719796  0.24993974  1
  V  V35  1  0.25075917  0.62848279  0.37701177  1
  V  V36  1  0.00266632  0.49985250  0.50401467  1
  V  V37  1  0.12856796  0.75317551  0.37727041  1
  V  V38  1  0.88408635  0.24804825  0.63107876  1
  V  V39  1  0.37510751  0.24980955  0.12294396  1
  V  V40  1  0.12770648  0.50285681  0.11629533  1
  V  V41  1  0.50058754  0.12342228  0.12205072  1
  V  V42  1  0.12649356  0.62319266  0.50553291  1
  V  V43  1  0.37496739  0.49894509  0.37539615  1
  V  V44  1  0.50087655  0.25099935  0.24917015  1
  V  V45  1  0.60889214  0.87382006  0.25198950  1
  V  V46  1  0.37460518  0.37367727  0.51415855  1
  V  V47  1  0.24029902  0.50096241  0.73771095  1
  V  V48  1  0.14242578  -0.00678507  0.63068631  1
  V  V49  1  0.19261635  0.32477725  0.67927446  1
  V  V50  1  -0.00041966  0.87571779  0.87470362  1
  V  V51  1  0.62644354  0.25207290  0.37508594  1
  V  V52  1  0.63335233  0.12026900  -0.00472578  1
  V  V53  1  0.87774650  0.37673572  -0.00354503  1
  V  V54  1  0.75479135  0.76559487  0.49971407  1
  V  V55  1  0.62472631  0.12400922  0.50190050  1
  V  V56  1  0.25285887  0.75642699  0.52268615  1
  V  V57  1  0.24748800  0.73892199  0.00290510  1
  V  V58  1  0.25471615  0.12083757  0.37698885  1
  V  V59  1  0.75285511  0.24974225  0.50167192  1
  V  V60  1  0.00101929  0.24921508  0.25037873  1
  V  V61  1  0.37055739  0.87886019  0.49932650  1
  V  V62  1  -0.00255841  0.62501569  0.62607936  1
  V  V63  1  0.75258581  0.50532354  0.74830585  1
  V  V64  1  0.49103712  0.76748350  0.74769079  1
  V  V65  1  -0.00776793  -0.00091265  0.51142238  1
  V  V66  1  0.37796822  0.12768597  0.76780011  1
  V  V67  1  0.62593591  -0.00641104  0.63534608  1
  V  V68  1  0.11898701  0.73560484  0.88297934  1
  V  V69  1  0.00756096  0.12682023  0.11877301  1
  V  V70  1  0.48899762  0.13028017  0.62158369  1
  V  V71  1  0.51239835  0.62215675  0.12363539  1
  V  V72  1  0.61896327  0.75298862  0.86121178  1
  V  V73  1  0.37444653  0.50399626  0.87353040  1
  V  V74  1  0.74995134  0.62825755  0.37629717  1
  V  V75  1  0.63075321  0.24589898  0.86881475  1
  V  V76  1  0.01398417  0.36433591  0.86192838  1
  V  V77  1  0.74991238  0.87661259  0.12635015  1
  V  V78  1  0.75178814  0.00058021  0.25211339  1
  V  V79  1  0.25141265  0.87445309  0.12273915  1
  V  V80  1  0.51755951  0.50274469  0.00242553  1
  V  V81  1  0.61007979  0.75536865  0.37245407  1
  V  V82  1  0.12717669  0.25043509  0.37537208  1
  V  V83  1  0.49697894  -0.00564095  0.48560235  1
  V  V84  1  0.00189712  0.75135428  0.25095221  1
  Zn  Zn85  1  0.12978484  0.00438070  0.11955113  1
  Zn  Zn86  1  0.74668175  0.62209365  0.87966090  1
  Zn  Zn87  1  0.24913651  0.37463287  0.12614788  1
  Zn  Zn88  1  0.87414694  0.00084275  0.37838813  1
  Zn  Zn89  1  0.75383289  0.12390403  0.37550324  1
  Zn  Zn90  1  0.37296608  0.62610917  0.74777586  1
  Zn  Zn91  1  0.00491456  0.12559252  0.63807025  1
  Zn  Zn92  1  0.87663471  0.12340138  0.25100128  1
  Zn  Zn93  1  0.00138823  0.37448397  0.37384407  1
  Zn  Zn94  1  0.32251513  -0.03422016  0.82146070  1
  Zn  Zn95  1  0.13932723  0.87558694  0.74966418  1
  Zn  Zn96  1  0.87165709  0.62728518  0.75190033  1
  Zn  Zn97  1  0.00472022  0.50034403  -0.00708339  1
  Zn  Zn98  1  0.24132768  0.61542446  0.87928769  1
  Zn  Zn99  1  0.62672627  0.50308899  0.62424239  1
  Zn  Zn100  1  0.12515898  0.37733259  0.25031228  1
  Zn  Zn101  1  0.87910481  0.76083067  0.61849423  1
  Zn  Zn102  1  0.49414125  0.25750773  0.74074494  1
  Zn  Zn103  1  0.87706338  0.50041325  0.87391540  1
  Zn  Zn104  1  0.75173390  0.37790653  0.62459353  1
  Zn  Zn105  1  0.12614726  0.12190760  0.50417914  1
  Zn  Zn106  1  0.75683298  0.88352058  0.64182803  1
  Zn  Zn107  1  0.18750783  0.18755586  0.18600805  1
  Zn  Zn108  1  0.19422413  0.16249565  0.69160903  1
  Zn  Zn109  1  0.19067298  0.68701293  0.18859669  1
  Zn  Zn110  1  0.18056501  0.68104659  0.69452583  1
  Zn  Zn111  1  0.68838926  0.18831356  0.18553744  1
  Zn  Zn112  1  0.68914149  0.18495661  0.68488257  1
  Zn  Zn113  1  0.68978717  0.69082881  0.19171931  1
  Zn  Zn114  1  0.68562157  0.69343116  0.68501650  1
  Zn  Zn115  1  0.31433647  0.31287810  0.31521313  1
  Zn  Zn116  1  0.31336736  0.30913342  0.81744010  1
  Zn  Zn117  1  0.31908851  0.81393630  0.31576493  1
  Zn  Zn118  1  0.30775120  0.79890889  0.81566015  1
  Zn  Zn119  1  0.81272740  0.31282505  0.31221407  1
  Zn  Zn120  1  0.81321744  0.31285855  0.81252251  1
  Zn  Zn121  1  0.80883057  0.81450251  0.31361545  1
  Zn  Zn122  1  0.81426937  0.80921087  0.81397714  1
  Zn  Zn123  1  0.18776896  0.43604358  0.44132145  1
  Zn  Zn124  1  0.18871935  0.43377440  0.93405644  1
  Zn  Zn125  1  0.18412463  0.93801048  0.44135889  1
  Zn  Zn126  1  0.19233082  0.92514700  0.92468505  1
  Zn  Zn127  1  0.68823593  0.43882465  0.43415997  1
  Zn  Zn128  1  0.69359128  0.43370542  0.93335700  1
  Zn  Zn129  1  0.68004854  0.93933943  0.43364835  1
  Zn  Zn130  1  0.67649873  0.92894213  0.81715985  1
  Zn  Zn131  1  0.31160417  0.06090245  0.05642907  1
  Zn  Zn132  1  0.31573049  0.06167705  0.55931171  1
  Zn  Zn133  1  0.31967225  0.56093076  0.06556998  1
  Zn  Zn134  1  0.31348490  0.56295536  0.56215848  1
  Zn  Zn135  1  0.81588916  0.06576623  0.06204928  1
  Zn  Zn136  1  0.81207280  0.06245591  0.56567933  1
  Zn  Zn137  1  0.81676046  0.56320389  0.06305786  1
  Zn  Zn138  1  0.81253550  0.56688553  0.56444082  1
  Zn  Zn139  1  0.43941101  0.43996659  0.18591791  1
  Zn  Zn140  1  0.43998221  0.44543160  0.68985380  1
  Zn  Zn141  1  0.43407449  0.94043681  0.18139208  1
  Zn  Zn142  1  0.43420103  0.94305247  0.67373117  1
  Zn  Zn143  1  0.93924251  0.43544617  0.18450920  1
  Zn  Zn144  1  0.93909783  0.43516252  0.68716453  1
  Zn  Zn145  1  0.93950702  0.93997360  0.18720101  1
  Zn  Zn146  1  0.93211541  0.93478796  0.69167782  1
  Zn  Zn147  1  0.06543906  0.06368010  0.31349907  1
  Zn  Zn148  1  0.05403218  0.06099963  0.80658831  1
  Zn  Zn149  1  0.06378500  0.56456963  0.31348265  1
  Zn  Zn150  1  0.05784269  0.55389532  0.81028193  1
  Zn  Zn151  1  0.56721881  0.06504872  0.31069218  1
  Zn  Zn152  1  0.55769383  0.06898182  0.81006516  1
  Zn  Zn153  1  0.56507719  0.56370292  0.31232117  1
  Zn  Zn154  1  0.56766891  0.56838599  0.81580421  1
  Zn  Zn155  1  0.43532523  0.18797669  0.43715555  1
  Zn  Zn156  1  0.44619114  0.19267295  0.93873058  1
  Zn  Zn157  1  0.43286838  0.69239838  0.44159633  1
  Zn  Zn158  1  0.44287376  0.68664882  0.93819407  1
  Zn  Zn159  1  0.93844927  0.18032708  0.43818612  1
  Zn  Zn160  1  0.93898630  0.18625978  0.93262265  1
  Zn  Zn161  1  0.93807464  0.68907311  0.43698764  1
  Zn  Zn162  1  0.93014225  0.68489718  0.93559565  1
  Zn  Zn163  1  0.05925252  0.31996374  0.06421552  1
  Zn  Zn164  1  0.06085194  0.31054508  0.55710760  1
  Zn  Zn165  1  0.06354407  0.81528483  0.06130082  1
  Zn  Zn166  1  0.06592934  0.81779759  0.56513935  1
  Zn  Zn167  1  0.56320235  0.31205854  0.05948285  1
  Zn  Zn168  1  0.56296258  0.31336913  0.56221512  1
  Zn  Zn169  1  0.56194253  0.81597473  0.06317209  1
  Zn  Zn170  1  0.55822385  0.81431573  0.56309470  1
  O  O171  1  0.11241474  0.12385987  0.12591120  1
  O  O172  1  0.12179708  0.10977210  0.62368637  1
  O  O173  1  0.11643965  0.61772129  0.13345431  1
  O  O174  1  0.11381912  0.62828269  0.61291078  1
  O  O175  1  0.61901890  0.12222008  0.11705225  1
  O  O176  1  0.61706918  0.11945044  0.61529927  1
  O  O177  1  0.61088203  0.63020749  0.13658362  1
  O  O178  1  0.61724500  0.62871817  0.61108928  1
  O  O179  1  0.38425325  0.38088045  0.38015557  1
  O  O180  1  0.38194108  0.38211432  0.88144659  1
  O  O181  1  0.37966031  0.86178975  0.39623652  1
  O  O182  1  0.37499281  0.87408461  0.88696299  1
  O  O183  1  0.87731410  0.38377777  0.38067505  1
  O  O184  1  0.87568593  0.37530481  0.88698610  1
  O  O185  1  0.89066590  0.87693962  0.36854496  1
  O  O186  1  0.88111312  0.88164240  0.88298299  1
  O  O187  1  0.24448416  0.00894904  0.36775012  1
  O  O188  1  0.25479745  0.02140575  0.90032816  1
  O  O189  1  0.25437347  0.50764726  0.37077838  1
  O  O190  1  0.25821549  0.49847023  0.86817078  1
  O  O191  1  0.75051390  0.00049508  0.36596971  1
  O  O192  1  0.75773289  -0.00671063  0.87981191  1
  O  O193  1  0.76218682  0.50732811  0.37141936  1
  O  O194  1  0.75219214  0.50249492  0.86417397  1
  O  O195  1  0.24528660  0.50131483  0.13396692  1
  O  O196  1  0.25430708  0.50186972  0.63819812  1
  O  O197  1  0.24894754  0.99286305  0.13020439  1
  O  O198  1  0.24180186  1.00338034  0.62500847  1
  O  O199  1  0.75520937  0.50471602  0.14021264  1
  O  O200  1  0.74593837  0.49918079  0.63027845  1
  O  O201  1  0.74522021  0.99601447  0.12893163  1
  O  O202  1  0.72910001  1.00111174  0.61742925  1
  O  O203  1  0.00130539  0.36162385  0.25243406  1
  O  O204  1  -0.00180148  0.37613487  0.76201562  1
  O  O205  1  0.00844275  0.87110446  0.25524517  1
  O  O206  1  0.00227208  0.86774739  0.76064844  1
  O  O207  1  0.50543087  0.37094028  0.25575316  1
  O  O208  1  0.50820973  0.37572477  0.75474712  1
  O  O209  1  0.50985298  0.87940973  0.24189951  1
  O  O210  1  0.49021428  0.86579788  0.74514246  1
  O  O211  1  0.49678025  0.13106868  0.24359178  1
  O  O212  1  0.49222326  0.13169146  0.73868832  1
  O  O213  1  0.48797864  0.61658868  0.24424454  1
  O  O214  1  0.49931752  0.62553715  0.73991355  1
  O  O215  1  1.00135149  0.13553073  0.24322616  1
  O  O216  1  0.97889494  0.12314400  0.75088569  1
  O  O217  1  0.99537591  0.63352197  0.24655373  1
  O  O218  1  1.00126415  0.62963040  0.73971133  1
  O  O219  1  0.37630295  0.26132219  0.00416625  1
  O  O220  1  0.36359512  0.25845552  0.49560595  1
  O  O221  1  0.37101472  0.75566392  0.00599972  1
  O  O222  1  0.35625976  0.75066242  0.50362320  1
  O  O223  1  0.86677932  0.25263715  0.00522720  1
  O  O224  1  0.86850441  0.25306514  0.50301389  1
  O  O225  1  0.87072918  0.75800522  0.00707704  1
  O  O226  1  0.85796586  0.74857885  0.49450703  1
  O  O227  1  0.13567641  0.24688192  0.49205522  1
  O  O228  1  0.13811312  0.25475915  1.00765753  1
  O  O229  1  0.13575571  0.74620960  0.49726041  1
  O  O230  1  0.13433520  0.75144426  0.99588860  1
  O  O231  1  0.63235451  0.24416443  0.49652575  1
  O  O232  1  0.63169583  0.24455734  0.99366757  1
  O  O233  1  0.62996656  0.74729230  0.49233232  1
  O  O234  1  0.63708531  0.75053736  1.00446448  1
  O  O235  1  0.49509651  0.24293023  0.12845265  1
  O  O236  1  0.50495797  0.23420965  0.62202307  1
  O  O237  1  0.48895673  0.74216771  0.11919202  1
  O  O238  1  0.50535273  0.74522374  0.63960942  1
  O  O239  1  0.99629194  0.24470773  0.13094449  1
  O  O240  1  0.98715999  0.24416715  0.61435577  1
  O  O241  1  0.99756895  0.74452227  0.13045387  1
  O  O242  1  1.00309090  0.74532269  0.63281601  1
  O  O243  1  0.00929525  0.24755729  0.36863179  1
  O  O244  1  -0.00427870  0.26525372  0.87767158  1
  O  O245  1  0.00839041  0.75821051  0.37276732  1
  O  O246  1  0.00196151  0.75394799  0.87218572  1
  O  O247  1  0.50528099  0.25514404  0.36916313  1
  O  O248  1  0.51446857  0.26036274  0.87349042  1
  O  O249  1  0.51112711  0.74342973  0.37613043  1
  O  O250  1  0.50848886  0.74555370  0.86086311  1
  O  O251  1  0.25159663  0.13280410  0.49259839  1
  O  O252  1  0.25313897  0.14036917  0.99445274  1
  O  O253  1  0.24336498  0.63428552  0.49936242  1
  O  O254  1  0.25628858  0.63565112  1.00364575  1
  O  O255  1  0.74087619  0.13187974  0.49975525  1
  O  O256  1  0.73873553  0.13434740  1.00486610  1
  O  O257  1  0.74098952  0.63156958  0.49427633  1
  O  O258  1  0.75548795  0.64114476  1.00504842  1
  O  O259  1  0.25880123  0.36346587  0.00000077  1
  O  O260  1  0.26156563  0.36724404  0.49613791  1
  O  O261  1  0.25850546  0.86383339  0.00508574  1
  O  O262  1  0.25327977  0.86296172  0.49975617  1
  O  O263  1  0.75721736  0.36209948  -0.00060300  1
  O  O264  1  0.75558968  0.36783803  0.49991883  1
  O  O265  1  0.76266886  0.86296965  0.00812329  1
  O  O266  1  0.74469574  0.86544077  0.49588139  1
  O  O267  1  0.13451770  0.50035190  0.24683858  1
  O  O268  1  0.14145937  0.50129662  0.75048857  1
  O  O269  1  0.13636948  0.99491864  0.24708462  1
  O  O270  1  0.12030235  0.99771084  0.73474915  1
  O  O271  1  0.63667516  0.49064925  0.25848813  1
  O  O272  1  0.63430743  0.49368154  0.74964981  1
  O  O273  1  0.63097402  0.99410906  0.24345825  1
  O  O274  1  0.62016912  1.00126168  0.74055912  1
  O  O275  1  0.36229118  0.00582072  0.24573481  1
  O  O276  1  0.38268738  0.01926371  0.74457097  1
  O  O277  1  0.36870632  0.50675832  0.25557905  1
  O  O278  1  0.36779728  0.50203484  0.75923747  1
  O  O279  1  0.86517361  0.00135552  0.24988291  1
  O  O280  1  0.87378768  0.00389028  0.76718453  1
  O  O281  1  0.87212116  0.50220849  0.25718251  1
  O  O282  1  0.86181684  0.50159863  0.74533197  1
  O  O283  1  0.12468798  0.36249172  0.37375086  1
  O  O284  1  0.11360544  0.37327374  0.87628133  1
  O  O285  1  0.11870018  0.87103753  0.36849167  1
  O  O286  1  0.10604932  0.86080976  0.88285032  1
  O  O287  1  0.61776947  0.36906810  0.37037434  1
  O  O288  1  0.62310263  0.36901366  0.86297847  1
  O  O289  1  0.62250921  0.86795870  0.36446400  1
  O  O290  1  0.62305366  0.85185344  0.88534703  1
  O  O291  1  0.38113280  0.12992539  0.12908188  1
  O  O292  1  0.38708558  0.12485160  0.62636339  1
  O  O293  1  0.38241777  0.63190423  0.13366758  1
  O  O294  1  0.38921716  0.62411458  0.62310132  1
  O  O295  1  0.88622542  0.13620582  0.12678118  1
  O  O296  1  0.87554722  0.13087516  0.63310903  1
  O  O297  1  0.88540320  0.63073248  0.13280585  1
  O  O298  1  0.88762637  0.63551454  0.62270847  1
  O  O299  1  0.25739858  0.25029936  0.11483279  1
  O  O300  1  0.24492990  0.25258620  0.61830899  1
  O  O301  1  0.25889639  0.75378369  0.12039591  1
  O  O302  1  0.24314099  0.74831325  0.62059705  1
  O  O303  1  0.76044991  0.24652472  0.11713584  1
  O  O304  1  0.75600757  0.25151219  0.61181327  1
  O  O305  1  0.75598096  0.75537998  0.11909277  1
  O  O306  1  0.74680655  0.75266520  0.60662632  1
  O  O307  1  0.24489003  0.24467846  0.38131902  1
  O  O308  1  0.25225446  0.23887567  0.89008812  1
  O  O309  1  0.24262601  0.74329652  0.37642019  1
  O  O310  1  0.23793097  0.73720950  0.88586447  1
  O  O311  1  0.74510975  0.24936958  0.38543475  1
  O  O312  1  0.73776116  0.25364997  0.88293369  1
  O  O313  1  0.74249088  0.74661385  0.38354503  1
  O  O314  1  0.74243409  0.74798416  0.88883166  1
  O  O315  1  -0.00550756  0.11463408  0.00612630  1
  O  O316  1  0.00579981  0.10891138  0.50201176  1
  O  O317  1  -0.00507630  0.62305042  0.01321362  1
  O  O318  1  0.00702133  0.62128097  0.50395743  1
  O  O319  1  0.50877236  0.11992399  0.00547375  1
  O  O320  1  0.50280383  0.12036381  0.50584866  1
  O  O321  1  0.49711869  0.61413290  0.01043323  1
  O  O322  1  0.50611413  0.62377290  0.50476320  1
  O  O323  1  0.49646484  0.38065176  0.49339327  1
  O  O324  1  0.49446342  0.38152807  0.99519631  1
  O  O325  1  0.49741508  0.89010135  0.49838743  1
  O  O326  1  0.49085043  0.88490229  1.00730874  1
  O  O327  1  0.99404459  0.38484616  0.49562794  1
  O  O328  1  0.99156192  0.37823531  0.99374687  1
  O  O329  1  1.00638096  0.88745425  0.49206746  1
  O  O330  1  0.98685392  0.88026706  0.99750988  1
  O  O331  1  0.49515028  0.49611471  0.38083068  1
  O  O332  1  0.49539202  0.49581449  0.88206128  1
  O  O333  1  0.50262711  1.00877575  0.38769486  1
  O  O334  1  0.50497675  1.00104681  0.88642758  1
  O  O335  1  0.98957041  0.50220226  0.38263907  1
  O  O336  1  0.99585896  0.48697825  0.87666116  1
  O  O337  1  1.00360602  0.99343958  0.38447259  1
  O  O338  1  0.99388616  0.99090606  0.88196769  1
  O  O339  1  0.00073319  0.00907437  0.11621325  1
  O  O340  1  0.00140800  -0.00209196  0.61629926  1
  O  O341  1  0.01062176  0.50880642  0.12652097  1
  O  O342  1  -0.00704486  0.50865927  0.61130594  1
  O  O343  1  0.50678805  0.00981480  0.12138242  1
  O  O344  1  0.51038822  0.01348211  0.61484436  1
  O  O345  1  0.49663141  0.50913953  0.11440862  1
  O  O346  1  0.50592072  0.51026038  0.61676081  1
  O  O347  1  0.25272287  0.38892852  0.25101332  1
  O  O348  1  0.25443743  0.38150713  0.74566758  1
  O  O349  1  0.24855894  0.88153332  0.24647030  1
  O  O350  1  0.24125773  0.88840796  0.80073309  1
  O  O351  1  0.74120794  0.38423702  0.25562443  1
  O  O352  1  0.74317982  0.38297470  0.74738998  1
  O  O353  1  0.74454139  0.88552697  0.24484106  1
  O  O354  1  0.74126303  0.86451926  0.75265106  1
  O  O355  1  0.25384783  0.11797509  0.25521729  1
  O  O356  1  0.26300391  0.12371572  0.77388144  1
  O  O357  1  0.25935218  0.61565452  0.25533389  1
  O  O358  1  0.25264485  0.61365794  0.75410035  1
  O  O359  1  0.74697189  0.11152773  0.24965728  1
  O  O360  1  0.76262578  0.12454537  0.74717085  1
  O  O361  1  0.75727171  0.61981375  0.25771519  1
  O  O362  1  0.74855660  0.61881969  0.74717227  1
  O  O363  1  0.36236647  0.13109302  0.36649371  1
  O  O364  1  0.38391724  0.12470388  0.86883133  1
  O  O365  1  0.37046288  0.62137622  0.36935116  1
  O  O366  1  0.37529310  0.61057414  0.87844267  1
  O  O367  1  0.87152395  0.12049544  0.36910290  1
  O  O368  1  0.87075624  0.11098605  0.87327596  1
  O  O369  1  0.87175888  0.61894680  0.36953212  1
  O  O370  1  0.86730372  0.61899659  0.87086114  1
  O  O371  1  0.12879099  0.38675929  0.13068278  1
  O  O372  1  0.12907342  0.37611154  0.62125680  1
  O  O373  1  0.13365550  0.87501517  0.13393777  1
  O  O374  1  0.12899689  0.88694508  0.63098947  1
  O  O375  1  0.62041280  0.37088282  0.13898686  1
  O  O376  1  0.62561640  0.37618601  0.63668769  1
  O  O377  1  0.63175059  0.88067492  0.13149437  1
  O  O378  1  0.62210484  0.89284147  0.62066018  1
  O  O379  1  0.11991333  0.25216517  0.25661726  1
  O  O380  1  0.14251651  0.25935874  0.73499172  1
  O  O381  1  0.12174787  0.75599243  0.25680428  1
  O  O382  1  0.11516097  0.75207903  0.76173292  1
  O  O383  1  0.62136567  0.25607722  0.25601575  1
  O  O384  1  0.62567537  0.25646066  0.75444761  1
  O  O385  1  0.63052691  0.76238891  0.26035952  1
  O  O386  1  0.61162177  0.75111792  0.75519462  1
  O  O387  1  0.38031863  0.24531336  0.24300223  1
  O  O388  1  0.37684125  0.23478435  0.75344027  1
  O  O389  1  0.36933134  0.73970166  0.24052822  1
  O  O390  1  0.38735650  0.74396850  0.75628900  1
  O  O391  1  0.88196972  0.24966259  0.24261332  1
  O  O392  1  0.86675386  0.24300938  0.73876851  1
  O  O393  1  0.88017846  0.74697836  0.24446339  1
  O  O394  1  0.89081263  0.74692397  0.75168942  1
  O  O395  1  0.37986587  0.49400480  0.49348569  1
  O  O396  1  0.37749097  0.48737052  0.99466666  1
  O  O397  1  0.38682901  0.99472608  0.49810799  1
  O  O398  1  0.38692373  0.98853645  1.00848714  1
  O  O399  1  0.88013834  0.49772699  0.49261315  1
  O  O400  1  0.87648438  0.48799186  1.00260128  1
  O  O401  1  0.88848327  1.00259074  0.49904089  1
  O  O402  1  0.87798596  0.99385361  0.99055904  1
  O  O403  1  0.11111107  -0.01220649  -0.00051021  1
  O  O404  1  0.11824099  -0.00068811  0.51421195  1
  O  O405  1  0.12861597  0.49860235  0.01291892  1
  O  O406  1  0.11494126  0.51078273  0.49207248  1
  O  O407  1  0.61760113  0.00975513  0.00843500  1
  O  O408  1  0.61365293  0.00812611  0.50251272  1
  O  O409  1  0.61640999  0.49229992  -0.00370763  1
  O  O410  1  0.61980713  0.51129565  0.49703958  1
  O  O411  1  0.37353185  0.37021107  0.11723913  1
  O  O412  1  0.38625478  0.37751111  0.61296272  1
  O  O413  1  0.36875823  0.86519116  0.12070811  1
  O  O414  1  0.38250143  0.87171433  0.60298023  1
  O  O415  1  0.88339945  0.36091130  0.11409193  1
  O  O416  1  0.87408574  0.36577167  0.61726594  1
  O  O417  1  0.87157680  0.87125488  0.11935804  1
  O  O418  1  0.86895908  0.87322053  0.62492014  1
  O  O419  1  0.13716702  0.13515147  0.37560624  1
  O  O420  1  0.13298453  0.12070777  0.87173296  1
  O  O421  1  0.12913352  0.63266022  0.38613136  1
  O  O422  1  0.11742900  0.63237628  0.87626442  1
  O  O423  1  0.62602577  0.13313183  0.38707725  1
  O  O424  1  0.62002121  0.13393196  0.88321070  1
  O  O425  1  0.62949168  0.63284525  0.38304877  1
  O  O426  1  0.62901309  0.64399069  0.87791623  1
