# generated using pymatgen
data_V85Zn86O256
_symmetry_space_group_name_H-M   'P 1'
_cell_length_a   16.97479178
_cell_length_b   16.95644276
_cell_length_c   16.97637294
_cell_angle_alpha   90.03846790
_cell_angle_beta   89.87402700
_cell_angle_gamma   90.00325016
_symmetry_Int_Tables_number   1
_chemical_formula_structural   V85Zn86O256
_chemical_formula_sum   'V85 Zn86 O256'
_cell_volume   4886.33190504
_cell_formula_units_Z   1
loop_
 _symmetry_equiv_pos_site_id
 _symmetry_equiv_pos_as_xyz
  1  'x, y, z'
loop_
 _atom_site_type_symbol
 _atom_site_label
 _atom_site_symmetry_multiplicity
 _atom_site_fract_x
 _atom_site_fract_y
 _atom_site_fract_z
 _atom_site_occupancy
  V  V0  1  0.12954215  0.37417148  0.75306982  1
  V  V1  1  0.50226700  0.87983253  0.87100525  1
  V  V2  1  0.62317955  0.37921926  0.75302340  1
  V  V3  1  0.82629052  0.21662656  0.67924182  1
  V  V4  1  0.36495405  0.25611489  0.12871772  1
  V  V5  1  0.12245139  0.75191890  0.87641785  1
  V  V6  1  0.24029743  0.62901733  0.37260543  1
  V  V7  1  0.12745180  -0.00002347  0.62241354  1
  V  V8  1  0.75637636  0.36986469  0.12514787  1
  V  V9  1  0.62553542  0.74694717  0.87350853  1
  V  V10  1  0.75268118  0.50457636  0.74759990  1
  V  V11  1  -0.00784149  0.73728889  0.74744813  1
  V  V12  1  0.38405459  0.63105151  0.25021544  1
  V  V13  1  0.51780555  0.12576127  0.12127641  1
  V  V14  1  0.56260667  0.81259815  0.20065779  1
  V  V15  1  0.13337875  0.24290159  0.87793847  1
  V  V16  1  0.74650232  0.74050127  0.50016748  1
  V  V17  1  0.74732233  0.12404594  0.39590426  1
  V  V18  1  0.50063324  0.50743669  0.00033142  1
  V  V19  1  0.00167068  0.37305719  0.37638864  1
  V  V20  1  -0.00014229  0.24580838  0.24963873  1
  V  V21  1  0.87160153  0.75131683  0.12260717  1
  V  V22  1  0.74859014  0.87298977  0.62671251  1
  V  V23  1  0.37350252  0.12355566  0.24259118  1
  V  V24  1  0.61938449  0.74108531  0.38025176  1
  V  V25  1  0.62030305  0.50883460  0.61188617  1
  V  V26  1  0.87510357  0.50993076  0.87165601  1
  V  V27  1  0.75267214  0.49817700  0.24929854  1
  V  V28  1  0.25160084  0.87605600  0.62557296  1
  V  V29  1  0.86915415  0.12342721  0.25206228  1
  V  V30  1  0.43262895  0.18996361  0.57751959  1
  V  V31  1  0.13889330  -0.00782370  0.12360522  1
  V  V32  1  -0.00586983  0.88609911  0.87620276  1
  V  V33  1  0.24553443  0.24874573  0.50588373  1
  V  V34  1  0.62055849  0.00565452  0.61469242  1
  V  V35  1  0.37480214  0.75186010  0.62551803  1
  V  V36  1  0.73846480  -0.01064336  0.24433225  1
  V  V37  1  0.87454800  -0.00606189  0.37615787  1
  V  V38  1  0.87767164  0.62430219  0.25089440  1
  V  V39  1  0.25156845  0.49912428  0.24358236  1
  V  V40  1  0.87825984  0.88708654  0.00343580  1
  V  V41  1  -0.01598643  0.11219408  0.63656399  1
  V  V42  1  0.62468590  0.50340521  0.11973841  1
  V  V43  1  0.75267966  0.62924507  0.86787450  1
  V  V44  1  0.37519397  0.00596841  0.87861175  1
  V  V45  1  -0.00337429  0.49972093  0.00062602  1
  V  V46  1  0.12005772  0.12417338  0.50100196  1
  V  V47  1  -0.00324855  0.76356402  0.25543398  1
  V  V48  1  0.37387651  -0.00245592  0.36727161  1
  V  V49  1  0.12815223  0.11922635  -0.00015169  1
  V  V50  1  0.49691280  0.62231074  0.60696678  1
  V  V51  1  0.25222377  0.49840154  0.75230204  1
  V  V52  1  -0.00294548  0.11022878  0.12131152  1
  V  V53  1  0.62350625  0.37402122  0.25216379  1
  V  V54  1  0.00024406  -0.00552968  0.49523118  1
  V  V55  1  0.24996354  0.00777157  0.75541695  1
  V  V56  1  0.26008998  0.36901839  0.62820279  1
  V  V57  1  0.62872458  0.24755268  0.39042068  1
  V  V58  1  0.74909789  0.37961207  0.62086560  1
  V  V59  1  0.82488833  0.32423453  -0.05651141  1
  V  V60  1  0.86857046  0.36018739  0.49988846  1
  V  V61  1  0.87690228  0.25178490  0.12125675  1
  V  V62  1  0.36621492  0.38136090  0.00595866  1
  V  V63  1  0.87713591  0.49799963  0.37736599  1
  V  V64  1  0.00317000  0.24821668  0.74419453  1
  V  V65  1  0.13032785  0.37379511  0.24314580  1
  V  V66  1  0.12624144  0.24870876  0.37571705  1
  V  V67  1  0.00394255  0.37148622  0.88164339  1
  V  V68  1  0.37384081  0.50333783  0.38693925  1
  V  V69  1  0.87938991  0.86898648  0.49888170  1
  V  V70  1  0.12330009  0.87567589  0.75018748  1
  V  V71  1  0.37951347  0.62646490  0.75075919  1
  V  V72  1  0.24727659  0.12059934  0.36823857  1
  V  V73  1  0.00292933  0.62525360  0.12553020  1
  V  V74  1  0.50984757  0.87585927  0.37581809  1
  V  V75  1  0.49963485  0.38108694  0.38243523  1
  V  V76  1  0.37655806  0.87686311  0.49857180  1
  V  V77  1  0.87852238  0.73369562  0.62732035  1
  V  V78  1  0.37704847  0.13090539  0.75536647  1
  V  V79  1  0.14066493  0.87850518  0.25348251  1
  V  V80  1  0.62468575  0.87977675  0.74635809  1
  V  V81  1  0.25193490  0.62866351  0.87865312  1
  V  V82  1  0.50002964  0.25059465  0.76147376  1
  V  V83  1  0.37012611  0.87675532  0.00572673  1
  V  V84  1  0.75064146  0.74811864  -0.00048248  1
  Zn  Zn85  1  0.50447542  0.63004843  0.12580409  1
  Zn  Zn86  1  0.24390536  0.75798857  0.00678844  1
  Zn  Zn87  1  0.37747258  0.38157715  0.50604198  1
  Zn  Zn88  1  0.12024646  0.50442339  0.62643057  1
  Zn  Zn89  1  0.24485545  0.75205746  0.49822817  1
  Zn  Zn90  1  0.50147343  0.01283321  0.49870511  1
  Zn  Zn91  1  0.69493714  0.92999567  0.07044846  1
  Zn  Zn92  1  0.63276016  0.17116045  0.97184686  1
  Zn  Zn93  1  0.37745095  0.50115808  0.87814112  1
  Zn  Zn94  1  0.50046039  0.25149413  0.24993854  1
  Zn  Zn95  1  0.36481505  0.75752487  0.13285268  1
  Zn  Zn96  1  0.52141900  0.00584363  -0.00259864  1
  Zn  Zn97  1  0.49740054  0.37587190  0.87920917  1
  Zn  Zn98  1  0.50001010  0.74849897  0.74892397  1
  Zn  Zn99  1  0.11231822  0.62908464  0.51162110  1
  Zn  Zn100  1  0.12846660  0.49519700  0.12059383  1
  Zn  Zn101  1  0.11562013  0.75775915  0.38020458  1
  Zn  Zn102  1  0.24869550  0.25157651  0.00383757  1
  Zn  Zn103  1  0.86094148  0.03685721  0.80034013  1
  Zn  Zn104  1  0.12589663  0.62596892  0.00193098  1
  Zn  Zn105  1  0.74475090  0.62043802  0.37825315  1
  Zn  Zn106  1  -0.00334704  0.50562264  0.51366391  1
  Zn  Zn107  1  0.18561420  0.18290216  0.18633354  1
  Zn  Zn108  1  0.18447522  0.18530386  0.68624513  1
  Zn  Zn109  1  0.18673065  0.69132047  0.18810351  1
  Zn  Zn110  1  0.18777231  0.68929478  0.69170557  1
  Zn  Zn111  1  0.69305559  0.19195176  0.19678785  1
  Zn  Zn112  1  0.66587461  0.19018127  0.68337521  1
  Zn  Zn113  1  0.69330740  0.68108181  0.18644560  1
  Zn  Zn114  1  0.68388493  0.68846871  0.68692670  1
  Zn  Zn115  1  0.31235946  0.31376928  0.31470654  1
  Zn  Zn116  1  0.31607435  0.31218633  0.82059657  1
  Zn  Zn117  1  0.31384409  0.81049460  0.31285559  1
  Zn  Zn118  1  0.31245901  0.81594219  0.81463340  1
  Zn  Zn119  1  0.81109940  0.30753870  0.31554757  1
  Zn  Zn120  1  0.76180764  0.16006389  0.86670015  1
  Zn  Zn121  1  0.80795067  0.81171990  0.31468555  1
  Zn  Zn122  1  0.78501011  0.86200667  0.83889794  1
  Zn  Zn123  1  0.18605164  0.44117265  0.44032142  1
  Zn  Zn124  1  0.18761961  0.43949331  0.93993772  1
  Zn  Zn125  1  0.18938914  0.93720722  0.43359738  1
  Zn  Zn126  1  0.18708902  0.94072245  0.93659569  1
  Zn  Zn127  1  0.68750505  0.43814216  0.43764895  1
  Zn  Zn128  1  0.65620451  0.38371785  0.96238632  1
  Zn  Zn129  1  0.69170724  0.93495112  0.44016673  1
  Zn  Zn130  1  0.70086237  1.02147141  0.91540182  1
  Zn  Zn131  1  0.31169432  0.06286263  0.06024491  1
  Zn  Zn132  1  0.30826188  0.05690317  0.55577991  1
  Zn  Zn133  1  0.31422022  0.57069009  0.06660828  1
  Zn  Zn134  1  0.28507405  0.57376965  0.57248252  1
  Zn  Zn135  1  0.80338462  0.07461569  0.06018742  1
  Zn  Zn136  1  0.82049915  0.05235392  0.58552514  1
  Zn  Zn137  1  0.81280273  0.56330744  0.05717952  1
  Zn  Zn138  1  0.81547372  0.55907233  0.55846232  1
  Zn  Zn139  1  0.43721020  0.44096494  0.19070851  1
  Zn  Zn140  1  0.43814726  0.44033114  0.68674756  1
  Zn  Zn141  1  0.43746890  0.94972086  0.18111306  1
  Zn  Zn142  1  0.43958833  0.94361687  0.68740613  1
  Zn  Zn143  1  0.94056062  0.43548810  0.18853715  1
  Zn  Zn144  1  0.93107199  0.42736289  0.69186685  1
  Zn  Zn145  1  0.92982311  0.93739252  0.18766089  1
  Zn  Zn146  1  0.94051708  0.92760497  0.68079081  1
  Zn  Zn147  1  0.05947598  0.05627711  0.30899368  1
  Zn  Zn148  1  0.06239024  0.06199429  0.81445225  1
  Zn  Zn149  1  0.06134459  0.55994832  0.31064077  1
  Zn  Zn150  1  0.06645921  0.56167182  0.81433402  1
  Zn  Zn151  1  0.56328804  0.06588032  0.31331400  1
  Zn  Zn152  1  0.56485848  0.06691093  0.80681871  1
  Zn  Zn153  1  0.56157045  0.55848537  0.31493581  1
  Zn  Zn154  1  0.56497999  0.56119625  0.81270766  1
  Zn  Zn155  1  0.43638152  0.19182936  0.41623673  1
  Zn  Zn156  1  0.43757228  0.18896767  0.94427940  1
  Zn  Zn157  1  0.43207490  0.69337318  0.43319263  1
  Zn  Zn158  1  0.43861762  0.68956001  0.93976701  1
  Zn  Zn159  1  0.93734450  0.18101563  0.43926678  1
  Zn  Zn160  1  0.94447837  0.17384495  0.93138090  1
  Zn  Zn161  1  0.93832923  0.68215231  0.43843909  1
  Zn  Zn162  1  0.93873963  0.68920844  0.93603636  1
  Zn  Zn163  1  0.06009895  0.30745911  0.06236286  1
  Zn  Zn164  1  0.04985429  0.34244748  0.57990162  1
  Zn  Zn165  1  0.05885828  0.81553866  0.06340392  1
  Zn  Zn166  1  0.06187169  0.80892037  0.56364722  1
  Zn  Zn167  1  0.54786687  0.31637462  0.07054053  1
  Zn  Zn168  1  0.56497735  0.32229646  0.56332835  1
  Zn  Zn169  1  0.55714497  0.81163672  0.03803343  1
  Zn  Zn170  1  0.55988402  0.80996261  0.56038631  1
  O  O171  1  0.11690936  0.11048868  0.12478096  1
  O  O172  1  0.11698943  0.11538175  0.61951487  1
  O  O173  1  0.11128815  0.62315309  0.12670375  1
  O  O174  1  0.16639727  0.61252370  0.61471052  1
  O  O175  1  0.61608434  0.13630515  0.13190950  1
  O  O176  1  0.62678396  0.10457952  0.62423736  1
  O  O177  1  0.62464264  0.60830274  0.13146748  1
  O  O178  1  0.60916397  0.62047823  0.62861709  1
  O  O179  1  0.38181843  0.38430692  0.37746290  1
  O  O180  1  0.37679993  0.38020354  0.88903806  1
  O  O181  1  0.38134643  0.88122862  0.37805429  1
  O  O182  1  0.38199485  0.88700641  0.87758715  1
  O  O183  1  0.88024431  0.38036817  0.37567507  1
  O  O184  1  0.88518022  0.38642721  0.88344628  1
  O  O185  1  0.86799720  0.88204922  0.38630388  1
  O  O186  1  0.88475435  0.86236342  0.89499064  1
  O  O187  1  0.26064187  0.01033599  0.37870555  1
  O  O188  1  0.25967510  -0.00245834  0.86484240  1
  O  O189  1  0.25402252  0.51041283  0.36548361  1
  O  O190  1  0.25039208  0.50866112  0.86674670  1
  O  O191  1  0.75790000  0.00501190  0.36983672  1
  O  O192  1  0.77412136  -0.02330760  0.84282670  1
  O  O193  1  0.75925388  0.49769773  0.36665133  1
  O  O194  1  0.76000957  0.51353493  0.86614239  1
  O  O195  1  0.24694688  0.50821935  0.13949802  1
  O  O196  1  0.25525486  0.48611064  0.64197845  1
  O  O197  1  0.23694907  1.00117774  0.12729716  1
  O  O198  1  0.24669559  0.99366224  0.63096400  1
  O  O199  1  0.74832138  0.49140120  0.12952910  1
  O  O200  1  0.74450983  0.49990461  0.62975619  1
  O  O201  1  0.75371370  1.00125849  0.13923734  1
  O  O202  1  0.73496024  0.98290320  0.61945271  1
  O  O203  1  0.00586293  0.36721011  0.26037218  1
  O  O204  1  0.00803814  0.36785520  0.76531939  1
  O  O205  1  -0.00089853  0.86488194  0.24724592  1
  O  O206  1  0.00612751  0.86594358  0.75479756  1
  O  O207  1  0.50925463  0.37708555  0.25947958  1
  O  O208  1  0.50289914  0.36895297  0.75001503  1
  O  O209  1  0.50055597  0.87730315  0.25330557  1
  O  O210  1  0.50078745  0.87315524  0.75858094  1
  O  O211  1  0.49236170  0.12695243  0.24032564  1
  O  O212  1  0.49062347  0.13611429  0.74821056  1
  O  O213  1  0.48637822  0.61920120  0.25003875  1
  O  O214  1  0.48634437  0.62493705  0.74846110  1
  O  O215  1  0.98792101  0.12624755  0.24499015  1
  O  O216  1  1.00748800  0.13619270  0.74608810  1
  O  O217  1  0.99489716  0.63110884  0.24309520  1
  O  O218  1  1.00886139  0.63869103  0.75128964  1
  O  O219  1  0.37180764  0.25888682  0.01051234  1
  O  O220  1  0.37239045  0.24287201  0.50781561  1
  O  O221  1  0.37690631  0.76809115  -0.00032190  1
  O  O222  1  0.36879977  0.76113397  0.50534390  1
  O  O223  1  0.87987592  0.25529692  -0.00107684  1
  O  O224  1  0.87052742  0.26226409  0.48288962  1
  O  O225  1  0.87241928  0.75032848  0.00912577  1
  O  O226  1  0.86946208  0.75394517  0.50531306  1
  O  O227  1  0.13215512  0.24274673  0.49341492  1
  O  O228  1  0.12664556  0.24124201  0.99524540  1
  O  O229  1  0.12741741  0.74772534  0.49553441  1
  O  O230  1  0.12170708  0.75094022  0.98726976  1
  O  O231  1  0.62283382  0.25596245  0.48958385  1
  O  O232  1  0.62271356  0.28019502  0.99670759  1
  O  O233  1  0.63310986  0.75267150  0.49079720  1
  O  O234  1  0.63796805  0.75332109  0.98742574  1
  O  O235  1  0.48667161  0.23867397  0.13033870  1
  O  O236  1  0.49537837  0.25147581  0.62994807  1
  O  O237  1  0.50601254  0.75436807  0.13392952  1
  O  O238  1  0.49069177  0.74203535  0.62593756  1
  O  O239  1  0.99505687  0.23987245  0.13261094  1
  O  O240  1  1.01075314  0.24786063  0.64047420  1
  O  O241  1  0.99286883  0.74292355  0.13337103  1
  O  O242  1  0.99303544  0.75342602  0.63831829  1
  O  O243  1  0.00611237  0.25177675  0.36810723  1
  O  O244  1  0.01130242  0.25674144  0.86983835  1
  O  O245  1  -0.00248451  0.74493297  0.35827883  1
  O  O246  1  0.00585252  0.75552270  0.86406526  1
  O  O247  1  0.51028060  0.26029982  0.36807470  1
  O  O248  1  0.49427689  0.25381885  0.86501027  1
  O  O249  1  0.50769259  0.75981244  0.37621216  1
  O  O250  1  0.50823782  0.75806785  0.87562706  1
  O  O251  1  0.24335847  0.12985974  0.49117027  1
  O  O252  1  0.23337727  0.12812659  1.00752437  1
  O  O253  1  0.25431236  0.63024028  0.47737969  1
  O  O254  1  0.24858761  0.62561903  0.98736809  1
  O  O255  1  0.75995687  0.11224239  0.49273391  1
  O  O256  1  0.74029218  0.12042261  0.98255679  1
  O  O257  1  0.75467088  0.63627918  0.49662655  1
  O  O258  1  0.75805011  0.63675693  0.98324567  1
  O  O259  1  0.26097651  0.37678984  0.00223343  1
  O  O260  1  0.25380134  0.36505007  0.50788731  1
  O  O261  1  0.26667657  0.87714242  -0.00851580  1
  O  O262  1  0.26080070  0.87765850  0.50512449  1
  O  O263  1  0.76514967  0.38252911  0.00786512  1
  O  O264  1  0.75471038  0.38093137  0.51119821  1
  O  O265  1  0.76706923  0.85940421  0.00579091  1
  O  O266  1  0.75799891  0.86257024  0.50747030  1
  O  O267  1  0.13213503  0.49014776  0.24904682  1
  O  O268  1  0.13532098  0.49263899  0.75049890  1
  O  O269  1  0.12096615  0.98641383  0.23999147  1
  O  O270  1  0.13325701  0.99615354  0.74567447  1
  O  O271  1  0.63495798  0.49097459  0.24848737  1
  O  O272  1  0.63457823  0.49977025  0.74060514  1
  O  O273  1  0.64027725  1.00238952  0.25553113  1
  O  O274  1  0.61607894  0.98462143  0.73559952  1
  O  O275  1  0.37655608  0.00768003  0.25873022  1
  O  O276  1  0.37031043  0.01133283  0.75554175  1
  O  O277  1  0.36735194  0.50971730  0.25750143  1
  O  O278  1  0.36869271  0.50852889  0.75456099  1
  O  O279  1  0.86868333  0.00503278  0.25940543  1
  O  O280  1  0.89203937  0.03102385  0.68880301  1
  O  O281  1  0.86945588  0.50086905  0.25622530  1
  O  O282  1  0.86190281  0.49247934  0.75691444  1
  O  O283  1  0.11792483  0.36900800  0.36866287  1
  O  O284  1  0.12106037  0.36773231  0.87249608  1
  O  O285  1  0.12596212  0.87729272  0.35870496  1
  O  O286  1  0.11557889  0.87159611  0.87119126  1
  O  O287  1  0.61929903  0.37285312  0.37088574  1
  O  O288  1  0.61872852  0.38845913  0.85504340  1
  O  O289  1  0.61388612  0.86860675  0.37913469  1
  O  O290  1  0.61574247  0.86497193  0.86136132  1
  O  O291  1  0.37549079  0.12927685  0.13359215  1
  O  O292  1  0.37444869  0.12355808  0.63087650  1
  O  O293  1  0.38131591  0.63036619  0.13925636  1
  O  O294  1  0.37526760  0.63054718  0.63265685  1
  O  O295  1  0.87968562  0.13046767  0.13038174  1
  O  O296  1  0.87581346  0.15788463  0.60900114  1
  O  O297  1  0.88459389  0.62996852  0.13009814  1
  O  O298  1  0.87129984  0.63460490  0.62435925  1
  O  O299  1  0.26103696  0.24677514  0.12743295  1
  O  O300  1  0.24884254  0.25021914  0.61334830  1
  O  O301  1  0.25261674  0.74537670  0.11803448  1
  O  O302  1  0.25701294  0.76331976  0.62688291  1
  O  O303  1  0.75704071  0.26298508  0.12994158  1
  O  O304  1  0.74614693  0.26348271  0.62875602  1
  O  O305  1  0.76259961  0.73944481  0.11672304  1
  O  O306  1  0.75569039  0.75140014  0.61736755  1
  O  O307  1  0.24818225  0.24248635  0.38654894  1
  O  O308  1  0.23642204  0.25154553  0.87890145  1
  O  O309  1  0.24489357  0.73916275  0.37171906  1
  O  O310  1  0.24079496  0.74559289  0.87678750  1
  O  O311  1  0.74085941  0.23723073  0.37242024  1
  O  O312  1  0.76284984  0.27827355  0.88268970  1
  O  O313  1  0.73977284  0.74777982  0.38234796  1
  O  O314  1  0.74506060  0.75124665  0.87873759  1
  O  O315  1  0.01209805  0.12749732  0.01215912  1
  O  O316  1  0.00184877  0.11504501  0.50895318  1
  O  O317  1  0.00183886  0.61927233  0.00774607  1
  O  O318  1  -0.00125447  0.61912727  0.50464921  1
  O  O319  1  0.51604871  0.13082578  0.00835040  1
  O  O320  1  0.48563585  0.13485103  0.50928788  1
  O  O321  1  0.49439133  0.61350232  0.00687469  1
  O  O322  1  0.48900588  0.62749601  0.50832189  1
  O  O323  1  0.49457692  0.37295281  0.48780186  1
  O  O324  1  0.48497932  0.38929268  1.00228361  1
  O  O325  1  0.48804537  0.87459696  0.49077057  1
  O  O326  1  0.48799791  0.88281680  0.98465177  1
  O  O327  1  0.99100720  0.36798855  0.48357836  1
  O  O328  1  1.00631320  0.38152127  0.98941082  1
  O  O329  1  0.98708304  0.87708569  0.50422470  1
  O  O330  1  0.98911785  0.87370508  0.99139536  1
  O  O331  1  0.48820731  0.49296090  0.37331050  1
  O  O332  1  0.49861421  0.50157937  0.88564960  1
  O  O333  1  0.49371108  0.99498769  0.37755868  1
  O  O334  1  0.49381661  0.99550712  0.87368762  1
  O  O335  1  0.98943721  0.48903669  0.37032038  1
  O  O336  1  0.99557859  0.49388260  0.87865744  1
  O  O337  1  0.98403148  1.00501575  0.38088831  1
  O  O338  1  0.98757566  0.98628674  0.85831735  1
  O  O339  1  0.00275633  0.00875132  0.13097383  1
  O  O340  1  0.01411983  -0.00419191  0.61240694  1
  O  O341  1  -0.00072342  0.50619549  0.11730529  1
  O  O342  1  0.01238577  0.45539982  0.61945526  1
  O  O343  1  0.49931643  0.02208353  0.11690874  1
  O  O344  1  0.51406751  -0.00715482  0.61651808  1
  O  O345  1  0.50979420  0.50064279  0.12129419  1
  O  O346  1  0.50765797  0.51035993  0.62664231  1
  O  O347  1  0.24067596  0.38451341  0.25805866  1
  O  O348  1  0.25177889  0.38002252  0.74899193  1
  O  O349  1  0.23902883  0.87282814  0.24966679  1
  O  O350  1  0.24583099  0.88638533  0.74501767  1
  O  O351  1  0.74683556  0.38268818  0.24500602  1
  O  O352  1  0.73848018  0.38857822  0.73406946  1
  O  O353  1  0.75266115  0.89021891  0.25252896  1
  O  O354  1  0.73760963  0.86104268  0.73325770  1
  O  O355  1  0.25602796  0.12922357  0.26129825  1
  O  O356  1  0.25662361  0.11397094  0.74441064  1
  O  O357  1  0.25702047  0.61999697  0.25863574  1
  O  O358  1  0.26003754  0.61929372  0.76106842  1
  O  O359  1  0.76090871  0.11700524  0.25498671  1
  O  O360  1  0.76676983  0.15421863  0.73472704  1
  O  O361  1  0.75821989  0.61085391  0.25168024  1
  O  O362  1  0.74816611  0.62120775  0.75869638  1
  O  O363  1  0.36880258  0.11843746  0.36197515  1
  O  O364  1  0.37956859  0.11484805  0.87119653  1
  O  O365  1  0.36793361  0.62141685  0.36507016  1
  O  O366  1  0.36788297  0.62776744  0.86894556  1
  O  O367  1  0.86722732  0.11733593  0.36843246  1
  O  O368  1  0.87176191  0.12897348  0.86336366  1
  O  O369  1  0.87186928  0.61303406  0.36797717  1
  O  O370  1  0.87291213  0.61641718  0.87192069  1
  O  O371  1  0.11718220  0.37372665  0.13990963  1
  O  O372  1  0.14652835  0.36802329  0.63848965  1
  O  O373  1  0.11988536  0.88643763  0.13287005  1
  O  O374  1  0.13287366  0.88010282  0.62990343  1
  O  O375  1  0.63334020  0.38346759  0.13652423  1
  O  O376  1  0.62764163  0.38913550  0.63084195  1
  O  O377  1  0.61580929  0.86498970  0.13157776  1
  O  O378  1  0.63013427  0.87438538  0.62766683  1
  O  O379  1  0.12180857  0.25410186  0.25616753  1
  O  O380  1  0.12247318  0.25331466  0.75966057  1
  O  O381  1  0.11386154  0.76522380  0.24908998  1
  O  O382  1  0.12042589  0.75676497  0.75887147  1
  O  O383  1  0.62677162  0.26519209  0.25793589  1
  O  O384  1  0.61020028  0.26463537  0.74463167  1
  O  O385  1  0.62711369  0.75256192  0.25409938  1
  O  O386  1  0.61902713  0.75973315  0.75331849  1
  O  O387  1  0.37608585  0.24244107  0.24703445  1
  O  O388  1  0.37645727  0.23721161  0.75468225  1
  O  O389  1  0.37582657  0.73602320  0.25174826  1
  O  O390  1  0.37496439  0.74398321  0.74448385  1
  O  O391  1  0.87918496  0.23998427  0.24572389  1
  O  O392  1  0.88810140  0.26514119  0.74338240  1
  O  O393  1  0.88019418  0.74756081  0.24365566  1
  O  O394  1  0.89009437  0.74918723  0.74255810  1
  O  O395  1  0.35991928  0.50287266  0.48775278  1
  O  O396  1  0.37932707  0.49722019  1.00336728  1
  O  O397  1  0.37905004  0.99469813  0.48753124  1
  O  O398  1  0.37705828  0.99501144  0.99237120  1
  O  O399  1  0.87660479  0.48698665  0.49012806  1
  O  O400  1  0.88883209  0.50579646  0.98973651  1
  O  O401  1  0.87955191  0.98912833  0.49694763  1
  O  O402  1  0.86967082  0.98495197  1.01032107  1
  O  O403  1  0.12597051  0.00214648  0.01380971  1
  O  O404  1  0.12055561  0.00440248  0.50034722  1
  O  O405  1  0.11266386  0.50357414  0.00141301  1
  O  O406  1  0.11900027  0.50316333  0.50457724  1
  O  O407  1  0.63178368  -0.02052348  -0.00646580  1
  O  O408  1  0.62020146  -0.00639721  0.50920171  1
  O  O409  1  0.61482958  0.48616627  0.01067524  1
  O  O410  1  0.62986084  0.50262035  0.51250209  1
  O  O411  1  0.37954651  0.36675198  0.12212517  1
  O  O412  1  0.36558293  0.37374571  0.62456504  1
  O  O413  1  0.38320667  0.87774976  0.10935806  1
  O  O414  1  0.37177419  0.87521407  0.61695013  1
  O  O415  1  0.86916344  0.36589127  0.13127143  1
  O  O416  1  0.86199269  0.36908750  0.61460931  1
  O  O417  1  0.88347042  0.86230935  0.11441368  1
  O  O418  1  0.86509503  0.86300968  0.61762928  1
  O  O419  1  0.13087542  0.12650413  0.37677315  1
  O  O420  1  0.11818860  0.13005695  0.88730198  1
  O  O421  1  0.13568292  0.62707089  0.36861279  1
  O  O422  1  0.13372466  0.63529961  0.87532233  1
  O  O423  1  0.63373321  0.13465342  0.37480345  1
  O  O424  1  0.64649668  0.11952179  0.86395160  1
  O  O425  1  0.62542948  0.63661508  0.36824307  1
  O  O426  1  0.63422522  0.63966808  0.86632413  1
