# generated using pymatgen
data_V85Zn86O256
_symmetry_space_group_name_H-M   'P 1'
_cell_length_a   16.95349552
_cell_length_b   16.97273416
_cell_length_c   16.95238287
_cell_angle_alpha   90.02860949
_cell_angle_beta   90.04819021
_cell_angle_gamma   90.08198906
_symmetry_Int_Tables_number   1
_chemical_formula_structural   V85Zn86O256
_chemical_formula_sum   'V85 Zn86 O256'
_cell_volume   4877.99290961
_cell_formula_units_Z   1
loop_
 _symmetry_equiv_pos_site_id
 _symmetry_equiv_pos_as_xyz
  1  'x, y, z'
loop_
 _atom_site_type_symbol
 _atom_site_label
 _atom_site_symmetry_multiplicity
 _atom_site_fract_x
 _atom_site_fract_y
 _atom_site_fract_z
 _atom_site_occupancy
  V  V0  1  0.00051262  0.62765977  0.12135590  1
  V  V1  1  0.61771771  0.75435826  0.86164360  1
  V  V2  1  0.74859247  0.00157984  0.25389593  1
  V  V3  1  0.49603034  0.11493816  0.11306729  1
  V  V4  1  0.37860331  0.00087452  0.88524431  1
  V  V5  1  0.74743928  0.75456398  -0.00152979  1
  V  V6  1  0.86543753  0.12727364  0.25649685  1
  V  V7  1  0.25350027  -0.00257898  0.25413333  1
  V  V8  1  0.12282517  0.12752710  0.00042056  1
  V  V9  1  0.38411163  0.37525346  0.49752168  1
  V  V10  1  0.49975472  0.35877992  0.87614021  1
  V  V11  1  0.50274893  0.50022826  0.50664120  1
  V  V12  1  0.74882514  0.62305821  0.86702458  1
  V  V13  1  0.12499273  0.25107375  0.87729204  1
  V  V14  1  0.74967513  0.62336144  0.37436433  1
  V  V15  1  0.74518154  -0.00613754  0.75095526  1
  V  V16  1  0.74484742  0.87335696  0.62597278  1
  V  V17  1  0.87427026  0.37759312  -0.00019445  1
  V  V18  1  0.61889302  0.62379265  -0.00424689  1
  V  V19  1  0.61975143  -0.00183286  0.62620801  1
  V  V20  1  0.25374302  0.86405217  0.62342711  1
  V  V21  1  0.49705381  -0.00222193  0.48221608  1
  V  V22  1  0.74950677  0.74915008  0.49979831  1
  V  V23  1  0.87417953  0.87385242  0.49860788  1
  V  V24  1  0.61260163  0.25078313  0.36696672  1
  V  V25  1  0.37658579  0.87153595  0.48986634  1
  V  V26  1  0.00440032  0.50579473  -0.00247255  1
  V  V27  1  0.12426995  0.87659748  0.74850208  1
  V  V28  1  0.12394347  0.13159896  0.49682376  1
  V  V29  1  0.25595025  0.50436510  0.24884982  1
  V  V30  1  0.13286030  0.62821626  0.50300770  1
  V  V31  1  0.61588125  0.75537389  0.37528975  1
  V  V32  1  0.88239181  0.49598149  0.37450533  1
  V  V33  1  0.88168680  0.37401003  0.49642835  1
  V  V34  1  -0.00649568  0.12410999  0.13041343  1
  V  V35  1  0.13493119  0.75182532  0.87795662  1
  V  V36  1  0.25498886  0.37802335  0.12365664  1
  V  V37  1  0.38035375  0.12690682  0.25583691  1
  V  V38  1  0.25029998  0.25370828  0.49534318  1
  V  V39  1  0.00091048  0.24961778  0.75071488  1
  V  V40  1  0.62110680  0.62292645  0.50405330  1
  V  V41  1  0.62570627  0.35020804  0.75334630  1
  V  V42  1  0.13383058  0.50012355  0.63167367  1
  V  V43  1  -0.00651717  -0.00278735  0.00047641  1
  V  V44  1  0.63042661  0.12395862  0.49349268  1
  V  V45  1  0.61108712  0.37467510  0.25431229  1
  V  V46  1  0.38282216  0.50015775  0.37252039  1
  V  V47  1  0.25351873  0.25528036  0.00147839  1
  V  V48  1  0.50398623  0.88033892  0.87125615  1
  V  V49  1  0.25244343  0.00280267  0.74770260  1
  V  V50  1  0.12714186  0.75239689  0.38109793  1
  V  V51  1  0.61246755  0.87607086  0.25199733  1
  V  V52  1  0.75082202  0.24904079  0.49028818  1
  V  V53  1  0.74572350  0.87217202  0.12831990  1
  V  V54  1  -0.00440978  0.87395090  0.87573436  1
  V  V55  1  0.87604713  0.25133047  0.62600729  1
  V  V56  1  -0.00356502  0.74794474  0.75056041  1
  V  V57  1  0.87307699  0.75341306  0.11903553  1
  V  V58  1  0.87555506  0.12344974  0.75095681  1
  V  V59  1  0.00019123  0.62184541  0.62267196  1
  V  V60  1  0.26023093  0.63094131  0.37938698  1
  V  V61  1  0.25342584  0.12319750  0.37717554  1
  V  V62  1  0.39623960  0.75139899  0.63334682  1
  V  V63  1  0.25054589  0.12605101  0.87367268  1
  V  V64  1  0.63060314  0.50270173  0.63851813  1
  V  V65  1  0.87158446  -0.00346201  0.87967835  1
  V  V66  1  0.24625420  0.60931023  0.86684525  1
  V  V67  1  0.38568958  0.12597553  0.74900006  1
  V  V68  1  0.25586559  0.37976350  0.63176779  1
  V  V69  1  0.74915617  0.49802278  0.25038694  1
  V  V70  1  0.62244328  0.50041281  0.11950988  1
  V  V71  1  0.87532155  0.24851935  0.12535885  1
  V  V72  1  0.12488562  0.00149502  0.12956159  1
  V  V73  1  0.86978164  0.49965698  0.86645407  1
  V  V74  1  0.38125450  0.25306869  0.12969231  1
  V  V75  1  -0.00387604  0.75048163  0.25380462  1
  V  V76  1  0.12579090  0.50337416  0.12551224  1
  V  V77  1  0.12846497  0.00047902  0.62354999  1
  V  V78  1  0.38719156  0.62034015  0.74834182  1
  V  V79  1  0.73696855  0.13108228  0.87543757  1
  V  V80  1  0.38429046  0.25029373  0.62739375  1
  V  V81  1  0.74823696  0.37454033  0.12343668  1
  V  V82  1  0.00099082  -0.00093923  0.50060967  1
  V  V83  1  0.12957650  0.37694495  0.74982957  1
  V  V84  1  -0.00004250  0.37517554  0.87619760  1
  Zn  Zn85  1  0.37196866  0.86846789  0.00099469  1
  Zn  Zn86  1  0.18233027  0.68314610  0.03824337  1
  Zn  Zn87  1  0.49015126  0.48941844  -0.00354810  1
  Zn  Zn88  1  0.50468548  0.12802785  0.62486841  1
  Zn  Zn89  1  0.24314624  0.86718209  0.11032293  1
  Zn  Zn90  1  0.87313111  0.74588839  0.62480187  1
  Zn  Zn91  1  0.12167542  0.87777750  0.25322131  1
  Zn  Zn92  1  0.12315453  0.37470617  0.27815187  1
  Zn  Zn93  1  0.47924075  0.74365061  0.25282503  1
  Zn  Zn94  1  0.00250598  0.12417787  0.62684385  1
  Zn  Zn95  1  -0.00070194  0.87602177  0.37565706  1
  Zn  Zn96  1  0.75169948  0.37787487  0.62985241  1
  Zn  Zn97  1  0.73882264  0.25333739  -0.01281146  1
  Zn  Zn98  1  0.00179899  0.25761258  0.27711125  1
  Zn  Zn99  1  0.35281147  0.74126693  0.12467759  1
  Zn  Zn100  1  0.87032918  0.00359560  0.37820866  1
  Zn  Zn101  1  0.37696098  0.48905752  0.87028310  1
  Zn  Zn102  1  0.47437856  0.61977308  0.14189539  1
  Zn  Zn103  1  0.87042438  0.62585940  0.24720258  1
  Zn  Zn104  1  0.00965047  0.49388581  0.49276784  1
  Zn  Zn105  1  0.87146193  0.61772933  0.74378074  1
  Zn  Zn106  1  0.60406641  -0.00965265  0.11068301  1
  Zn  Zn107  1  0.18938761  0.18769768  0.19200175  1
  Zn  Zn108  1  0.19208978  0.19119890  0.68292864  1
  Zn  Zn109  1  0.19086955  0.68840058  0.20306335  1
  Zn  Zn110  1  0.18913684  0.68739867  0.69442117  1
  Zn  Zn111  1  0.67620503  0.19492749  0.16304200  1
  Zn  Zn112  1  0.69376767  0.18145364  0.68100503  1
  Zn  Zn113  1  0.62333606  0.68676806  0.18675495  1
  Zn  Zn114  1  0.68526583  0.68559158  0.68647277  1
  Zn  Zn115  1  0.31145724  0.31632883  0.31265547  1
  Zn  Zn116  1  0.31591413  0.30832431  0.81091697  1
  Zn  Zn117  1  0.30937606  0.81280176  0.30645804  1
  Zn  Zn118  1  0.31758108  0.81570195  0.81118079  1
  Zn  Zn119  1  0.81149657  0.31212845  0.31028372  1
  Zn  Zn120  1  0.80849903  0.31451846  0.80941904  1
  Zn  Zn121  1  0.80882181  0.81148216  0.31224145  1
  Zn  Zn122  1  0.81125534  0.81117368  0.81238070  1
  Zn  Zn123  1  0.19976336  0.44658051  0.44631264  1
  Zn  Zn124  1  0.18863505  0.43805447  0.94202972  1
  Zn  Zn125  1  0.19106588  0.93701200  0.43821056  1
  Zn  Zn126  1  0.18554561  0.93941982  0.93665967  1
  Zn  Zn127  1  0.69078663  0.43275874  0.43902643  1
  Zn  Zn128  1  0.68409450  0.43540220  0.92979094  1
  Zn  Zn129  1  0.68662660  0.93818028  0.43496350  1
  Zn  Zn130  1  0.67849593  0.93456228  0.94114355  1
  Zn  Zn131  1  0.30955105  0.06414702  0.06641817  1
  Zn  Zn132  1  0.31625598  0.06031137  0.56142834  1
  Zn  Zn133  1  0.32047103  0.56083127  0.05001057  1
  Zn  Zn134  1  0.31683419  0.56674931  0.56697745  1
  Zn  Zn135  1  0.77424133  0.04451939  0.04596905  1
  Zn  Zn136  1  0.81023061  0.06207114  0.56327478  1
  Zn  Zn137  1  0.80956661  0.56689696  0.05850210  1
  Zn  Zn138  1  0.81130157  0.55915705  0.56058626  1
  Zn  Zn139  1  0.43694020  0.44151427  0.18422521  1
  Zn  Zn140  1  0.44734859  0.43699207  0.69230209  1
  Zn  Zn141  1  0.42640944  0.93171042  0.18594767  1
  Zn  Zn142  1  0.43998469  0.93633616  0.69139245  1
  Zn  Zn143  1  0.93740844  0.43962380  0.18856906  1
  Zn  Zn144  1  0.94306674  0.43502715  0.68390248  1
  Zn  Zn145  1  0.93123092  0.93702641  0.18924385  1
  Zn  Zn146  1  0.93468246  0.93651772  0.68555066  1
  Zn  Zn147  1  0.06085628  0.06838293  0.31639543  1
  Zn  Zn148  1  0.06183533  0.06241672  0.81330996  1
  Zn  Zn149  1  0.06659371  0.56565431  0.31057476  1
  Zn  Zn150  1  0.06277774  0.56422678  0.81168471  1
  Zn  Zn151  1  0.56946700  0.06716148  0.30530179  1
  Zn  Zn152  1  0.56245273  0.06067782  0.81279277  1
  Zn  Zn153  1  0.56425810  0.55836519  0.31859882  1
  Zn  Zn154  1  0.55715011  0.56022159  0.81795217  1
  Zn  Zn155  1  0.43910461  0.18514725  0.43958658  1
  Zn  Zn156  1  0.43662913  0.18984956  0.93968966  1
  Zn  Zn157  1  0.43839608  0.69006656  0.44412961  1
  Zn  Zn158  1  0.43169790  0.68354032  0.93520694  1
  Zn  Zn159  1  0.93306219  0.18098837  0.44084392  1
  Zn  Zn160  1  0.93143818  0.18703703  0.94098666  1
  Zn  Zn161  1  0.93814291  0.68471312  0.43945938  1
  Zn  Zn162  1  0.93473037  0.68733115  0.93610438  1
  Zn  Zn163  1  0.06572771  0.31255983  0.13690279  1
  Zn  Zn164  1  0.06667075  0.31329010  0.44830217  1
  Zn  Zn165  1  0.05834732  0.81839434  0.06299688  1
  Zn  Zn166  1  0.06261325  0.81135100  0.56376748  1
  Zn  Zn167  1  0.56361288  0.30689396  0.05935107  1
  Zn  Zn168  1  0.56639755  0.31538340  0.56332558  1
  Zn  Zn169  1  0.52041260  0.79243566  0.04562855  1
  Zn  Zn170  1  0.56264514  0.81680669  0.55833919  1
  O  O171  1  0.11464097  0.11693735  0.12107145  1
  O  O172  1  0.12836475  0.11833386  0.61433838  1
  O  O173  1  0.12219116  0.61637035  0.12213555  1
  O  O174  1  0.12291649  0.62232957  0.62165106  1
  O  O175  1  0.59386019  0.11649358  0.14740630  1
  O  O176  1  0.62448312  0.11563069  0.61385542  1
  O  O177  1  0.64382963  0.60758409  0.10890419  1
  O  O178  1  0.62951458  0.61325704  0.61747152  1
  O  O179  1  0.36921070  0.38672642  0.38701577  1
  O  O180  1  0.39506278  0.37109587  0.85979282  1
  O  O181  1  0.36891398  0.86706209  0.39196647  1
  O  O182  1  0.38338144  0.88518387  0.87575653  1
  O  O183  1  0.87058844  0.38406697  0.38231571  1
  O  O184  1  0.87751256  0.38032283  0.87962434  1
  O  O185  1  0.87493741  0.87584545  0.38860662  1
  O  O186  1  0.88177196  0.88595206  0.86728832  1
  O  O187  1  0.24603777  0.01129283  0.36780856  1
  O  O188  1  0.25489085  0.00820669  0.86440772  1
  O  O189  1  0.26438717  0.50948072  0.37221954  1
  O  O190  1  0.24669994  0.50714237  0.86703771  1
  O  O191  1  0.75069993  -0.00258174  0.35949115  1
  O  O192  1  0.75562564  0.00425008  0.86624838  1
  O  O193  1  0.75685133  0.50419579  0.37030519  1
  O  O194  1  0.75833018  0.50982532  0.87808607  1
  O  O195  1  0.24602872  0.49691679  0.13199580  1
  O  O196  1  0.24689159  0.49218426  0.62247723  1
  O  O197  1  0.23720532  1.00745016  0.13678297  1
  O  O198  1  0.24824170  0.99356084  0.63166018  1
  O  O199  1  0.74861573  0.49284229  0.13224684  1
  O  O200  1  0.73463277  0.49625573  0.61989941  1
  O  O201  1  0.77019994  0.97803287  0.13873609  1
  O  O202  1  0.74131595  0.99368208  0.63037994  1
  O  O203  1  0.01058794  0.36697610  0.23013068  1
  O  O204  1  0.00806879  0.36783390  0.75571603  1
  O  O205  1  -0.00063542  0.86312881  0.25294957  1
  O  O206  1  0.00475196  0.86834535  0.75131074  1
  O  O207  1  0.51203268  0.38113177  0.24878953  1
  O  O208  1  0.51827751  0.37343175  0.75673763  1
  O  O209  1  0.51038118  0.87268403  0.24599006  1
  O  O210  1  0.49671507  0.87582829  0.76826159  1
  O  O211  1  0.48143746  0.12211098  0.25547330  1
  O  O212  1  0.48912108  0.12012229  0.74553421  1
  O  O213  1  0.52886668  0.63270074  0.24514422  1
  O  O214  1  0.48593459  0.62941944  0.75600993  1
  O  O215  1  0.99049743  0.12446325  0.24085292  1
  O  O216  1  0.99281426  0.13009365  0.74867025  1
  O  O217  1  0.99894437  0.63665901  0.24218830  1
  O  O218  1  0.99804183  0.63258685  0.74210717  1
  O  O219  1  0.36020783  0.24171859  0.01158030  1
  O  O220  1  0.37158579  0.25831510  0.50421634  1
  O  O221  1  0.40473169  0.75496399  0.01558302  1
  O  O222  1  0.38281429  0.76385890  0.51511462  1
  O  O223  1  0.86974017  0.26052088  0.00779574  1
  O  O224  1  0.86883847  0.25297130  0.50707643  1
  O  O225  1  0.86279255  0.74456200  0.00671160  1
  O  O226  1  0.86948601  0.75708869  0.50315371  1
  O  O227  1  0.13749631  0.24097742  0.51017074  1
  O  O228  1  0.13614396  0.24167089  0.99377156  1
  O  O229  1  0.11991584  0.74271333  0.49050928  1
  O  O230  1  0.10923701  0.75167559  0.98298500  1
  O  O231  1  0.63105315  0.24388087  0.49333901  1
  O  O232  1  0.65144251  0.24138252  1.05552712  1
  O  O233  1  0.62923817  0.74315654  0.49505695  1
  O  O234  1  0.63121607  0.73933265  0.98936215  1
  O  O235  1  0.48357817  0.24441615  0.12360754  1
  O  O236  1  0.48821406  0.24738313  0.61504685  1
  O  O237  1  0.52518004  0.73204927  0.13711202  1
  O  O238  1  0.49461677  0.75485515  0.62855048  1
  O  O239  1  0.98843613  0.23418379  0.11153145  1
  O  O240  1  0.98329398  0.24441037  0.63422263  1
  O  O241  1  0.99430190  0.74618854  0.13023499  1
  O  O242  1  1.00082027  0.73811588  0.63152055  1
  O  O243  1  0.00846830  0.24039679  0.38658321  1
  O  O244  1  0.00326910  0.25553187  0.87201870  1
  O  O245  1  0.00434104  0.74901625  0.36882068  1
  O  O246  1  0.00181863  0.75425730  0.86608770  1
  O  O247  1  0.51435429  0.25048570  0.37959991  1
  O  O248  1  0.50069821  0.25790459  0.87473221  1
  O  O249  1  0.51301013  0.74476042  0.37372661  1
  O  O250  1  0.51341289  0.75758514  0.87563144  1
  O  O251  1  0.24726366  0.13164440  0.49583782  1
  O  O252  1  0.24194738  0.13019131  0.99414480  1
  O  O253  1  0.24071253  0.62286490  0.49551725  1
  O  O254  1  0.25361558  0.62487242  0.97307145  1
  O  O255  1  0.73815162  0.13015302  0.50200250  1
  O  O256  1  0.76801757  0.13344974  0.97545616  1
  O  O257  1  0.74135261  0.62822501  0.49490710  1
  O  O258  1  0.74347813  0.63340150  0.98628389  1
  O  O259  1  0.24934665  0.36536078  0.00797793  1
  O  O260  1  0.26359506  0.37037373  0.51224463  1
  O  O261  1  0.25657233  0.88323805  -0.00281494  1
  O  O262  1  0.26834288  0.88595635  0.51094286  1
  O  O263  1  0.75935503  0.37480984  0.00153837  1
  O  O264  1  0.76059371  0.36541172  0.50507278  1
  O  O265  1  0.74497665  0.86007801  0.00777335  1
  O  O266  1  0.75565187  0.87140189  0.50555387  1
  O  O267  1  0.13201568  0.49936095  0.24069672  1
  O  O268  1  0.12123506  0.49445252  0.73930937  1
  O  O269  1  0.12741588  1.00316762  0.24422786  1
  O  O270  1  0.13058241  0.99651468  0.74357540  1
  O  O271  1  0.63254031  0.49200847  0.24565817  1
  O  O272  1  0.62375087  0.50614922  0.73787387  1
  O  O273  1  0.63247243  0.99081375  0.24614681  1
  O  O274  1  0.63534117  1.00481690  0.73991964  1
  O  O275  1  0.36084120  0.01021313  0.24767110  1
  O  O276  1  0.36845098  0.00826241  0.75429151  1
  O  O277  1  0.36952730  0.49702791  0.26126464  1
  O  O278  1  0.38036241  0.51559123  0.74697520  1
  O  O279  1  0.86986533  0.00862096  0.25587041  1
  O  O280  1  0.86849575  0.00652779  0.75452578  1
  O  O281  1  0.86748078  0.50220013  0.25650657  1
  O  O282  1  0.88270466  0.49704543  0.76266633  1
  O  O283  1  0.12443115  0.38877323  0.38951398  1
  O  O284  1  0.12070579  0.36991662  0.87114654  1
  O  O285  1  0.12175545  0.86582578  0.37858972  1
  O  O286  1  0.11584993  0.87090638  0.86635223  1
  O  O287  1  0.62977378  0.36190277  0.36846405  1
  O  O288  1  0.62122363  0.36798865  0.86031796  1
  O  O289  1  0.62727646  0.86604647  0.36868817  1
  O  O290  1  0.61957348  0.86450284  0.87421226  1
  O  O291  1  0.38007979  0.13168255  0.13457121  1
  O  O292  1  0.37671233  0.13226273  0.63072103  1
  O  O293  1  0.36418371  0.62492670  0.12765236  1
  O  O294  1  0.37283220  0.64138216  0.63500066  1
  O  O295  1  0.87965505  0.13385870  0.13247157  1
  O  O296  1  0.87291254  0.12845107  0.63725636  1
  O  O297  1  0.87934695  0.63495289  0.12629743  1
  O  O298  1  0.88466926  0.62338678  0.62423559  1
  O  O299  1  0.25392056  0.25961303  0.11905754  1
  O  O300  1  0.26208370  0.25778940  0.61433743  1
  O  O301  1  0.23072646  0.74916232  0.11882398  1
  O  O302  1  0.24947484  0.76295501  0.62790846  1
  O  O303  1  0.77057372  0.26252116  0.14404939  1
  O  O304  1  0.76122795  0.24897363  0.61499773  1
  O  O305  1  0.75597666  0.75734374  0.11743693  1
  O  O306  1  0.74979511  0.75759861  0.61960012  1
  O  O307  1  0.25242958  0.24686957  0.38956949  1
  O  O308  1  0.24732047  0.24554675  0.88238160  1
  O  O309  1  0.24013033  0.74026215  0.37228540  1
  O  O310  1  0.23697039  0.75350174  0.86801534  1
  O  O311  1  0.74507804  0.25252198  0.38716901  1
  O  O312  1  0.74929585  0.23577661  0.86938106  1
  O  O313  1  0.74634551  0.74009891  0.38294064  1
  O  O314  1  0.74230047  0.74706868  0.88051008  1
  O  O315  1  0.00101051  0.11459665  0.00525073  1
  O  O316  1  0.00818104  0.11575458  0.50613828  1
  O  O317  1  -0.00745056  0.61414719  0.00521128  1
  O  O318  1  0.01204566  0.62257998  0.50763202  1
  O  O319  1  0.49843687  0.12684919  0.01445400  1
  O  O320  1  0.50803333  0.11190842  0.50128750  1
  O  O321  1  0.51554989  0.61814939  -0.00892187  1
  O  O322  1  0.51398106  0.61828043  0.49853015  1
  O  O323  1  0.49108672  0.38265106  0.50343142  1
  O  O324  1  0.51235758  0.37052554  0.98173211  1
  O  O325  1  0.49073593  0.88749983  0.50026701  1
  O  O326  1  0.50080390  0.88158522  0.98082889  1
  O  O327  1  0.98525154  0.37733405  0.50624921  1
  O  O328  1  0.98546564  0.38807809  0.99277750  1
  O  O329  1  0.99091087  0.88103622  0.50261053  1
  O  O330  1  0.99912867  0.89093436  0.99463588  1
  O  O331  1  0.49011700  0.50453926  0.38822865  1
  O  O332  1  0.50193574  0.48216011  0.87555719  1
  O  O333  1  0.50553428  1.00271524  0.38464734  1
  O  O334  1  0.49193859  0.99312162  0.87154070  1
  O  O335  1  0.98566487  0.51111190  0.37442283  1
  O  O336  1  0.99538284  0.49692971  0.88121106  1
  O  O337  1  0.99888403  0.99888643  0.38963197  1
  O  O338  1  0.99215348  0.99587029  0.88111974  1
  O  O339  1  -0.00043502  0.00689257  0.11929220  1
  O  O340  1  0.00618490  0.00015473  0.61597931  1
  O  O341  1  0.00689298  0.50768551  0.11808718  1
  O  O342  1  0.00963749  0.51106485  0.62418175  1
  O  O343  1  0.48858548  0.01019784  0.12399797  1
  O  O344  1  0.51258987  -0.00210956  0.62147947  1
  O  O345  1  0.50929050  0.50407422  0.11827352  1
  O  O346  1  0.51415589  0.49712823  0.61439248  1
  O  O347  1  0.24563188  0.38843094  0.24486964  1
  O  O348  1  0.24711188  0.36813989  0.73853983  1
  O  O349  1  0.24125484  0.89044838  0.25259980  1
  O  O350  1  0.24521668  0.88329556  0.74301698  1
  O  O351  1  0.74480705  0.38599944  0.24683342  1
  O  O352  1  0.73234241  0.37124483  0.74725038  1
  O  O353  1  0.74581209  0.88108803  0.24508753  1
  O  O354  1  0.75620705  0.88573701  0.74063688  1
  O  O355  1  0.25310283  0.11935250  0.26026014  1
  O  O356  1  0.25650421  0.12054325  0.75378945  1
  O  O357  1  0.24381327  0.61054933  0.26655343  1
  O  O358  1  0.26044570  0.62975588  0.76124129  1
  O  O359  1  0.75727558  0.11436773  0.23350033  1
  O  O360  1  0.75695958  0.11523964  0.75734604  1
  O  O361  1  0.74725025  0.60988764  0.26066873  1
  O  O362  1  0.75473119  0.63205652  0.76208690  1
  O  O363  1  0.36182032  0.13165353  0.37208180  1
  O  O364  1  0.37118775  0.12154135  0.86638280  1
  O  O365  1  0.36663563  0.61935370  0.38726665  1
  O  O366  1  0.36525408  0.62684866  0.86028577  1
  O  O367  1  0.87233182  0.12414693  0.36135711  1
  O  O368  1  0.87478371  0.11715565  0.86192548  1
  O  O369  1  0.86236752  0.61832261  0.37703942  1
  O  O370  1  0.86742434  0.61607594  0.87140256  1
  O  O371  1  0.14092836  0.39342346  0.11519358  1
  O  O372  1  0.13940660  0.38660682  0.63124995  1
  O  O373  1  0.12222378  0.89139418  0.12735542  1
  O  O374  1  0.13358246  0.88079729  0.62759623  1
  O  O375  1  0.62934262  0.38681128  0.13348901  1
  O  O376  1  0.62563133  0.38421381  0.63661218  1
  O  O377  1  0.63491204  0.87691258  0.13771015  1
  O  O378  1  0.63733293  0.88230717  0.61763039  1
  O  O379  1  0.11644070  0.26093528  0.23282304  1
  O  O380  1  0.12149228  0.25514270  0.75511704  1
  O  O381  1  0.11488315  0.75166653  0.26541353  1
  O  O382  1  0.11344763  0.75652280  0.75613081  1
  O  O383  1  0.62967960  0.25752834  0.26154352  1
  O  O384  1  0.62424179  0.25252463  0.73925049  1
  O  O385  1  0.64027185  0.76549484  0.26553369  1
  O  O386  1  0.62876984  0.74883044  0.76367108  1
  O  O387  1  0.36189346  0.24028490  0.24103772  1
  O  O388  1  0.36966702  0.23747559  0.73799405  1
  O  O389  1  0.36851493  0.74826800  0.24149205  1
  O  O390  1  0.37412255  0.74551219  0.73728856  1
  O  O391  1  0.88250745  0.24382739  0.24611618  1
  O  O392  1  0.87717176  0.24266443  0.74541771  1
  O  O393  1  0.88047102  0.74604128  0.24511852  1
  O  O394  1  0.88674198  0.74935189  0.74601468  1
  O  O395  1  0.38432577  0.49518817  0.49953853  1
  O  O396  1  0.37597612  0.49302326  0.98479587  1
  O  O397  1  0.39039134  0.99090071  0.50340438  1
  O  O398  1  0.37044723  1.00962414  0.98544101  1
  O  O399  1  0.87583464  0.49060221  0.49155002  1
  O  O400  1  0.87893687  0.49511959  0.99046430  1
  O  O401  1  0.88169738  0.99441082  0.50041964  1
  O  O402  1  0.87712293  1.00543891  0.98599605  1
  O  O403  1  0.11378501  0.00902230  0.00589290  1
  O  O404  1  0.11919427  0.00486213  0.50584053  1
  O  O405  1  0.11285163  0.50030562  0.00470193  1
  O  O406  1  0.12627337  0.51073891  0.51516286  1
  O  O407  1  0.66550183  0.00987834  0.01969454  1
  O  O408  1  0.61739369  0.00521733  0.50268716  1
  O  O409  1  0.62752592  0.50330221  0.00617598  1
  O  O410  1  0.61997534  0.50438103  0.50278358  1
  O  O411  1  0.36323793  0.36874447  0.13183251  1
  O  O412  1  0.37405760  0.36993393  0.62292913  1
  O  O413  1  0.36131136  0.86937914  0.12082085  1
  O  O414  1  0.37214425  0.86493403  0.62450497  1
  O  O415  1  0.87154781  0.37181420  0.11542106  1
  O  O416  1  0.87282051  0.36711057  0.62050811  1
  O  O417  1  0.87088823  0.85847646  0.12919655  1
  O  O418  1  0.86330987  0.87482479  0.61441359  1
  O  O419  1  0.13560900  0.12165723  0.39018562  1
  O  O420  1  0.12961026  0.13097699  0.87946426  1
  O  O421  1  0.13325053  0.62948655  0.38593119  1
  O  O422  1  0.13877243  0.63391125  0.86446036  1
  O  O423  1  0.62457241  0.13889844  0.37973084  1
  O  O424  1  0.63855125  0.12031853  0.87443402  1
  O  O425  1  0.63645503  0.62900911  0.38508837  1
  O  O426  1  0.63072672  0.63292473  0.87655177  1
