# generated using pymatgen
data_V85Zn86O256
_symmetry_space_group_name_H-M   'P 1'
_cell_length_a   16.91439448
_cell_length_b   16.91593365
_cell_length_c   16.92140141
_cell_angle_alpha   89.99665099
_cell_angle_beta   90.08362566
_cell_angle_gamma   90.02127092
_symmetry_Int_Tables_number   1
_chemical_formula_structural   V85Zn86O256
_chemical_formula_sum   'V85 Zn86 O256'
_cell_volume   4841.59282316
_cell_formula_units_Z   1
loop_
 _symmetry_equiv_pos_site_id
 _symmetry_equiv_pos_as_xyz
  1  'x, y, z'
loop_
 _atom_site_type_symbol
 _atom_site_label
 _atom_site_symmetry_multiplicity
 _atom_site_fract_x
 _atom_site_fract_y
 _atom_site_fract_z
 _atom_site_occupancy
  V  V0  1  0.74655851  0.87624271  0.14098216  1
  V  V1  1  0.37161025  -0.00145657  0.86944451  1
  V  V2  1  0.62930400  0.87691659  0.75038189  1
  V  V3  1  0.50341900  0.24981548  0.76971966  1
  V  V4  1  0.38634779  0.24727738  0.62315690  1
  V  V5  1  0.75879286  0.50698133  0.24760260  1
  V  V6  1  0.62825477  0.75348496  0.37181928  1
  V  V7  1  0.00319223  0.37740408  0.87897004  1
  V  V8  1  0.24999384  0.12432585  0.87986050  1
  V  V9  1  0.37653580  0.00005296  0.37649270  1
  V  V10  1  0.73980802  0.25009792  -0.00395416  1
  V  V11  1  0.24978095  0.87360365  0.12560460  1
  V  V12  1  0.35714190  0.37154323  -0.00498671  1
  V  V13  1  0.49561943  0.75215406  0.74624132  1
  V  V14  1  0.13137397  0.25631508  0.87424996  1
  V  V15  1  0.50164946  0.12513838  0.12191188  1
  V  V16  1  0.24596138  0.25127261  0.49748866  1
  V  V17  1  0.88214506  0.50326176  0.87907639  1
  V  V18  1  -0.00493527  0.74593147  0.25883197  1
  V  V19  1  0.62283279  0.61939833  0.00199554  1
  V  V20  1  0.75749939  0.24730774  0.50973647  1
  V  V21  1  -0.00383340  0.62397541  0.11879132  1
  V  V22  1  -0.00389181  0.25539506  0.74393184  1
  V  V23  1  0.24543200  0.50007156  0.24246294  1
  V  V24  1  0.62630038  0.38540746  0.24778897  1
  V  V25  1  -0.00127557  0.12429064  0.12360708  1
  V  V26  1  0.25419910  0.87262711  0.64008923  1
  V  V27  1  0.12535712  0.49812288  0.63579208  1
  V  V28  1  0.24877922  0.37316418  0.63417161  1
  V  V29  1  0.24417125  0.74834678  -0.00193868  1
  V  V30  1  0.74176174  0.12867085  0.86738014  1
  V  V31  1  0.62836376  -0.00412301  0.13506296  1
  V  V32  1  0.37570635  0.62456713  0.24902651  1
  V  V33  1  0.24542153  0.12885062  0.37382601  1
  V  V34  1  0.13264313  -0.00050902  0.64076465  1
  V  V35  1  0.11948582  0.87258418  0.25744206  1
  V  V36  1  0.62924914  0.62516856  0.50171153  1
  V  V37  1  0.12235694  0.37494963  0.24813029  1
  V  V38  1  0.50505308  0.87576422  0.36909374  1
  V  V39  1  0.49928856  0.37431738  0.37347140  1
  V  V40  1  0.37608989  0.87508845  -0.00226935  1
  V  V41  1  0.37537061  0.86548743  0.50350718  1
  V  V42  1  0.00712648  -0.01105292  0.49277168  1
  V  V43  1  0.00024768  0.24891030  0.25455819  1
  V  V44  1  0.00136871  0.87828032  0.85445070  1
  V  V45  1  0.63175583  0.25034158  0.37638299  1
  V  V46  1  0.24793045  0.62678970  0.37665501  1
  V  V47  1  0.37316035  0.12354980  0.74567939  1
  V  V48  1  0.50142509  0.49918719  0.49956571  1
  V  V49  1  -0.00011090  0.50028516  0.50329333  1
  V  V50  1  0.37332072  0.49671092  0.37222015  1
  V  V51  1  0.62955955  0.00143673  0.62852808  1
  V  V52  1  0.75957003  0.87524151  0.62694773  1
  V  V53  1  0.62257222  0.12561599  0.50443540  1
  V  V54  1  0.37300714  0.37335782  0.49662126  1
  V  V55  1  0.49984003  0.00304216  0.50507003  1
  V  V56  1  0.00108847  -0.00259166  -0.00087349  1
  V  V57  1  0.87452652  -0.01118901  0.37223563  1
  V  V58  1  0.12096103  0.75628069  0.85894643  1
  V  V59  1  0.87748689  0.37198926  0.51234757  1
  V  V60  1  0.87424165  0.74635017  0.12710177  1
  V  V61  1  0.37665178  0.61755700  0.75135971  1
  V  V62  1  0.37406269  0.12788069  0.24760527  1
  V  V63  1  0.50223065  0.61403787  0.12531991  1
  V  V64  1  0.86706348  0.00440934  0.87238837  1
  V  V65  1  0.49302253  0.49204104  -0.01622134  1
  V  V66  1  0.87858976  0.63902231  0.74709642  1
  V  V67  1  0.87462560  0.24971541  0.12010267  1
  V  V68  1  0.12504390  0.62572424  0.50269656  1
  V  V69  1  0.76073374  0.74945683  0.50583152  1
  V  V70  1  0.62287006  0.37520181  0.76248424  1
  V  V71  1  0.00020474  0.37286740  0.37718535  1
  V  V72  1  0.86688486  0.12059657  0.25142143  1
  V  V73  1  0.74668354  0.75426862  0.00085869  1
  V  V74  1  0.74993714  0.62632502  0.87254010  1
  V  V75  1  0.74560954  0.37863327  0.12244451  1
  V  V76  1  0.12500178  -0.00051131  0.12453776  1
  V  V77  1  -0.00146414  0.64031643  0.62983976  1
  V  V78  1  0.12478307  0.12302894  0.49847247  1
  V  V79  1  0.50468007  0.24997605  0.24655663  1
  V  V80  1  0.49379385  0.62978120  0.62149091  1
  V  V81  1  0.25113079  0.62055044  0.87361790  1
  V  V82  1  0.11949841  0.49888382  0.11668998  1
  V  V83  1  0.37594257  0.74737479  0.12445821  1
  V  V84  1  0.24954450  -0.00319267  0.25125461  1
  Zn  Zn85  1  0.50138286  0.87566436  0.87330906  1
  Zn  Zn86  1  0.87419281  0.87621428  0.00128097  1
  Zn  Zn87  1  0.35396716  0.25334344  0.11295939  1
  Zn  Zn88  1  0.87766187  0.50467655  0.37411418  1
  Zn  Zn89  1  0.25352537  0.74871380  0.50666162  1
  Zn  Zn90  1  0.12291608  0.75431696  0.38056786  1
  Zn  Zn91  1  0.62176572  0.75194720  0.87475483  1
  Zn  Zn92  1  0.25473087  0.49331012  0.75629524  1
  Zn  Zn93  1  0.87719073  0.38258439  0.00049423  1
  Zn  Zn94  1  0.88552876  0.86934735  0.50267869  1
  Zn  Zn95  1  0.87033361  0.13157945  0.74194811  1
  Zn  Zn96  1  -0.00230172  0.12906648  0.62271547  1
  Zn  Zn97  1  0.75200718  0.49869151  0.74760272  1
  Zn  Zn98  1  0.11859832  0.62298212  -0.00512352  1
  Zn  Zn99  1  0.13020720  0.12987223  0.00143760  1
  Zn  Zn100  1  0.75667297  0.62714781  0.37250741  1
  Zn  Zn101  1  0.62739366  0.49562729  0.62583048  1
  Zn  Zn102  1  0.62333723  0.12276957  -0.00344274  1
  Zn  Zn103  1  0.74963321  0.11720515  0.37317328  1
  Zn  Zn104  1  0.74967943  0.37422768  0.62967343  1
  Zn  Zn105  1  0.50511854  0.75227666  0.24637750  1
  Zn  Zn106  1  0.50193129  -0.00120227  -0.00145741  1
  Zn  Zn107  1  0.18338580  0.18796519  0.18801928  1
  Zn  Zn108  1  0.18813887  0.18875744  0.69156494  1
  Zn  Zn109  1  0.18265553  0.68578821  0.18662038  1
  Zn  Zn110  1  0.19086681  0.68860478  0.68684809  1
  Zn  Zn111  1  0.68670095  0.18791620  0.18396777  1
  Zn  Zn112  1  0.68174519  0.18987013  0.68816819  1
  Zn  Zn113  1  0.68383714  0.68826571  0.18562409  1
  Zn  Zn114  1  0.68565869  0.68975469  0.68670585  1
  Zn  Zn115  1  0.30175198  0.30225670  0.29024700  1
  Zn  Zn116  1  0.31840281  0.31194896  0.81749594  1
  Zn  Zn117  1  0.31481443  0.81063199  0.31429510  1
  Zn  Zn118  1  0.31678074  0.80418711  0.81267749  1
  Zn  Zn119  1  0.81559905  0.31519684  0.31395678  1
  Zn  Zn120  1  0.81439469  0.31404821  0.81323900  1
  Zn  Zn121  1  0.81492418  0.80882409  0.31612290  1
  Zn  Zn122  1  0.81290169  0.81760986  0.81424742  1
  Zn  Zn123  1  0.18392712  0.43843340  0.43551195  1
  Zn  Zn124  1  0.18710984  0.43618544  0.93703491  1
  Zn  Zn125  1  0.19281023  0.93663824  0.43992175  1
  Zn  Zn126  1  0.18664468  0.93895248  0.93234646  1
  Zn  Zn127  1  0.69208185  0.43709895  0.43712593  1
  Zn  Zn128  1  0.68753206  0.44178247  0.93716297  1
  Zn  Zn129  1  0.69155636  0.93587424  0.43908484  1
  Zn  Zn130  1  0.68406244  0.94012143  0.94188350  1
  Zn  Zn131  1  0.31467988  0.06196037  0.06133092  1
  Zn  Zn132  1  0.31190143  0.06045768  0.56437855  1
  Zn  Zn133  1  0.31268314  0.55890361  0.05911504  1
  Zn  Zn134  1  0.31362421  0.55962961  0.56431741  1
  Zn  Zn135  1  0.80920238  0.06198738  0.05877463  1
  Zn  Zn136  1  0.81342510  0.06046638  0.55789943  1
  Zn  Zn137  1  0.81110766  0.56458059  0.06268677  1
  Zn  Zn138  1  0.81419665  0.55922687  0.56624617  1
  Zn  Zn139  1  0.43368203  0.43539577  0.18061732  1
  Zn  Zn140  1  0.44230489  0.43504567  0.68705689  1
  Zn  Zn141  1  0.43864751  0.93899413  0.18658001  1
  Zn  Zn142  1  0.43907515  0.93887863  0.68577378  1
  Zn  Zn143  1  0.93686757  0.43648198  0.18348694  1
  Zn  Zn144  1  0.93965678  0.44205429  0.69536066  1
  Zn  Zn145  1  0.93612397  0.93299659  0.18835207  1
  Zn  Zn146  1  0.92889932  0.96961087  0.67461807  1
  Zn  Zn147  1  0.06046413  0.06272613  0.31277235  1
  Zn  Zn148  1  0.05900312  0.07091129  0.81368660  1
  Zn  Zn149  1  0.05819569  0.56420955  0.31190309  1
  Zn  Zn150  1  0.06226694  0.56597602  0.81336073  1
  Zn  Zn151  1  0.56456835  0.06283033  0.31384333  1
  Zn  Zn152  1  0.55610935  0.06220668  0.80962440  1
  Zn  Zn153  1  0.56576100  0.56522263  0.31455975  1
  Zn  Zn154  1  0.56462970  0.56314452  0.81110438  1
  Zn  Zn155  1  0.43809985  0.18763579  0.43544422  1
  Zn  Zn156  1  0.43111969  0.18866982  0.94100174  1
  Zn  Zn157  1  0.43974382  0.68752130  0.43429106  1
  Zn  Zn158  1  0.43739881  0.68713479  0.93454935  1
  Zn  Zn159  1  0.93795446  0.18399747  0.43652350  1
  Zn  Zn160  1  0.93857442  0.18826584  0.93563954  1
  Zn  Zn161  1  0.93589537  0.68158834  0.43728634  1
  Zn  Zn162  1  0.93692120  0.69482385  0.93571285  1
  Zn  Zn163  1  0.06454729  0.31298434  0.05914075  1
  Zn  Zn164  1  0.06731477  0.31255976  0.56276656  1
  Zn  Zn165  1  0.06142365  0.81349148  0.06355874  1
  Zn  Zn166  1  0.07169949  0.81546377  0.56938469  1
  Zn  Zn167  1  0.55999315  0.31571885  0.06138012  1
  Zn  Zn168  1  0.56674858  0.31541127  0.56454419  1
  Zn  Zn169  1  0.56248337  0.81079757  0.06439644  1
  Zn  Zn170  1  0.56627311  0.81335724  0.56118029  1
  O  O171  1  0.11841285  0.11994363  0.12373047  1
  O  O172  1  0.13176490  0.11438488  0.61642451  1
  O  O173  1  0.11537456  0.61768130  0.12108892  1
  O  O174  1  0.12092231  0.61957092  0.62015986  1
  O  O175  1  0.61950288  0.11525702  0.12366456  1
  O  O176  1  0.62835913  0.11819678  0.61316398  1
  O  O177  1  0.61445019  0.63008573  0.11449857  1
  O  O178  1  0.61593349  0.62387785  0.61453932  1
  O  O179  1  0.37913981  0.37856021  0.37677316  1
  O  O180  1  0.37132401  0.37744921  0.89280214  1
  O  O181  1  0.38101120  0.88095268  0.38355535  1
  O  O182  1  0.37366762  0.88069716  0.88109914  1
  O  O183  1  0.88647733  0.37908298  0.38275303  1
  O  O184  1  0.88268448  0.38571976  0.87658036  1
  O  O185  1  0.87809911  0.88547057  0.37644719  1
  O  O186  1  0.88365230  0.88506112  0.87919212  1
  O  O187  1  0.25775861  0.00737102  0.37152156  1
  O  O188  1  0.26194131  0.00670732  0.87571822  1
  O  O189  1  0.25237700  0.51115139  0.36936372  1
  O  O190  1  0.23985877  0.51587584  0.87271930  1
  O  O191  1  0.76830267  -0.00042752  0.37985456  1
  O  O192  1  0.76039260  0.01118489  0.88452241  1
  O  O193  1  0.75066432  0.49803738  0.35854548  1
  O  O194  1  0.75598433  0.51483451  0.87331934  1
  O  O195  1  0.23961177  0.50829847  0.13643129  1
  O  O196  1  0.24400181  0.49070850  0.62595400  1
  O  O197  1  0.24545171  0.99451313  0.13058654  1
  O  O198  1  0.24011752  0.99131551  0.62252115  1
  O  O199  1  0.75327364  0.49133397  0.13418395  1
  O  O200  1  0.74623933  0.49515555  0.62999545  1
  O  O201  1  0.73840893  0.99137286  0.12100250  1
  O  O202  1  0.73585836  0.99116220  0.61603345  1
  O  O203  1  0.00058772  0.36907984  0.25705275  1
  O  O204  1  -0.00114498  0.36422137  0.76100202  1
  O  O205  1  0.00892425  0.86005768  0.24377225  1
  O  O206  1  -0.00673903  0.88719976  0.75782645  1
  O  O207  1  0.50817064  0.36952361  0.25170384  1
  O  O208  1  0.50815349  0.36177239  0.74842986  1
  O  O209  1  0.49340504  0.87392760  0.26502588  1
  O  O210  1  0.50796377  0.86751756  0.74696935  1
  O  O211  1  0.49897009  0.13052177  0.24094230  1
  O  O212  1  0.49057219  0.14088346  0.75247485  1
  O  O213  1  0.49511222  0.62371580  0.24265931  1
  O  O214  1  0.49691522  0.63044491  0.74138017  1
  O  O215  1  0.99183717  0.13259573  0.24487568  1
  O  O216  1  0.99568713  0.14078095  0.74938694  1
  O  O217  1  1.00578148  0.64006340  0.23862881  1
  O  O218  1  0.98761544  0.62469677  0.74468897  1
  O  O219  1  0.36985895  0.26293994  -0.00013829  1
  O  O220  1  0.36578562  0.25136700  0.50457182  1
  O  O221  1  0.36333933  0.75519900  0.00204062  1
  O  O222  1  0.37723733  0.76203704  0.49742295  1
  O  O223  1  0.86857881  0.24899878  0.01112281  1
  O  O224  1  0.86797815  0.25606937  0.49512029  1
  O  O225  1  0.86466729  0.75284023  0.00838086  1
  O  O226  1  0.86530121  0.75140201  0.49919313  1
  O  O227  1  0.13859904  0.24132539  0.50308092  1
  O  O228  1  0.11966584  0.24675889  0.98200011  1
  O  O229  1  0.12793947  0.73809179  0.49943521  1
  O  O230  1  0.13602946  0.75342928  0.99556830  1
  O  O231  1  0.63132622  0.24371890  0.49416894  1
  O  O232  1  0.63667663  0.24729372  1.00456693  1
  O  O233  1  0.63252684  0.74280312  0.49230100  1
  O  O234  1  0.63014909  0.74118062  0.99765169  1
  O  O235  1  0.50520321  0.24166928  0.13397356  1
  O  O236  1  0.48753913  0.25121234  0.62064766  1
  O  O237  1  0.49243601  0.74064681  0.12638389  1
  O  O238  1  0.50590637  0.74134713  0.63057744  1
  O  O239  1  0.99139835  0.24572885  0.12912608  1
  O  O240  1  1.00968454  0.24997782  0.63945253  1
  O  O241  1  0.99149251  0.74636759  0.13133053  1
  O  O242  1  1.00574674  0.73958727  0.62413837  1
  O  O243  1  -0.00594743  0.25729397  0.36479348  1
  O  O244  1  0.00764698  0.25586322  0.86735643  1
  O  O245  1  0.00240434  0.74559504  0.36214470  1
  O  O246  1  0.00526577  0.76997545  0.87747284  1
  O  O247  1  0.51521547  0.25460244  0.37237052  1
  O  O248  1  0.49943968  0.24884225  0.86788595  1
  O  O249  1  0.50882835  0.75860613  0.37473642  1
  O  O250  1  0.50138754  0.75310280  0.86366192  1
  O  O251  1  0.24470655  0.12964083  0.49311583  1
  O  O252  1  0.25250753  0.12382980  0.98635664  1
  O  O253  1  0.24446024  0.62550268  0.49505409  1
  O  O254  1  0.24852887  0.63289273  0.99217775  1
  O  O255  1  0.74433841  0.13171683  0.49572814  1
  O  O256  1  0.74819860  0.13394837  0.99064303  1
  O  O257  1  0.74350661  0.63172752  0.50399096  1
  O  O258  1  0.74159821  0.63356239  0.99569434  1
  O  O259  1  0.25770447  0.38099774  0.00703859  1
  O  O260  1  0.25343135  0.36689751  0.50105330  1
  O  O261  1  0.25810234  0.86917714  0.00313198  1
  O  O262  1  0.26120563  0.87205693  0.50521799  1
  O  O263  1  0.75100678  0.37048278  0.00591297  1
  O  O264  1  0.76082246  0.36629162  0.50036734  1
  O  O265  1  0.74773315  0.86298303  0.00602820  1
  O  O266  1  0.75324852  0.86572177  0.50913999  1
  O  O267  1  0.12730209  0.49597985  0.24241230  1
  O  O268  1  0.12989715  0.50579012  0.73839985  1
  O  O269  1  0.12729302  0.99201519  0.24447995  1
  O  O270  1  0.12458825  1.00818064  0.73867807  1
  O  O271  1  0.63147806  0.48874329  0.25328449  1
  O  O272  1  0.62397808  0.48666020  0.74970845  1
  O  O273  1  0.62363769  1.00322173  0.23524653  1
  O  O274  1  0.61668261  0.99257423  0.73863867  1
  O  O275  1  0.37037252  0.00774286  0.25459724  1
  O  O276  1  0.38271028  0.01148151  0.75602340  1
  O  O277  1  0.36520841  0.50253077  0.25168774  1
  O  O278  1  0.37608601  0.51251838  0.74396020  1
  O  O279  1  0.88335926  0.00611665  0.26215476  1
  O  O280  1  0.87280495  0.00031992  0.77131907  1
  O  O281  1  0.86137340  0.49459522  0.24963042  1
  O  O282  1  0.87244537  0.51059057  0.76276037  1
  O  O283  1  0.11010204  0.37982828  0.36493934  1
  O  O284  1  0.12140224  0.36469048  0.87494766  1
  O  O285  1  0.13343852  0.87341075  0.36157551  1
  O  O286  1  0.11029002  0.87382590  0.87395907  1
  O  O287  1  0.62138028  0.36829251  0.36795627  1
  O  O288  1  0.62761906  0.37637376  0.86229232  1
  O  O289  1  0.61674204  0.86745711  0.38281123  1
  O  O290  1  0.62385678  0.87610513  0.86527573  1
  O  O291  1  0.38265266  0.12987967  0.13037875  1
  O  O292  1  0.36806369  0.13434540  0.63302604  1
  O  O293  1  0.38036121  0.62815671  0.12912898  1
  O  O294  1  0.38710510  0.62382960  0.62816006  1
  O  O295  1  0.87832112  0.12909071  0.13080278  1
  O  O296  1  0.88901922  0.08687825  0.63641140  1
  O  O297  1  0.87847144  0.63765756  0.12395021  1
  O  O298  1  0.88327799  0.62256787  0.63894509  1
  O  O299  1  0.26969107  0.25560691  0.18554959  1
  O  O300  1  0.25637847  0.25678507  0.61735839  1
  O  O301  1  0.25404036  0.75256828  0.11747400  1
  O  O302  1  0.24713596  0.76729462  0.62417554  1
  O  O303  1  0.75658668  0.25673271  0.11861260  1
  O  O304  1  0.74868991  0.24971214  0.61296862  1
  O  O305  1  0.75424391  0.75490093  0.12090574  1
  O  O306  1  0.74389958  0.76084643  0.61618043  1
  O  O307  1  0.25609504  0.23677321  0.38122622  1
  O  O308  1  0.23725777  0.24522149  0.86950537  1
  O  O309  1  0.24927820  0.73642393  0.37686352  1
  O  O310  1  0.24136982  0.74484147  0.88046018  1
  O  O311  1  0.74083789  0.25132480  0.38026060  1
  O  O312  1  0.75808302  0.23805516  0.88376987  1
  O  O313  1  0.74420193  0.74975671  0.38500752  1
  O  O314  1  0.75077289  0.74221623  0.88410267  1
  O  O315  1  0.00056940  0.11370805  0.00501109  1
  O  O316  1  0.01344272  0.12129752  0.50082374  1
  O  O317  1  0.00045453  0.63526641  0.01358827  1
  O  O318  1  0.00728003  0.62096887  0.50957149  1
  O  O319  1  0.49967931  0.12635097  0.01218660  1
  O  O320  1  0.50954838  0.11573672  0.49288250  1
  O  O321  1  0.50366357  0.61885677  0.00481503  1
  O  O322  1  0.50645543  0.62146266  0.50415498  1
  O  O323  1  0.49499610  0.37837764  0.49250301  1
  O  O324  1  0.50738511  0.39144590  0.99554325  1
  O  O325  1  0.49426235  0.88198602  0.49299304  1
  O  O326  1  0.48553265  0.87082509  0.99921114  1
  O  O327  1  0.99681110  0.37647888  0.49466075  1
  O  O328  1  0.99606920  0.37049824  0.98491204  1
  O  O329  1  1.00547531  0.88436221  0.50260967  1
  O  O330  1  0.99837916  0.88868169  1.00053599  1
  O  O331  1  0.49489216  0.49417154  0.37843798  1
  O  O332  1  0.49574532  0.50892223  0.88612263  1
  O  O333  1  0.49800281  0.99394501  0.38301096  1
  O  O334  1  0.48667933  0.99753152  0.87819588  1
  O  O335  1  1.00068312  0.49316971  0.38391751  1
  O  O336  1  0.99589877  0.49169661  0.87080898  1
  O  O337  1  0.99126896  1.00388956  0.38267749  1
  O  O338  1  0.99383794  0.99518128  0.88084321  1
  O  O339  1  0.00400573  0.00380245  0.11969803  1
  O  O340  1  0.02275914  0.00025287  0.61277132  1
  O  O341  1  0.00534939  0.51153019  0.13077731  1
  O  O342  1  0.00908764  0.50525940  0.62179518  1
  O  O343  1  0.50847445  0.00684447  0.12432373  1
  O  O344  1  0.51073556  -0.00518828  0.61095945  1
  O  O345  1  0.49805910  0.51135235  0.11763848  1
  O  O346  1  0.50261524  0.50775914  0.61523976  1
  O  O347  1  0.23328863  0.39206570  0.26520535  1
  O  O348  1  0.25829279  0.37390115  0.73783386  1
  O  O349  1  0.24582802  0.87810989  0.24511331  1
  O  O350  1  0.26147649  0.87443853  0.73884039  1
  O  O351  1  0.74451848  0.38078350  0.24289061  1
  O  O352  1  0.73665303  0.37165817  0.75058594  1
  O  O353  1  0.75137897  0.86876082  0.24007861  1
  O  O354  1  0.73845233  0.87018668  0.74296942  1
  O  O355  1  0.25045189  0.11355903  0.25924347  1
  O  O356  1  0.26516270  0.13295756  0.76138661  1
  O  O357  1  0.25215787  0.61889295  0.25759231  1
  O  O358  1  0.26038116  0.62556006  0.75512822  1
  O  O359  1  0.76364007  0.13070563  0.25046359  1
  O  O360  1  0.75195585  0.13399469  0.76273383  1
  O  O361  1  0.74215563  0.60878443  0.24668122  1
  O  O362  1  0.75849230  0.62742410  0.75667879  1
  O  O363  1  0.36891291  0.11857057  0.36937732  1
  O  O364  1  0.36991109  0.11846843  0.86956774  1
  O  O365  1  0.36888663  0.61795691  0.36940969  1
  O  O366  1  0.36374196  0.63070501  0.86474221  1
  O  O367  1  0.87389750  0.11556499  0.36650658  1
  O  O368  1  0.86730329  0.11596031  0.87482964  1
  O  O369  1  0.86987964  0.61865975  0.37488843  1
  O  O370  1  0.87200463  0.62416572  0.86713474  1
  O  O371  1  0.11420743  0.38327135  0.13839148  1
  O  O372  1  0.13729234  0.38530716  0.61830372  1
  O  O373  1  0.13208365  0.87845925  0.13454776  1
  O  O374  1  0.14135102  0.88837631  0.62530967  1
  O  O375  1  0.63690197  0.36947041  0.13397179  1
  O  O376  1  0.62745587  0.37582842  0.63707107  1
  O  O377  1  0.62945001  0.88588709  0.12425538  1
  O  O378  1  0.63212268  0.88259537  0.63053276  1
  O  O379  1  0.10784765  0.25930509  0.24627658  1
  O  O380  1  0.11474505  0.24589475  0.76406332  1
  O  O381  1  0.11512769  0.75611875  0.25141668  1
  O  O382  1  0.12662602  0.75062592  0.75985061  1
  O  O383  1  0.62100945  0.25593968  0.25716850  1
  O  O384  1  0.60980029  0.25645149  0.74876594  1
  O  O385  1  0.62428743  0.74414892  0.26671339  1
  O  O386  1  0.61508181  0.75804865  0.75079432  1
  O  O387  1  0.40017633  0.24215404  0.26695624  1
  O  O388  1  0.38682000  0.24801958  0.74346953  1
  O  O389  1  0.37687530  0.74106531  0.24397461  1
  O  O390  1  0.38870862  0.73904320  0.74872582  1
  O  O391  1  0.88093658  0.24485308  0.24040253  1
  O  O392  1  0.89034747  0.25075872  0.75195453  1
  O  O393  1  0.88771545  0.75352925  0.24442327  1
  O  O394  1  0.87331138  0.73785623  0.75544849  1
  O  O395  1  0.38017353  0.49365342  0.49207216  1
  O  O396  1  0.38623537  0.49083645  1.00286478  1
  O  O397  1  0.38354274  0.99529311  0.49580888  1
  O  O398  1  0.37720525  0.98999325  0.99355731  1
  O  O399  1  0.88363395  0.49035071  0.50034052  1
  O  O400  1  0.87041807  0.50423591  0.98496037  1
  O  O401  1  0.88802416  0.99692977  0.48740461  1
  O  O402  1  0.88217509  0.99892804  0.99131654  1
  O  O403  1  0.11914030  0.00227408  0.00651286  1
  O  O404  1  0.12267083  0.00739652  0.49878139  1
  O  O405  1  0.12672327  0.50055506  0.01342470  1
  O  O406  1  0.12133924  0.51052413  0.50749308  1
  O  O407  1  0.61925672  0.00313606  0.01193652  1
  O  O408  1  0.61966533  0.00774992  0.50282885  1
  O  O409  1  0.61503187  0.51288796  -0.00482297  1
  O  O410  1  0.62039653  0.50806129  0.49753433  1
  O  O411  1  0.38743939  0.36859817  0.10399861  1
  O  O412  1  0.36871970  0.36869029  0.61536320  1
  O  O413  1  0.36943349  0.86951781  0.11838102  1
  O  O414  1  0.36354362  0.88464343  0.61628571  1
  O  O415  1  0.86574547  0.36673282  0.12199650  1
  O  O416  1  0.87794132  0.37809248  0.61527628  1
  O  O417  1  0.86559620  0.86542825  0.12343955  1
  O  O418  1  0.86277884  0.88678807  0.62463378  1
  O  O419  1  0.13517456  0.12065762  0.38269920  1
  O  O420  1  0.13383034  0.13285706  0.87677676  1
  O  O421  1  0.13185951  0.62451938  0.38398805  1
  O  O422  1  0.12821110  0.63764367  0.87690797  1
  O  O423  1  0.62910870  0.13175731  0.38321885  1
  O  O424  1  0.63860337  0.11670424  0.87453781  1
  O  O425  1  0.62945766  0.63201528  0.38725573  1
  O  O426  1  0.63445875  0.62871742  0.87969867  1
