# generated using pymatgen
data_V85Zn86O256
_symmetry_space_group_name_H-M   'P 1'
_cell_length_a   16.95144921
_cell_length_b   16.95005745
_cell_length_c   16.94910472
_cell_angle_alpha   90.07501619
_cell_angle_beta   90.00874122
_cell_angle_gamma   89.91987357
_symmetry_Int_Tables_number   1
_chemical_formula_structural   V85Zn86O256
_chemical_formula_sum   'V85 Zn86 O256'
_cell_volume   4869.94401440
_cell_formula_units_Z   1
loop_
 _symmetry_equiv_pos_site_id
 _symmetry_equiv_pos_as_xyz
  1  'x, y, z'
loop_
 _atom_site_type_symbol
 _atom_site_label
 _atom_site_symmetry_multiplicity
 _atom_site_fract_x
 _atom_site_fract_y
 _atom_site_fract_z
 _atom_site_occupancy
  V  V0  1  0.62016695  0.50323012  0.12156322  1
  V  V1  1  0.00431218  0.23107870  0.73818361  1
  V  V2  1  0.25281368  -0.00495657  0.74383662  1
  V  V3  1  0.61841355  0.23258404  0.86807618  1
  V  V4  1  0.24938149  0.25033767  0.49880739  1
  V  V5  1  0.75104091  0.87362806  0.62863886  1
  V  V6  1  0.38052424  0.13066985  0.74557301  1
  V  V7  1  -0.00050352  0.75173598  0.24780957  1
  V  V8  1  0.00107920  0.87614208  0.37488445  1
  V  V9  1  0.37554007  0.62510049  0.75186151  1
  V  V10  1  0.12193965  0.12709573  0.50247974  1
  V  V11  1  0.37356514  0.49599914  0.88390389  1
  V  V12  1  0.13047627  0.87556682  0.23925138  1
  V  V13  1  0.87578696  0.87363831  0.50170099  1
  V  V14  1  0.56346455  0.31808237  0.19956360  1
  V  V15  1  0.37524603  -0.00101017  0.87599836  1
  V  V16  1  0.50252223  0.01068188  0.00505394  1
  V  V17  1  0.00038997  0.00153588  0.50433239  1
  V  V18  1  0.87190097  0.88039252  0.00278675  1
  V  V19  1  0.63344211  0.48945073  0.62525470  1
  V  V20  1  0.87393901  0.74733497  0.62827783  1
  V  V21  1  0.61219837  0.26169247  0.37617224  1
  V  V22  1  0.38558958  0.13300235  0.24384800  1
  V  V23  1  0.23561449  0.49547503  0.24842498  1
  V  V24  1  0.25170013  0.12650195  0.87458886  1
  V  V25  1  0.62572642  0.62534480  0.50155616  1
  V  V26  1  0.37050698  0.87751337  0.50383515  1
  V  V27  1  0.25045038  0.50177676  0.75024964  1
  V  V28  1  0.12076644  0.37627348  0.74772351  1
  V  V29  1  0.36655151  0.75570235  0.12621583  1
  V  V30  1  0.86934026  0.37717533  -0.00903356  1
  V  V31  1  0.12792232  0.87440669  0.74702574  1
  V  V32  1  0.88835770  0.24887716  0.12993854  1
  V  V33  1  0.50779946  0.74792030  0.75498744  1
  V  V34  1  0.62810842  0.87251081  0.24102044  1
  V  V35  1  0.12085970  0.12892472  0.00942431  1
  V  V36  1  0.25072534  0.75292433  0.50467860  1
  V  V37  1  0.24488688  0.38109727  0.11889699  1
  V  V38  1  0.87356640  0.61919620  0.76268787  1
  V  V39  1  -0.00451078  0.49360597  0.50317385  1
  V  V40  1  0.25263838  0.37453782  0.62359598  1
  V  V41  1  0.62178845  0.01324322  0.12381153  1
  V  V42  1  0.50119215  -0.00070036  0.50227038  1
  V  V43  1  0.50183804  0.87494704  0.37684043  1
  V  V44  1  0.37381401  0.62390769  0.24888054  1
  V  V45  1  0.87262295  0.24218329  0.62400479  1
  V  V46  1  0.76179879  0.01241085  0.76518746  1
  V  V47  1  0.75037460  0.26025837  0.50114455  1
  V  V48  1  0.88900661  0.12692059  0.24784061  1
  V  V49  1  0.93132403  0.44328253  0.32642584  1
  V  V50  1  0.75542019  0.48441999  0.75670025  1
  V  V51  1  0.12605588  0.75504818  0.37796242  1
  V  V52  1  0.37722991  0.37461798  0.48989562  1
  V  V53  1  0.36555460  0.87845925  0.00621811  1
  V  V54  1  0.37254373  0.75511294  0.62880166  1
  V  V55  1  0.25264658  -0.00029688  0.24036923  1
  V  V56  1  0.49969304  0.37391331  0.86886518  1
  V  V57  1  0.50161110  0.87001856  0.88149737  1
  V  V58  1  0.62940813  -0.00066661  0.62655302  1
  V  V59  1  -0.00658892  0.50149044  -0.00515664  1
  V  V60  1  0.26337404  0.25528703  0.00024575  1
  V  V61  1  0.74140949  0.75103107  0.00132466  1
  V  V62  1  -0.00196073  0.75027880  0.75385326  1
  V  V63  1  0.74842740  0.36782768  0.12381745  1
  V  V64  1  0.50003688  0.49733013  0.49362047  1
  V  V65  1  0.75233265  -0.00511393  0.24622502  1
  V  V66  1  0.87540658  0.62488753  0.25114789  1
  V  V67  1  0.12380277  0.62469658  0.50418093  1
  V  V68  1  0.49912087  0.74963945  0.24929870  1
  V  V69  1  0.74247740  0.49352000  0.25081296  1
  V  V70  1  0.62538171  0.12399972  0.49805514  1
  V  V71  1  0.12445942  0.25177742  0.87555044  1
  V  V72  1  0.12547866  0.75239663  0.87838938  1
  V  V73  1  0.87578291  0.00017609  0.37470699  1
  V  V74  1  0.62961425  0.87376580  0.75897493  1
  V  V75  1  0.50182447  0.62319556  0.62570428  1
  V  V76  1  0.62614863  0.74925155  0.37517930  1
  V  V77  1  0.74955907  0.12658250  0.37457896  1
  V  V78  1  0.12463777  0.61917976  0.00496532  1
  V  V79  1  0.75320481  0.61969789  0.37672585  1
  V  V80  1  0.11415566  0.26077793  0.36328250  1
  V  V81  1  0.25236813  0.62524781  0.37657230  1
  V  V82  1  0.12219992  0.00215818  0.62663499  1
  V  V83  1  0.76645511  0.21918966  -0.03543456  1
  V  V84  1  0.25038410  0.12585167  0.37157249  1
  Zn  Zn85  1  -0.00807274  0.89053343  0.87473151  1
  Zn  Zn86  1  0.61702987  0.63197460  -0.00951463  1
  Zn  Zn87  1  0.74128195  0.62482486  0.87572348  1
  Zn  Zn88  1  -0.00155072  0.62209292  0.62747714  1
  Zn  Zn89  1  0.37606677  0.00181382  0.37318887  1
  Zn  Zn90  1  0.62347492  0.36503091  0.74535582  1
  Zn  Zn91  1  0.12073618  0.00320928  0.12357244  1
  Zn  Zn92  1  -0.00701697  0.37769288  0.86948314  1
  Zn  Zn93  1  0.25003043  0.62739795  0.87768892  1
  Zn  Zn94  1  -0.01031764  0.00847260  0.00237625  1
  Zn  Zn95  1  0.86766010  0.75421482  0.12711745  1
  Zn  Zn96  1  0.75074010  0.74814674  0.50152091  1
  Zn  Zn97  1  0.87504803  0.37815656  0.50180312  1
  Zn  Zn98  1  0.49602630  0.49819186  0.00059186  1
  Zn  Zn99  1  0.24310855  0.75619388  0.00592688  1
  Zn  Zn100  1  0.00172942  0.62082547  0.12625658  1
  Zn  Zn101  1  0.38535829  0.25674742  0.12681075  1
  Zn  Zn102  1  0.37866295  0.49672509  0.37011262  1
  Zn  Zn103  1  0.12369915  0.50111567  0.62495980  1
  Zn  Zn104  1  0.50732274  0.13194698  0.63061524  1
  Zn  Zn105  1  0.38343062  0.25522873  0.62674146  1
  Zn  Zn106  1  0.49775141  0.62582549  0.12033793  1
  Zn  Zn107  1  0.19316866  0.19542619  0.18775097  1
  Zn  Zn108  1  0.19204182  0.18626515  0.68587264  1
  Zn  Zn109  1  0.18750697  0.68768059  0.18754196  1
  Zn  Zn110  1  0.18874258  0.68913618  0.68833073  1
  Zn  Zn111  1  0.69377831  0.18267089  0.18897370  1
  Zn  Zn112  1  0.68837880  0.18730632  0.68871574  1
  Zn  Zn113  1  0.68858762  0.68448958  0.18285824  1
  Zn  Zn114  1  0.68937524  0.68191905  0.69188983  1
  Zn  Zn115  1  0.30738869  0.31181067  0.31025222  1
  Zn  Zn116  1  0.31252281  0.31461766  0.81250689  1
  Zn  Zn117  1  0.31255685  0.81497808  0.31524099  1
  Zn  Zn118  1  0.31258151  0.81377433  0.81597861  1
  Zn  Zn119  1  0.80705946  0.30676696  0.30900507  1
  Zn  Zn120  1  0.82134379  0.28448017  0.81384571  1
  Zn  Zn121  1  0.81193910  0.81041733  0.31398303  1
  Zn  Zn122  1  0.81007388  0.81272514  0.82168844  1
  Zn  Zn123  1  0.18634510  0.43893870  0.43480341  1
  Zn  Zn124  1  0.18616959  0.43778763  0.93607502  1
  Zn  Zn125  1  0.19022542  0.94065119  0.43432430  1
  Zn  Zn126  1  0.18367488  0.94168666  0.93326529  1
  Zn  Zn127  1  0.68570284  0.43833435  0.43626932  1
  Zn  Zn128  1  0.68625625  0.43373593  0.93437749  1
  Zn  Zn129  1  0.69025636  0.93479245  0.43689984  1
  Zn  Zn130  1  0.69216890  0.93769057  0.94236250  1
  Zn  Zn131  1  0.31283352  0.06895036  0.06466851  1
  Zn  Zn132  1  0.30862107  0.06129179  0.56380164  1
  Zn  Zn133  1  0.30679335  0.56633789  0.06521349  1
  Zn  Zn134  1  0.31430356  0.56233005  0.56412407  1
  Zn  Zn135  1  0.81228252  0.06188995  0.06868377  1
  Zn  Zn136  1  0.81274638  0.06532189  0.56589731  1
  Zn  Zn137  1  0.80815598  0.56372839  0.06233291  1
  Zn  Zn138  1  0.81398343  0.56122926  0.56637089  1
  Zn  Zn139  1  0.42708088  0.44068113  0.18107814  1
  Zn  Zn140  1  0.43881712  0.43777691  0.68632931  1
  Zn  Zn141  1  0.43885522  0.94019159  0.18834831  1
  Zn  Zn142  1  0.44147613  0.93805261  0.68853333  1
  Zn  Zn143  1  0.94151477  0.43818588  0.16271790  1
  Zn  Zn144  1  0.93349182  0.43231543  0.68122326  1
  Zn  Zn145  1  0.94126243  0.94016257  0.17797174  1
  Zn  Zn146  1  0.93892131  0.93824133  0.69087424  1
  Zn  Zn147  1  0.06774002  0.06200619  0.31511090  1
  Zn  Zn148  1  0.06395260  0.06060933  0.82077798  1
  Zn  Zn149  1  0.06572559  0.57010841  0.31647613  1
  Zn  Zn150  1  0.06110150  0.56373086  0.81718179  1
  Zn  Zn151  1  0.56392940  0.06146519  0.31377068  1
  Zn  Zn152  1  0.56162399  0.05328482  0.81172961  1
  Zn  Zn153  1  0.56348680  0.56151685  0.30957333  1
  Zn  Zn154  1  0.56668779  0.55639001  0.81424608  1
  Zn  Zn155  1  0.43542451  0.18518894  0.44061801  1
  Zn  Zn156  1  0.43974155  0.18813010  0.93225570  1
  Zn  Zn157  1  0.43812047  0.68727820  0.43797576  1
  Zn  Zn158  1  0.43579265  0.68573470  0.94004764  1
  Zn  Zn159  1  0.93847502  0.18786011  0.43853626  1
  Zn  Zn160  1  0.94168609  0.19353948  0.93645466  1
  Zn  Zn161  1  0.93783376  0.68446209  0.43760914  1
  Zn  Zn162  1  0.93492137  0.69492224  0.94075875  1
  Zn  Zn163  1  0.06611231  0.31962562  0.06157981  1
  Zn  Zn164  1  0.06352525  0.31297459  0.56041383  1
  Zn  Zn165  1  0.05383422  0.81383731  0.06250192  1
  Zn  Zn166  1  0.06148100  0.81405559  0.56805728  1
  Zn  Zn167  1  0.56717634  0.31067711  0.03223713  1
  Zn  Zn168  1  0.55924187  0.31098630  0.56148501  1
  Zn  Zn169  1  0.55770769  0.81396908  0.06490300  1
  Zn  Zn170  1  0.56230625  0.81199943  0.56620816  1
  O  O171  1  0.13166272  0.13313193  0.11061628  1
  O  O172  1  0.13286447  0.11506170  0.61464667  1
  O  O173  1  0.12251769  0.63424793  0.10860038  1
  O  O174  1  0.12468055  0.62682430  0.61393405  1
  O  O175  1  0.62155538  0.11169309  0.13529219  1
  O  O176  1  0.62764747  0.11490103  0.61690462  1
  O  O177  1  0.61962292  0.61515844  0.12157719  1
  O  O178  1  0.61976660  0.61884940  0.61979184  1
  O  O179  1  0.36737484  0.37781509  0.38637784  1
  O  O180  1  0.38343850  0.38441488  0.86650360  1
  O  O181  1  0.38449337  0.87593605  0.38539756  1
  O  O182  1  0.38228565  0.88144017  0.88234806  1
  O  O183  1  0.87334948  0.37631351  0.37819456  1
  O  O184  1  0.87485897  0.36174009  0.88813855  1
  O  O185  1  0.88058290  0.88006245  0.38068186  1
  O  O186  1  0.87749134  0.86793520  0.89352029  1
  O  O187  1  0.25258914  0.01014382  0.36591433  1
  O  O188  1  0.25576504  0.00615075  0.86452773  1
  O  O189  1  0.25146848  0.50745147  0.36411389  1
  O  O190  1  0.25543287  0.49833556  0.86301670  1
  O  O191  1  0.75474157  0.00620710  0.36793736  1
  O  O192  1  0.74568244  0.00039260  0.86394169  1
  O  O193  1  0.74189908  0.51093821  0.36692095  1
  O  O194  1  0.74871926  0.49899756  0.85940698  1
  O  O195  1  0.25074207  0.49329666  0.13593608  1
  O  O196  1  0.24841460  0.49446454  0.63500073  1
  O  O197  1  0.24484149  1.00591946  0.13718474  1
  O  O198  1  0.24021558  0.99996764  0.63635574  1
  O  O199  1  0.74290190  0.48842237  0.13204331  1
  O  O200  1  0.74076708  0.50437684  0.63415243  1
  O  O201  1  0.73803056  1.00273273  0.13927780  1
  O  O202  1  0.74156602  0.99290318  0.62719497  1
  O  O203  1  -0.01440125  0.39298309  0.26106251  1
  O  O204  1  0.01360402  0.37348989  0.74744022  1
  O  O205  1  0.00702440  0.86876377  0.25546785  1
  O  O206  1  0.00705658  0.86686526  0.75408247  1
  O  O207  1  0.50181051  0.37670922  0.24962725  1
  O  O208  1  0.50097109  0.37917372  0.76123757  1
  O  O209  1  0.50671876  0.87010183  0.25818567  1
  O  O210  1  0.50763822  0.86861300  0.75868842  1
  O  O211  1  0.48301956  0.12023893  0.25823839  1
  O  O212  1  0.48321849  0.11284129  0.74907185  1
  O  O213  1  0.48953501  0.63195274  0.25036928  1
  O  O214  1  0.49667311  0.63222108  0.74597347  1
  O  O215  1  0.98745788  0.11783386  0.25689024  1
  O  O216  1  1.01271734  0.13370511  0.74591584  1
  O  O217  1  0.99321604  0.63304669  0.25274548  1
  O  O218  1  0.99376947  0.63138637  0.74857239  1
  O  O219  1  0.36601051  0.24639600  -0.00000736  1
  O  O220  1  0.36713148  0.25839668  0.50003938  1
  O  O221  1  0.37176164  0.75957652  0.00919171  1
  O  O222  1  0.37291259  0.75731747  0.50909116  1
  O  O223  1  0.86441488  0.25645605  0.01747713  1
  O  O224  1  0.86610143  0.25139802  0.50265467  1
  O  O225  1  0.86620121  0.75591141  0.00739449  1
  O  O226  1  0.87659670  0.75440802  0.51034826  1
  O  O227  1  0.13140300  0.24130934  0.49706998  1
  O  O228  1  0.13247274  0.24638820  0.99116255  1
  O  O229  1  0.13046987  0.74737332  0.49934816  1
  O  O230  1  0.12232960  0.74629263  0.99279768  1
  O  O231  1  0.63201375  0.24503102  0.49128750  1
  O  O232  1  0.64004000  0.24618370  0.97720354  1
  O  O233  1  0.62596295  0.74345752  0.49574761  1
  O  O234  1  0.63595607  0.75398992  1.00713372  1
  O  O235  1  0.50891901  0.26707896  0.12834098  1
  O  O236  1  0.49533402  0.24323690  0.62004376  1
  O  O237  1  0.48741310  0.75008433  0.13387560  1
  O  O238  1  0.49181785  0.74493101  0.63416923  1
  O  O239  1  0.98629623  0.25899951  0.12382884  1
  O  O240  1  1.00277234  0.24758158  0.63431660  1
  O  O241  1  0.99787697  0.74543644  0.14006188  1
  O  O242  1  0.99309782  0.74889792  0.63785084  1
  O  O243  1  0.01537199  0.24677871  0.37991858  1
  O  O244  1  0.00989527  0.25345994  0.85895931  1
  O  O245  1  0.00485678  0.75478816  0.36680502  1
  O  O246  1  0.00934931  0.74981277  0.86429312  1
  O  O247  1  0.51400341  0.24661759  0.38229794  1
  O  O248  1  0.50911449  0.25962827  0.87611994  1
  O  O249  1  0.50600571  0.75498230  0.36994308  1
  O  O250  1  0.49190654  0.76173406  0.86804360  1
  O  O251  1  0.24351540  0.12774190  0.49237522  1
  O  O252  1  0.24587601  0.13679093  0.99341089  1
  O  O253  1  0.24457769  0.63089359  0.49759867  1
  O  O254  1  0.23685112  0.63080840  0.99844042  1
  O  O255  1  0.74496182  0.12905093  0.48861099  1
  O  O256  1  0.74398691  0.13350132  1.01061025  1
  O  O257  1  0.74605543  0.62491021  0.49190337  1
  O  O258  1  0.74692760  0.63498072  0.99790614  1
  O  O259  1  0.24614453  0.37104032  0.00871865  1
  O  O260  1  0.25552802  0.37387180  0.50740272  1
  O  O261  1  0.26194929  0.87751694  -0.00649143  1
  O  O262  1  0.26352979  0.87153978  0.49583216  1
  O  O263  1  0.75571222  0.37253876  0.00798360  1
  O  O264  1  0.74950167  0.36296601  0.49654804  1
  O  O265  1  0.75848820  0.86347767  -0.00047154  1
  O  O266  1  0.75812655  0.87138061  0.50809149  1
  O  O267  1  0.13746583  0.50927822  0.25119087  1
  O  O268  1  0.13227770  0.49349605  0.75010651  1
  O  O269  1  0.13347976  0.99177671  0.24985238  1
  O  O270  1  0.13161566  0.99488287  0.74519828  1
  O  O271  1  0.63290544  0.50314346  0.23810344  1
  O  O272  1  0.63867865  0.49531512  0.74046646  1
  O  O273  1  0.63026620  0.99272535  0.24464032  1
  O  O274  1  0.63298745  0.99077071  0.74298531  1
  O  O275  1  0.36835306  0.00850965  0.25101240  1
  O  O276  1  0.36803322  0.00275104  0.75356811  1
  O  O277  1  0.36742697  0.51357352  0.25160215  1
  O  O278  1  0.36654980  0.50657982  0.75307854  1
  O  O279  1  0.86769472  0.00337925  0.25327554  1
  O  O280  1  0.86016991  -0.00583990  0.74793481  1
  O  O281  1  0.87209044  0.50283507  0.25792482  1
  O  O282  1  0.86369013  0.50551795  0.74034805  1
  O  O283  1  0.12975237  0.35964627  0.37776359  1
  O  O284  1  0.12688055  0.36435627  0.86540859  1
  O  O285  1  0.11951440  0.87118250  0.36996185  1
  O  O286  1  0.12153129  0.86961374  0.86517328  1
  O  O287  1  0.62480650  0.36096253  0.37639780  1
  O  O288  1  0.60960751  0.37752644  0.86771256  1
  O  O289  1  0.62009767  0.86842853  0.36924646  1
  O  O290  1  0.61705092  0.87937532  0.86630281  1
  O  O291  1  0.37539880  0.13266426  0.13885807  1
  O  O292  1  0.37322344  0.12144932  0.63854453  1
  O  O293  1  0.37385954  0.63379563  0.13410399  1
  O  O294  1  0.38236123  0.63257923  0.63113983  1
  O  O295  1  0.87137797  0.13977057  0.13355402  1
  O  O296  1  0.88469291  0.14111345  0.61075582  1
  O  O297  1  0.87640235  0.62089887  0.14209042  1
  O  O298  1  0.87537088  0.63778372  0.63272866  1
  O  O299  1  0.25420356  0.26011707  0.11492219  1
  O  O300  1  0.25467811  0.25902329  0.61824514  1
  O  O301  1  0.26203051  0.75177745  0.12677661  1
  O  O302  1  0.26496367  0.74749796  0.62194612  1
  O  O303  1  0.75157021  0.26353560  0.13415670  1
  O  O304  1  0.76135435  0.24285790  0.61541785  1
  O  O305  1  0.75230475  0.74468107  0.11193698  1
  O  O306  1  0.75797014  0.75489487  0.62676234  1
  O  O307  1  0.24301647  0.24206993  0.38077941  1
  O  O308  1  0.24483452  0.24858010  0.88061940  1
  O  O309  1  0.24581923  0.74540614  0.38409724  1
  O  O310  1  0.23635530  0.75024238  0.87564529  1
  O  O311  1  0.74120179  0.24227616  0.38002014  1
  O  O312  1  0.72503765  0.26535393  0.86998371  1
  O  O313  1  0.74375384  0.73736332  0.37560129  1
  O  O314  1  0.75275704  0.74514554  0.89381662  1
  O  O315  1  0.01788043  0.13530550  -0.00348845  1
  O  O316  1  0.01487167  0.11622871  0.49387246  1
  O  O317  1  0.00753563  0.62144594  -0.00163845  1
  O  O318  1  0.00846583  0.61795179  0.50151278  1
  O  O319  1  0.49496762  0.10951577  -0.00518101  1
  O  O320  1  0.50643420  0.11253118  0.49987994  1
  O  O321  1  0.49975043  0.61780593  0.00299730  1
  O  O322  1  0.50453879  0.61988787  0.50721255  1
  O  O323  1  0.48881702  0.38550913  0.50414657  1
  O  O324  1  0.49714618  0.38191895  0.97876432  1
  O  O325  1  0.49363783  0.88018293  0.49757688  1
  O  O326  1  0.49071705  0.88090604  0.99456120  1
  O  O327  1  1.00495830  0.39041173  0.49935251  1
  O  O328  1  0.99087255  0.38175783  0.99769802  1
  O  O329  1  0.99542809  0.88021172  0.49593415  1
  O  O330  1  0.98543587  0.87387276  0.99615441  1
  O  O331  1  0.50017301  0.50721580  0.38950812  1
  O  O332  1  0.48810281  0.49229869  0.87205015  1
  O  O333  1  0.49994941  0.99158512  0.38391049  1
  O  O334  1  0.49513821  0.98765827  0.88238895  1
  O  O335  1  0.99594525  0.50407954  0.38154672  1
  O  O336  1  1.00364998  0.49419203  0.88704501  1
  O  O337  1  0.99528799  0.99402271  0.38243121  1
  O  O338  1  1.00183212  1.00332152  0.88878927  1
  O  O339  1  0.00798038  0.00259162  0.11516606  1
  O  O340  1  0.01392442  -0.00548227  0.62101154  1
  O  O341  1  0.00634474  0.50530387  0.10449889  1
  O  O342  1  0.00420224  0.50320444  0.61811449  1
  O  O343  1  0.51266205  -0.00304312  0.11984032  1
  O  O344  1  0.51500476  -0.00035438  0.62079290  1
  O  O345  1  0.50634749  0.50024277  0.12388093  1
  O  O346  1  0.50739889  0.50670490  0.61697248  1
  O  O347  1  0.25063353  0.39146982  0.24654649  1
  O  O348  1  0.24181704  0.38019904  0.74277303  1
  O  O349  1  0.24171486  0.88569362  0.25823757  1
  O  O350  1  0.24242206  0.88400615  0.75521454  1
  O  O351  1  0.75476710  0.38753285  0.24458356  1
  O  O352  1  0.75487488  0.38386526  0.75152035  1
  O  O353  1  0.74094589  0.88383268  0.25905800  1
  O  O354  1  0.74233629  0.87602805  0.74776963  1
  O  O355  1  0.25644640  0.11897796  0.25605243  1
  O  O356  1  0.25836215  0.11618604  0.75481904  1
  O  O357  1  0.25509591  0.61895897  0.25417079  1
  O  O358  1  0.25425620  0.61673378  0.75139730  1
  O  O359  1  0.75712531  0.11640567  0.26129292  1
  O  O360  1  0.75115185  0.11039632  0.74598280  1
  O  O361  1  0.75642078  0.61416464  0.25519187  1
  O  O362  1  0.75999370  0.61689335  0.75333999  1
  O  O363  1  0.36393967  0.12436374  0.36977483  1
  O  O364  1  0.37146623  0.11862296  0.86448093  1
  O  O365  1  0.36844177  0.62631565  0.36716131  1
  O  O366  1  0.37090031  0.61829185  0.86717779  1
  O  O367  1  0.86763235  0.11975449  0.37068025  1
  O  O368  1  0.83966272  0.18369948  0.89161883  1
  O  O369  1  0.86518089  0.62916663  0.36457243  1
  O  O370  1  0.87602068  0.62719487  0.86375451  1
  O  O371  1  0.14382097  0.36911476  0.12887323  1
  O  O372  1  0.13703961  0.37643417  0.63050842  1
  O  O373  1  0.12442987  0.87193455  0.13705978  1
  O  O374  1  0.12432487  0.88094462  0.63948348  1
  O  O375  1  0.62591327  0.37398171  0.13103953  1
  O  O376  1  0.62206894  0.38616555  0.62446435  1
  O  O377  1  0.62015647  0.88124965  0.13938469  1
  O  O378  1  0.62967451  0.87976535  0.63567406  1
  O  O379  1  0.12670660  0.24475826  0.26448825  1
  O  O380  1  0.12054642  0.25553103  0.75222484  1
  O  O381  1  0.11994390  0.75609771  0.25700986  1
  O  O382  1  0.11910064  0.75635405  0.75402331  1
  O  O383  1  0.62076230  0.25121265  0.25764243  1
  O  O384  1  0.62444970  0.24909558  0.75970745  1
  O  O385  1  0.62149942  0.75526093  0.25367507  1
  O  O386  1  0.61382663  0.75739983  0.74429157  1
  O  O387  1  0.37225342  0.23712067  0.25112014  1
  O  O388  1  0.36817256  0.23338132  0.74931409  1
  O  O389  1  0.37670759  0.74401553  0.24637868  1
  O  O390  1  0.38329663  0.74812752  0.74517218  1
  O  O391  1  0.87301505  0.24189169  0.23996611  1
  O  O392  1  0.89402183  0.24660463  0.73596858  1
  O  O393  1  0.88190652  0.74288359  0.24992716  1
  O  O394  1  0.88125621  0.74485835  0.74723234  1
  O  O395  1  0.38291876  0.49446487  0.49839885  1
  O  O396  1  0.36770287  0.50576212  0.98608426  1
  O  O397  1  0.38108341  0.99264225  0.50174451  1
  O  O398  1  0.37992896  0.99574879  0.99837443  1
  O  O399  1  0.88548947  0.49826643  0.50371710  1
  O  O400  1  0.87925547  0.48928751  1.00480862  1
  O  O401  1  0.87977005  0.99405667  0.49661694  1
  O  O402  1  0.86735042  0.98626124  1.00585035  1
  O  O403  1  0.13496230  0.02226472  0.00006187  1
  O  O404  1  0.12373169  0.00424259  0.50850940  1
  O  O405  1  0.12100991  0.51566119  -0.00753381  1
  O  O406  1  0.12053789  0.51058923  0.50023836  1
  O  O407  1  0.61978588  -0.00697293  0.01714192  1
  O  O408  1  0.62207834  0.00116823  0.50691576  1
  O  O409  1  0.62684994  0.49424482  0.01497701  1
  O  O410  1  0.61960855  0.50487461  0.50680851  1
  O  O411  1  0.35529511  0.36999805  0.13071463  1
  O  O412  1  0.36387462  0.37745510  0.61851738  1
  O  O413  1  0.37892076  0.86986135  0.11757199  1
  O  O414  1  0.38296681  0.86667689  0.61702140  1
  O  O415  1  0.86568767  0.36559377  0.11857546  1
  O  O416  1  0.88539760  0.35161155  0.61636345  1
  O  O417  1  0.87713917  0.87066973  0.11213478  1
  O  O418  1  0.87233602  0.86396368  0.62330067  1
  O  O419  1  0.13600824  0.12863479  0.38279191  1
  O  O420  1  0.13418460  0.13860947  0.87890640  1
  O  O421  1  0.13130356  0.63517141  0.38782192  1
  O  O422  1  0.12649811  0.63527799  0.88443857  1
  O  O423  1  0.63282413  0.13108717  0.37801576  1
  O  O424  1  0.61647993  0.13346789  0.86941091  1
  O  O425  1  0.63145593  0.63023311  0.38038722  1
  O  O426  1  0.62618652  0.62397871  0.87684156  1
