# generated using pymatgen
data_V85Zn86O256
_symmetry_space_group_name_H-M   'P 1'
_cell_length_a   16.93176481
_cell_length_b   16.93293675
_cell_length_c   16.92778832
_cell_angle_alpha   89.99407928
_cell_angle_beta   90.00172265
_cell_angle_gamma   89.97550822
_symmetry_Int_Tables_number   1
_chemical_formula_structural   V85Zn86O256
_chemical_formula_sum   'V85 Zn86 O256'
_cell_volume   4853.27265776
_cell_formula_units_Z   1
loop_
 _symmetry_equiv_pos_site_id
 _symmetry_equiv_pos_as_xyz
  1  'x, y, z'
loop_
 _atom_site_type_symbol
 _atom_site_label
 _atom_site_symmetry_multiplicity
 _atom_site_fract_x
 _atom_site_fract_y
 _atom_site_fract_z
 _atom_site_occupancy
  V  V0  1  0.12704737  -0.01592068  0.62979297  1
  V  V1  1  0.12683356  0.36923796  0.24808637  1
  V  V2  1  0.74948159  0.37462258  0.62497305  1
  V  V3  1  0.87087519  0.24645991  0.62359903  1
  V  V4  1  0.25401257  0.11160852  0.37752540  1
  V  V5  1  0.13118657  0.75172828  0.86388329  1
  V  V6  1  -0.01108119  0.87962038  0.37159678  1
  V  V7  1  0.49003368  0.00186830  0.49535923  1
  V  V8  1  0.51012511  0.75052883  0.25487602  1
  V  V9  1  0.37605862  0.11993254  0.25327628  1
  V  V10  1  0.62320833  0.24920259  0.38139208  1
  V  V11  1  0.88399832  0.75280156  0.12865430  1
  V  V12  1  0.75392024  0.88008686  0.62124304  1
  V  V13  1  0.37874146  0.36982576  -0.01119792  1
  V  V14  1  0.12642689  0.49772964  0.12003746  1
  V  V15  1  0.12534347  0.24683871  0.37471264  1
  V  V16  1  -0.00619436  0.12223251  0.12949640  1
  V  V17  1  0.12260820  0.11939001  0.50330637  1
  V  V18  1  0.50061515  0.49804256  0.49403641  1
  V  V19  1  0.76029319  0.12846361  0.37883882  1
  V  V20  1  0.74886798  0.00580765  0.75968851  1
  V  V21  1  0.24588688  0.87939242  0.12401573  1
  V  V22  1  0.49907432  0.87417438  0.37753332  1
  V  V23  1  -0.00495117  0.49388970  -0.00925451  1
  V  V24  1  0.62567885  0.75228227  0.87589066  1
  V  V25  1  0.49585980  0.25254215  0.76248725  1
  V  V26  1  0.49862904  0.49554767  -0.00548323  1
  V  V27  1  0.87059985  0.75067492  0.62280305  1
  V  V28  1  0.86343833  0.26070551  0.11294620  1
  V  V29  1  0.37830587  0.75915903  0.12161981  1
  V  V30  1  0.50180230  0.62063372  0.12494834  1
  V  V31  1  0.86936730  0.36985503  0.50028234  1
  V  V32  1  0.26109768  0.36918006  0.12541713  1
  V  V33  1  0.63695823  0.24641790  0.87649090  1
  V  V34  1  0.62289522  0.00265017  0.62320567  1
  V  V35  1  0.12514449  0.51660280  0.61970531  1
  V  V36  1  0.62100776  0.37779642  0.25755028  1
  V  V37  1  0.06199850  0.70811837  0.31123525  1
  V  V38  1  -0.00189748  0.37090066  0.37628971  1
  V  V39  1  0.50015998  0.74814440  0.74706858  1
  V  V40  1  0.49836476  0.12580593  0.62585664  1
  V  V41  1  0.00207337  0.87723286  0.87087594  1
  V  V42  1  0.25366525  0.75018141  -0.00383785  1
  V  V43  1  0.62864000  0.50203577  0.62750346  1
  V  V44  1  0.12314015  0.88353503  0.25286816  1
  V  V45  1  0.49844848  -0.00549102  0.00211896  1
  V  V46  1  -0.01347862  -0.00377584  0.49792055  1
  V  V47  1  0.62447291  0.87750276  0.75135261  1
  V  V48  1  0.37700401  0.37627945  0.49420738  1
  V  V49  1  0.75446375  0.62443767  0.86684565  1
  V  V50  1  0.23301169  0.74765201  0.49130269  1
  V  V51  1  0.36844380  0.75691169  0.61731999  1
  V  V52  1  0.63814356  0.12772779  -0.00108425  1
  V  V53  1  0.87326477  0.12705775  0.75993904  1
  V  V54  1  -0.01101827  0.24592634  0.24851317  1
  V  V55  1  0.12296514  0.25052411  0.87557546  1
  V  V56  1  0.00392093  -0.00291236  0.00476893  1
  V  V57  1  0.49451164  0.13066994  0.12427100  1
  V  V58  1  0.24949753  0.24910113  0.49988697  1
  V  V59  1  0.13020503  0.62348190  -0.01262224  1
  V  V60  1  0.76665210  0.00734247  0.25569049  1
  V  V61  1  0.37470943  0.25183178  0.62708184  1
  V  V62  1  0.25388904  0.49861919  0.24968083  1
  V  V63  1  0.36971053  0.12064594  0.75291817  1
  V  V64  1  0.49395452  0.25451473  0.25270879  1
  V  V65  1  0.74666365  0.49529266  0.25043511  1
  V  V66  1  0.00539683  0.62716512  0.12490688  1
  V  V67  1  0.75141787  0.87774171  0.12759877  1
  V  V68  1  -0.00212532  0.75292698  0.74851554  1
  V  V69  1  0.24430083  0.37703406  0.62831585  1
  V  V70  1  0.75328770  0.75233426  0.00189932  1
  V  V71  1  0.87645897  0.62726969  0.25139114  1
  V  V72  1  0.12524342  0.12081116  0.00753020  1
  V  V73  1  0.36195351  0.62594999  0.75219767  1
  V  V74  1  0.74347365  0.63034648  0.37343119  1
  V  V75  1  0.37266687  -0.00868011  0.87936506  1
  V  V76  1  0.61956666  0.37714239  0.75029638  1
  V  V77  1  0.62417298  0.63117332  0.49831697  1
  V  V78  1  0.62588598  0.00434427  0.13204957  1
  V  V79  1  0.37531514  0.62714537  0.25200431  1
  V  V80  1  0.87194227  0.49810827  0.37667615  1
  V  V81  1  0.68162170  0.44350362  0.07920201  1
  V  V82  1  0.62761613  0.62652363  0.00488076  1
  V  V83  1  0.74826190  0.75971356  0.49320214  1
  V  V84  1  0.25596162  0.24528619  0.00491091  1
  Zn  Zn85  1  0.00345640  0.63128580  0.61726971  1
  Zn  Zn86  1  0.87702601  0.87688908  0.00004105  1
  Zn  Zn87  1  0.23846214  0.62504020  0.37731799  1
  Zn  Zn88  1  0.24783613  0.11936192  0.87675078  1
  Zn  Zn89  1  0.37767777  0.49789576  0.37368243  1
  Zn  Zn90  1  0.12200700  0.37929503  0.75249317  1
  Zn  Zn91  1  0.87563186  0.61876788  0.74423596  1
  Zn  Zn92  1  0.25490272  -0.00345416  0.25073464  1
  Zn  Zn93  1  0.87326260  0.00218503  0.87947061  1
  Zn  Zn94  1  -0.00260379  0.12137666  0.62620387  1
  Zn  Zn95  1  -0.01618481  0.36620679  0.87486954  1
  Zn  Zn96  1  0.00495182  0.50450478  0.49888549  1
  Zn  Zn97  1  0.36428998  0.88018854  0.49415358  1
  Zn  Zn98  1  0.86548901  0.48825305  0.86325491  1
  Zn  Zn99  1  0.00155226  0.24904244  0.74595013  1
  Zn  Zn100  1  0.62700228  0.13063225  0.50096700  1
  Zn  Zn101  1  0.37130154  0.50494760  0.87376422  1
  Zn  Zn102  1  0.49769616  0.62552500  0.62335296  1
  Zn  Zn103  1  0.49928742  0.87262664  0.88184059  1
  Zn  Zn104  1  0.24531095  -0.01528363  0.75093761  1
  Zn  Zn105  1  0.24275908  0.50431571  0.75927526  1
  Zn  Zn106  1  0.62775723  0.87546019  0.25721955  1
  Zn  Zn107  1  0.18696705  0.18403964  0.18779824  1
  Zn  Zn108  1  0.18809398  0.18388169  0.68685532  1
  Zn  Zn109  1  0.19412185  0.68544254  0.17899195  1
  Zn  Zn110  1  0.19051330  0.80722863  0.68300531  1
  Zn  Zn111  1  0.68655968  0.18871588  0.19222050  1
  Zn  Zn112  1  0.68880028  0.18946306  0.68857048  1
  Zn  Zn113  1  0.69042326  0.68631495  0.18559342  1
  Zn  Zn114  1  0.68516308  0.69105476  0.68414428  1
  Zn  Zn115  1  0.31390872  0.30698459  0.31477748  1
  Zn  Zn116  1  0.30648922  0.31227256  0.81504027  1
  Zn  Zn117  1  0.31424990  0.81239612  0.31570834  1
  Zn  Zn118  1  0.31695266  0.81128028  0.81498549  1
  Zn  Zn119  1  0.80805266  0.31009423  0.30913406  1
  Zn  Zn120  1  0.81195932  0.31597070  0.80752474  1
  Zn  Zn121  1  0.80950742  0.81335997  0.30948683  1
  Zn  Zn122  1  0.81460942  0.81522257  0.81151151  1
  Zn  Zn123  1  0.18902858  0.43727765  0.43806699  1
  Zn  Zn124  1  0.19196906  0.43576827  0.93544093  1
  Zn  Zn125  1  0.18006852  0.92918497  0.43841647  1
  Zn  Zn126  1  0.18657954  0.93380781  0.93676818  1
  Zn  Zn127  1  0.68675339  0.43695540  0.43950345  1
  Zn  Zn128  1  0.69189767  0.43109777  0.91423284  1
  Zn  Zn129  1  0.68172851  0.94286891  0.43498162  1
  Zn  Zn130  1  0.68530596  0.93874466  0.94227248  1
  Zn  Zn131  1  0.31612381  0.06138512  0.06500888  1
  Zn  Zn132  1  0.30859352  0.06103983  0.56744844  1
  Zn  Zn133  1  0.31473207  0.56303645  0.06127244  1
  Zn  Zn134  1  0.30935884  0.56804120  0.56516658  1
  Zn  Zn135  1  0.81860420  0.06554791  0.06675220  1
  Zn  Zn136  1  0.80936018  0.06570716  0.56307683  1
  Zn  Zn137  1  0.82007308  0.56901686  0.05898741  1
  Zn  Zn138  1  0.81266018  0.56143668  0.56161120  1
  Zn  Zn139  1  0.44013686  0.43698267  0.18353042  1
  Zn  Zn140  1  0.43811506  0.44061919  0.68236999  1
  Zn  Zn141  1  0.43866886  0.93841649  0.19061748  1
  Zn  Zn142  1  0.43559601  0.93508344  0.68927003  1
  Zn  Zn143  1  0.93714471  0.43624226  0.18461361  1
  Zn  Zn144  1  0.94293924  0.43759115  0.69259943  1
  Zn  Zn145  1  0.94185798  0.93689456  0.18776567  1
  Zn  Zn146  1  0.93679420  0.93922127  0.68709148  1
  Zn  Zn147  1  0.06201052  0.06048215  0.31341133  1
  Zn  Zn148  1  0.06046153  0.06551696  0.81323779  1
  Zn  Zn149  1  0.06169104  0.54432700  0.31021466  1
  Zn  Zn150  1  0.06113559  0.56541350  0.80442710  1
  Zn  Zn151  1  0.56257545  0.06511197  0.31603499  1
  Zn  Zn152  1  0.55942988  0.06547648  0.81491674  1
  Zn  Zn153  1  0.56327203  0.56110578  0.31346520  1
  Zn  Zn154  1  0.56306160  0.56492833  0.81359223  1
  Zn  Zn155  1  0.43827190  0.18836990  0.43648760  1
  Zn  Zn156  1  0.43758585  0.18051829  0.93930724  1
  Zn  Zn157  1  0.43762809  0.68749272  0.43461208  1
  Zn  Zn158  1  0.43816369  0.68754039  0.93603549  1
  Zn  Zn159  1  0.93766644  0.18753720  0.44089837  1
  Zn  Zn160  1  0.93581402  0.18676507  0.94195555  1
  Zn  Zn161  1  0.92881115  0.68691395  0.44423823  1
  Zn  Zn162  1  0.94090590  0.68723017  0.93884759  1
  Zn  Zn163  1  0.06309920  0.31024164  0.06351107  1
  Zn  Zn164  1  0.05856887  0.31198723  0.56197957  1
  Zn  Zn165  1  0.06799910  0.81303235  0.06085262  1
  Zn  Zn166  1  0.05415929  0.81062359  0.55287634  1
  Zn  Zn167  1  0.55912603  0.30616582  0.06020254  1
  Zn  Zn168  1  0.55893228  0.31328837  0.56467408  1
  Zn  Zn169  1  0.56586985  0.81366138  0.06828428  1
  Zn  Zn170  1  0.56123308  0.81527012  0.56209159  1
  O  O171  1  0.11573219  0.12992852  0.11366134  1
  O  O172  1  0.12266261  0.12153010  0.61246493  1
  O  O173  1  0.12186754  0.61870150  0.11592109  1
  O  O174  1  0.12639832  0.61404497  0.62302623  1
  O  O175  1  0.61815764  0.12155849  0.12009500  1
  O  O176  1  0.61888176  0.11984207  0.62394945  1
  O  O177  1  0.61882581  0.62935923  0.11301412  1
  O  O178  1  0.62617456  0.61818894  0.61637394  1
  O  O179  1  0.36809877  0.37711109  0.38977745  1
  O  O180  1  0.37577963  0.37472083  0.88604430  1
  O  O181  1  0.39010130  0.87461650  0.37604150  1
  O  O182  1  0.38104611  0.88686116  0.87553129  1
  O  O183  1  0.87520073  0.37535829  0.38142054  1
  O  O184  1  0.86977755  0.37626891  0.87949942  1
  O  O185  1  0.89022912  0.87486533  0.36239873  1
  O  O186  1  0.88766547  0.87596925  0.87877801  1
  O  O187  1  0.24502145  0.00899977  0.37728219  1
  O  O188  1  0.25739214  0.00014768  0.87469265  1
  O  O189  1  0.24918884  0.50315564  0.36114586  1
  O  O190  1  0.25659774  0.49874475  0.87199311  1
  O  O191  1  0.74581337  0.01051784  0.36301961  1
  O  O192  1  0.75011467  -0.00595305  0.86303343  1
  O  O193  1  0.75295608  0.50706492  0.36799114  1
  O  O194  1  0.74955705  0.51990725  0.87890537  1
  O  O195  1  0.24801967  0.49235113  0.13301908  1
  O  O196  1  0.24114987  0.49348103  0.62750413  1
  O  O197  1  0.25719606  0.98285783  0.12529540  1
  O  O198  1  0.23111014  0.99925263  0.62501591  1
  O  O199  1  0.74909527  0.50572648  0.13018208  1
  O  O200  1  0.73600970  0.49374788  0.62037776  1
  O  O201  1  0.74598578  1.00062349  0.13718874  1
  O  O202  1  0.74107798  0.99565313  0.63014614  1
  O  O203  1  0.00631985  0.36714288  0.25561375  1
  O  O204  1  0.00626667  0.36532927  0.75677453  1
  O  O205  1  0.01140359  0.87563932  0.25657169  1
  O  O206  1  -0.00533767  0.86467903  0.75703078  1
  O  O207  1  0.50684157  0.36738014  0.24571611  1
  O  O208  1  0.50877896  0.36456638  0.73961504  1
  O  O209  1  0.50183034  0.86620388  0.25524508  1
  O  O210  1  0.50649760  0.86440102  0.75165827  1
  O  O211  1  0.49390495  0.13105765  0.24520155  1
  O  O212  1  0.48861704  0.13143179  0.74566761  1
  O  O213  1  0.49698146  0.62990315  0.24327035  1
  O  O214  1  0.50379514  0.63921398  0.74643484  1
  O  O215  1  1.00980484  0.13359297  0.24205487  1
  O  O216  1  0.98927225  0.12835269  0.74626458  1
  O  O217  1  1.00115491  0.63419681  0.25109809  1
  O  O218  1  0.99751360  0.64074119  0.74103713  1
  O  O219  1  0.36742677  0.25406021  -0.00298022  1
  O  O220  1  0.37184900  0.25731111  0.50669286  1
  O  O221  1  0.36748620  0.74327586  0.00883216  1
  O  O222  1  0.37973874  0.75134084  0.51190835  1
  O  O223  1  0.87380267  0.24796067  0.01343532  1
  O  O224  1  0.87549032  0.26175217  0.50560090  1
  O  O225  1  0.87038080  0.74946685  0.01135527  1
  O  O226  1  0.85644803  0.75440307  0.50677408  1
  O  O227  1  0.12747772  0.24010113  0.49447824  1
  O  O228  1  0.13220068  0.24238197  0.99383556  1
  O  O229  1  0.13416028  0.74730070  0.50079374  1
  O  O230  1  0.13160251  0.74135946  0.99039569  1
  O  O231  1  0.61717048  0.25279227  0.48582031  1
  O  O232  1  0.62034916  0.24410834  0.98516935  1
  O  O233  1  0.63311869  0.73917757  0.50684069  1
  O  O234  1  0.63055685  0.74333764  0.99732823  1
  O  O235  1  0.50570897  0.23879765  0.13636782  1
  O  O236  1  0.49297193  0.24334839  0.63382941  1
  O  O237  1  0.49452262  0.74127643  0.12820478  1
  O  O238  1  0.49256612  0.74922450  0.63123284  1
  O  O239  1  0.99607496  0.24412611  0.13226876  1
  O  O240  1  0.98493001  0.24714844  0.62344305  1
  O  O241  1  0.99238280  0.74403898  0.11834072  1
  O  O242  1  0.98725971  0.75516162  0.62848733  1
  O  O243  1  0.00505283  0.25183450  0.36808466  1
  O  O244  1  0.01413263  0.24771514  0.88058949  1
  O  O245  1  -0.00445695  0.75846457  0.37584529  1
  O  O246  1  0.00542788  0.75480346  0.86704598  1
  O  O247  1  0.50868484  0.24560738  0.36374852  1
  O  O248  1  0.50217796  0.24513086  0.86448201  1
  O  O249  1  0.49936376  0.75630695  0.36472642  1
  O  O250  1  0.50819566  0.75233473  0.86875093  1
  O  O251  1  0.24452862  0.12886803  0.49500798  1
  O  O252  1  0.24381323  0.12931421  1.00383123  1
  O  O253  1  0.25669014  0.64054699  0.49387493  1
  O  O254  1  0.24084073  0.63642248  1.00856853  1
  O  O255  1  0.74470335  0.11824035  0.48371567  1
  O  O256  1  0.73711348  0.11776591  1.00426478  1
  O  O257  1  0.74344815  0.63283663  0.49103707  1
  O  O258  1  0.74393819  0.63251947  0.99578376  1
  O  O259  1  0.25870846  0.36551728  0.00713785  1
  O  O260  1  0.25618387  0.36767204  0.50626608  1
  O  O261  1  0.24140749  0.86042183  0.00966325  1
  O  O262  1  0.25048509  0.85735608  0.49288195  1
  O  O263  1  0.73414253  0.39011499  0.01548286  1
  O  O264  1  0.75425654  0.37642888  0.51277549  1
  O  O265  1  0.75343112  0.87076777  0.00852824  1
  O  O266  1  0.73910909  0.87078238  0.50683994  1
  O  O267  1  0.13446546  0.48978035  0.24030624  1
  O  O268  1  0.12603615  0.49870694  0.73607348  1
  O  O269  1  0.13034664  0.98662583  0.25098208  1
  O  O270  1  0.12205544  1.00575301  0.73235622  1
  O  O271  1  0.63117383  0.49176914  0.25077228  1
  O  O272  1  0.61618546  0.49029562  0.74182822  1
  O  O273  1  0.62596842  1.00282029  0.23896398  1
  O  O274  1  0.62888485  0.99969949  0.74255545  1
  O  O275  1  0.37487531  0.01444733  0.24957075  1
  O  O276  1  0.37503338  0.00612076  0.75797609  1
  O  O277  1  0.36996691  0.50537323  0.24916063  1
  O  O278  1  0.38007782  0.51696350  0.74654684  1
  O  O279  1  0.86471822  0.00297532  0.24710692  1
  O  O280  1  0.86557645  0.00829349  0.75020264  1
  O  O281  1  0.86788105  0.50547083  0.25480461  1
  O  O282  1  0.87791974  0.50666458  0.75107532  1
  O  O283  1  0.11998981  0.36869071  0.36897308  1
  O  O284  1  0.12711135  0.35702466  0.87771420  1
  O  O285  1  0.11589202  0.86874456  0.35931115  1
  O  O286  1  0.11151720  0.86415246  0.88004726  1
  O  O287  1  0.63031498  0.36788826  0.36442919  1
  O  O288  1  0.62170223  0.36098971  0.86379625  1
  O  O289  1  0.60862303  0.88085246  0.37208784  1
  O  O290  1  0.62419337  0.86969414  0.86970472  1
  O  O291  1  0.38637616  0.12381631  0.13363253  1
  O  O292  1  0.37776019  0.13046473  0.63358563  1
  O  O293  1  0.38243794  0.63240469  0.13344941  1
  O  O294  1  0.37815514  0.63715044  0.63409298  1
  O  O295  1  0.88943570  0.13550685  0.12556776  1
  O  O296  1  0.87385710  0.13278967  0.63112598  1
  O  O297  1  0.88561887  0.63067620  0.13251855  1
  O  O298  1  0.86506061  0.64170532  0.62530767  1
  O  O299  1  0.24580192  0.25561876  0.11456818  1
  O  O300  1  0.25614368  0.25455653  0.61961438  1
  O  O301  1  0.26035666  0.75819281  0.11905497  1
  O  O302  1  0.26233235  0.74928614  0.61071894  1
  O  O303  1  0.76530302  0.24508814  0.13349154  1
  O  O304  1  0.76007410  0.25792028  0.62551033  1
  O  O305  1  0.75800671  0.75567445  0.11998950  1
  O  O306  1  0.75131426  0.76156926  0.61803990  1
  O  O307  1  0.24292432  0.24105602  0.38181875  1
  O  O308  1  0.24169101  0.24420228  0.88762939  1
  O  O309  1  0.25258953  0.74375652  0.38555523  1
  O  O310  1  0.24262141  0.75299053  0.88405315  1
  O  O311  1  0.73973680  0.23601706  0.36571018  1
  O  O312  1  0.73479712  0.24816926  0.86818104  1
  O  O313  1  0.75011640  0.74435675  0.38076988  1
  O  O314  1  0.74568071  0.74538350  0.88254010  1
  O  O315  1  0.00675204  0.11781016  0.00819482  1
  O  O316  1  0.00742843  0.11473316  0.49877433  1
  O  O317  1  0.01171595  0.61684394  0.00360505  1
  O  O318  1  -0.01192600  0.61744219  0.50535707  1
  O  O319  1  0.50741024  0.11753720  0.00980790  1
  O  O320  1  0.50043620  0.11867492  0.50767133  1
  O  O321  1  0.50864675  0.62005091  0.00566679  1
  O  O322  1  0.50930273  0.62053054  0.50027479  1
  O  O323  1  0.48840467  0.38442624  0.50760663  1
  O  O324  1  0.49023651  0.38334373  1.01113127  1
  O  O325  1  0.49846702  0.88409848  0.49422338  1
  O  O326  1  0.50748994  0.88984536  1.00363422  1
  O  O327  1  0.99011944  0.37603765  0.49102674  1
  O  O328  1  1.00891656  0.39140488  0.99889208  1
  O  O329  1  1.00162149  0.88150054  0.48094821  1
  O  O330  1  1.00066685  0.88216787  0.99514132  1
  O  O331  1  0.49936915  0.50147512  0.38882702  1
  O  O332  1  0.50063897  0.50534993  0.89117890  1
  O  O333  1  0.50238314  0.99693255  0.38779946  1
  O  O334  1  0.49472118  0.99950781  0.88548102  1
  O  O335  1  0.98949402  0.48757184  0.37497446  1
  O  O336  1  1.00406299  0.50052661  0.88578807  1
  O  O337  1  1.00227233  0.98836130  0.38081391  1
  O  O338  1  1.00002135  0.99180681  0.88119889  1
  O  O339  1  -0.00151031  0.00853066  0.11826315  1
  O  O340  1  0.00931925  -0.00173557  0.61667837  1
  O  O341  1  0.00714664  0.50588788  0.11782421  1
  O  O342  1  0.01670850  0.49742689  0.62189010  1
  O  O343  1  0.50729915  0.00738143  0.12157301  1
  O  O344  1  0.50626034  0.00587014  0.62399058  1
  O  O345  1  0.49618539  0.51470606  0.11622966  1
  O  O346  1  0.51159998  0.50349328  0.61358232  1
  O  O347  1  0.24993368  0.37798828  0.24397755  1
  O  O348  1  0.24620221  0.37631024  0.74139847  1
  O  O349  1  0.24111371  0.87438050  0.24613515  1
  O  O350  1  0.24964829  0.87195232  0.75095504  1
  O  O351  1  0.74211675  0.38819670  0.25132786  1
  O  O352  1  0.73261876  0.36998384  0.73628713  1
  O  O353  1  0.74754247  0.89006123  0.24729242  1
  O  O354  1  0.74343691  0.88280600  0.74189538  1
  O  O355  1  0.25686897  0.12285429  0.25819101  1
  O  O356  1  0.26154957  0.12037379  0.75123187  1
  O  O357  1  0.25915701  0.61619627  0.24771168  1
  O  O358  1  0.26449673  0.62720528  0.74769919  1
  O  O359  1  0.74626060  0.11311827  0.26002095  1
  O  O360  1  0.75726231  0.11501372  0.74460893  1
  O  O361  1  0.75152556  0.61570642  0.25559982  1
  O  O362  1  0.74668203  0.63496416  0.76532892  1
  O  O363  1  0.36451692  0.12979374  0.36830313  1
  O  O364  1  0.37325233  0.11391201  0.86826833  1
  O  O365  1  0.37706863  0.62149268  0.35965061  1
  O  O366  1  0.38204436  0.62748692  0.85643005  1
  O  O367  1  0.85965250  0.13220448  0.37680378  1
  O  O368  1  0.87712590  0.12368264  0.86406603  1
  O  O369  1  0.86160326  0.62125861  0.36894498  1
  O  O370  1  0.86016821  0.63047061  0.87556511  1
  O  O371  1  0.13697056  0.37787201  0.12851220  1
  O  O372  1  0.13751619  0.36921133  0.62473910  1
  O  O373  1  0.13336512  0.86808752  0.13921085  1
  O  O374  1  0.11980172  0.88061501  0.62230172  1
  O  O375  1  0.62459442  0.37615175  0.13349922  1
  O  O376  1  0.62985716  0.38096594  0.62809497  1
  O  O377  1  0.63394059  0.88623444  0.12902213  1
  O  O378  1  0.63143701  0.88403296  0.63133039  1
  O  O379  1  0.11971534  0.25359156  0.25575269  1
  O  O380  1  0.12758100  0.24254692  0.76688870  1
  O  O381  1  0.12606301  0.75572504  0.24544397  1
  O  O382  1  0.11771343  0.75036500  0.75840024  1
  O  O383  1  0.61669453  0.25813818  0.25763651  1
  O  O384  1  0.61553592  0.25185972  0.75821801  1
  O  O385  1  0.61348919  0.75115938  0.24207292  1
  O  O386  1  0.61914079  0.75716388  0.75402370  1
  O  O387  1  0.38639102  0.24128915  0.25413505  1
  O  O388  1  0.37861001  0.24393778  0.74863404  1
  O  O389  1  0.38347653  0.74266262  0.24173944  1
  O  O390  1  0.38200087  0.74338376  0.74115748  1
  O  O391  1  0.88702324  0.25239592  0.24670818  1
  O  O392  1  0.87303374  0.24145578  0.74164076  1
  O  O393  1  0.86717060  0.74185826  0.23729839  1
  O  O394  1  0.87977209  0.74843099  0.74096753  1
  O  O395  1  0.38192684  0.49488284  0.50159391  1
  O  O396  1  0.38303776  0.49226712  0.99924966  1
  O  O397  1  0.38588260  0.99767158  0.51124535  1
  O  O398  1  0.38622289  1.00633220  0.99209931  1
  O  O399  1  0.87094066  0.48648754  0.49307573  1
  O  O400  1  0.89340281  0.50804004  0.99631681  1
  O  O401  1  0.88743096  1.00168199  0.50783259  1
  O  O402  1  0.88826607  1.00039811  0.99887234  1
  O  O403  1  0.11445698  0.00715900  -0.00342143  1
  O  O404  1  0.11756854  0.00270290  0.50903109  1
  O  O405  1  0.12158695  0.50689343  0.00247398  1
  O  O406  1  0.12652934  0.49464401  0.51403142  1
  O  O407  1  0.62026136  0.00822428  0.01134519  1
  O  O408  1  0.61470426  0.00249403  0.51363918  1
  O  O409  1  0.62288765  0.50187389  0.00812626  1
  O  O410  1  0.62010821  0.50884412  0.50487555  1
  O  O411  1  0.36433162  0.37677324  0.11784244  1
  O  O412  1  0.36341933  0.37213066  0.61840630  1
  O  O413  1  0.37066602  0.86333589  0.13063055  1
  O  O414  1  0.37824057  0.85989783  0.62324692  1
  O  O415  1  0.87721004  0.36051754  0.12693083  1
  O  O416  1  0.86711187  0.37042680  0.61968755  1
  O  O417  1  0.87144821  0.86742749  0.12558672  1
  O  O418  1  0.86009099  0.86894003  0.62930710  1
  O  O419  1  0.13154810  0.12600055  0.38575636  1
  O  O420  1  0.12621578  0.13211690  0.88766327  1
  O  O421  1  0.11804661  0.63329392  0.35890608  1
  O  O422  1  0.12061194  0.63396154  0.88188709  1
  O  O423  1  0.63145769  0.13426553  0.37733676  1
  O  O424  1  0.62054063  0.13652376  0.88319480  1
  O  O425  1  0.63568717  0.62213374  0.38187081  1
  O  O426  1  0.63346981  0.63086027  0.88612994  1
