# generated using pymatgen
data_V85Zn86O256
_symmetry_space_group_name_H-M   'P 1'
_cell_length_a   16.92383817
_cell_length_b   16.94497837
_cell_length_c   16.93627480
_cell_angle_alpha   90.04481457
_cell_angle_beta   90.04444593
_cell_angle_gamma   90.04250964
_symmetry_Int_Tables_number   1
_chemical_formula_structural   V85Zn86O256
_chemical_formula_sum   'V85 Zn86 O256'
_cell_volume   4856.88019976
_cell_formula_units_Z   1
loop_
 _symmetry_equiv_pos_site_id
 _symmetry_equiv_pos_as_xyz
  1  'x, y, z'
loop_
 _atom_site_type_symbol
 _atom_site_label
 _atom_site_symmetry_multiplicity
 _atom_site_fract_x
 _atom_site_fract_y
 _atom_site_fract_z
 _atom_site_occupancy
  V  V0  1  0.37661102  0.74388820  0.62874464  1
  V  V1  1  0.75010571  0.74977464  0.00123798  1
  V  V2  1  -0.00737053  0.37747606  0.37968558  1
  V  V3  1  0.24998195  0.37535983  0.12350762  1
  V  V4  1  0.25383629  0.62688097  0.86927620  1
  V  V5  1  0.61729636  0.61071855  0.50449085  1
  V  V6  1  0.62016878  0.62730290  0.00518035  1
  V  V7  1  0.12276498  0.50708096  0.61958021  1
  V  V8  1  0.38368840  0.37708857  0.50025611  1
  V  V9  1  0.75017876  0.12350265  0.87359605  1
  V  V10  1  0.25675688  0.00071832  0.25325854  1
  V  V11  1  0.87558904  0.87567172  0.49496430  1
  V  V12  1  0.00677973  0.00627982  -0.00194251  1
  V  V13  1  0.12559370  -0.00230397  0.62224206  1
  V  V14  1  0.11557805  0.86650148  0.74879011  1
  V  V15  1  0.50085430  0.61158383  0.63354707  1
  V  V16  1  0.87953908  0.63219029  0.24955951  1
  V  V17  1  0.62580097  -0.00178902  0.12775988  1
  V  V18  1  0.62303962  -0.01507064  0.62269596  1
  V  V19  1  0.12046039  0.74013663  0.37334679  1
  V  V20  1  0.87123090  0.50543283  0.86742205  1
  V  V21  1  -0.00091449  0.24909677  0.74854267  1
  V  V22  1  0.86598388  0.24378235  0.61994257  1
  V  V23  1  0.88284518  0.75324190  0.12691836  1
  V  V24  1  0.12364816  0.38013499  0.25425183  1
  V  V25  1  0.74754487  0.50051062  0.24738872  1
  V  V26  1  0.85753746  0.40720763  0.53731305  1
  V  V27  1  0.12291487  0.37594725  0.74821889  1
  V  V28  1  0.49812815  0.50375064  0.00650984  1
  V  V29  1  0.74687645  0.75347179  0.50470978  1
  V  V30  1  0.62078079  0.86522025  0.25054514  1
  V  V31  1  0.49721040  -0.00177439  -0.01296457  1
  V  V32  1  0.25024812  0.87357023  0.62240566  1
  V  V33  1  0.87799257  0.11901198  0.25370157  1
  V  V34  1  0.74834064  0.37609962  0.12483250  1
  V  V35  1  0.12539917  0.12445404  0.49894195  1
  V  V36  1  0.12336836  0.25164643  0.37811180  1
  V  V37  1  0.74967553  0.62290307  0.86344428  1
  V  V38  1  0.11881070  0.87127330  0.24985154  1
  V  V39  1  -0.00097682  0.37669561  0.87483176  1
  V  V40  1  0.37789350  0.87666784  -0.01530113  1
  V  V41  1  0.12827147  0.24110758  0.87967935  1
  V  V42  1  0.49981063  0.25013606  0.74942839  1
  V  V43  1  0.62753670  0.12374052  0.50237717  1
  V  V44  1  0.25348335  0.87356142  0.12523581  1
  V  V45  1  0.25185611  0.50309854  0.74821595  1
  V  V46  1  0.00223066  0.51549468  0.49677692  1
  V  V47  1  0.62528040  0.25170122  0.87376644  1
  V  V48  1  0.49726990  0.86943169  0.37219648  1
  V  V49  1  0.38058814  0.00675677  0.37740423  1
  V  V50  1  0.50073054  0.37589616  0.87619629  1
  V  V51  1  0.37956540  0.87840233  0.50000149  1
  V  V52  1  0.39113440  0.63030778  0.24994159  1
  V  V53  1  0.63512596  0.38908010  0.73831874  1
  V  V54  1  0.24993442  0.51289572  0.25554101  1
  V  V55  1  0.50235579  0.76071342  0.75065215  1
  V  V56  1  0.62156262  0.76102866  0.87046942  1
  V  V57  1  0.87200917  0.75319529  0.63695207  1
  V  V58  1  0.74740253  0.62641201  0.37616635  1
  V  V59  1  0.00039017  0.24934803  0.24892662  1
  V  V60  1  0.24993649  0.25197157  0.50055679  1
  V  V61  1  0.62018226  0.24639833  0.37129406  1
  V  V62  1  0.87510468  0.50012739  0.36892842  1
  V  V63  1  0.62340258  0.12382538  0.00113234  1
  V  V64  1  0.12439597  0.50495972  0.12586599  1
  V  V65  1  0.24787611  0.37699643  0.62323853  1
  V  V66  1  -0.00396038  0.50304886  0.00118607  1
  V  V67  1  0.12677067  0.62747569  -0.00034279  1
  V  V68  1  0.87652023  0.87915894  -0.00009784  1
  V  V69  1  0.38883029  0.74771877  0.12621269  1
  V  V70  1  0.50012203  0.12171736  0.62087757  1
  V  V71  1  0.37588200  0.50249887  0.87009537  1
  V  V72  1  0.37339082  0.11788926  0.75933830  1
  V  V73  1  -0.00108393  0.63433455  0.64051385  1
  V  V74  1  0.61543853  0.37023801  0.24807653  1
  V  V75  1  0.75206949  0.24979644  0.00029319  1
  V  V76  1  0.25189608  0.74989141  -0.00086226  1
  V  V77  1  0.37798520  0.50475616  0.37892971  1
  V  V78  1  -0.00028029  0.12123836  0.62332496  1
  V  V79  1  0.24809528  0.73746123  0.49226474  1
  V  V80  1  0.13111049  0.01349820  0.12322809  1
  V  V81  1  0.74353980  -0.01518710  0.74803957  1
  V  V82  1  0.49656058  0.12642249  0.14176628  1
  V  V83  1  0.87175322  0.12116671  0.74968324  1
  V  V84  1  0.75235140  -0.00204050  0.26212685  1
  Zn  Zn85  1  0.00140481  0.63117219  0.12832128  1
  Zn  Zn86  1  0.25291287  0.24323545  0.00415213  1
  Zn  Zn87  1  -0.00287968  0.87669866  0.36721670  1
  Zn  Zn88  1  0.61946109  0.50600828  0.12785227  1
  Zn  Zn89  1  0.87758784  -0.00075436  0.87362663  1
  Zn  Zn90  1  0.38580929  0.25135858  0.13534483  1
  Zn  Zn91  1  0.37371372  0.24804150  0.62542369  1
  Zn  Zn92  1  0.49902192  0.37345732  0.37440928  1
  Zn  Zn93  1  0.87641256  0.24949608  0.12539101  1
  Zn  Zn94  1  0.37335291  0.37284181  0.00128798  1
  Zn  Zn95  1  0.61581256  0.74474783  0.37487803  1
  Zn  Zn96  1  0.87301800  0.37709140  -0.00025625  1
  Zn  Zn97  1  -0.00255820  0.87020677  0.87186623  1
  Zn  Zn98  1  0.75085833  0.87606591  0.12787251  1
  Zn  Zn99  1  0.75163836  0.25521208  0.49751228  1
  Zn  Zn100  1  0.25382291  -0.00598883  0.75426607  1
  Zn  Zn101  1  0.25221875  0.11084302  0.89026579  1
  Zn  Zn102  1  0.11737409  0.74356025  0.86674044  1
  Zn  Zn103  1  0.00536048  0.12911245  0.12181571  1
  Zn  Zn104  1  0.75453519  0.12479894  0.37901489  1
  Zn  Zn105  1  0.25642071  0.12720059  0.37437925  1
  Zn  Zn106  1  -0.00771562  0.00142016  0.48715424  1
  Zn  Zn107  1  0.21581500  0.19974213  0.20104833  1
  Zn  Zn108  1  0.18782810  0.18750771  0.68927627  1
  Zn  Zn109  1  0.19217040  0.69077540  0.18832254  1
  Zn  Zn110  1  0.18818544  0.68573352  0.68265890  1
  Zn  Zn111  1  0.68784758  0.18535631  0.18882446  1
  Zn  Zn112  1  0.68533445  0.18682157  0.68842461  1
  Zn  Zn113  1  0.69053350  0.68908525  0.18528737  1
  Zn  Zn114  1  0.68272780  0.68867850  0.68538499  1
  Zn  Zn115  1  0.31336539  0.31660068  0.31001999  1
  Zn  Zn116  1  0.31277299  0.31185672  0.81210144  1
  Zn  Zn117  1  0.31258958  0.81154222  0.31227082  1
  Zn  Zn118  1  0.31000215  0.80904339  0.80662994  1
  Zn  Zn119  1  0.80893807  0.30932960  0.31259204  1
  Zn  Zn120  1  0.81427683  0.31366514  0.81117208  1
  Zn  Zn121  1  0.80772882  0.81105924  0.31435580  1
  Zn  Zn122  1  0.81187069  0.81118191  0.81781859  1
  Zn  Zn123  1  0.19030040  0.44115278  0.43717253  1
  Zn  Zn124  1  0.18639422  0.43707047  0.93716180  1
  Zn  Zn125  1  0.18805278  0.93315566  0.43603657  1
  Zn  Zn126  1  0.18909472  0.93865138  0.93529708  1
  Zn  Zn127  1  0.68730034  0.43574922  0.43457680  1
  Zn  Zn128  1  0.68459535  0.43967624  0.93563012  1
  Zn  Zn129  1  0.68378289  0.93395324  0.44083919  1
  Zn  Zn130  1  0.68809452  0.93784992  0.93779243  1
  Zn  Zn131  1  0.31713097  0.06415261  0.06151199  1
  Zn  Zn132  1  0.31363679  0.06227714  0.56343106  1
  Zn  Zn133  1  0.31534385  0.56366883  0.06359167  1
  Zn  Zn134  1  0.31684833  0.56216564  0.56281154  1
  Zn  Zn135  1  0.81497669  0.06410995  0.06850751  1
  Zn  Zn136  1  0.80624594  0.05688344  0.56443724  1
  Zn  Zn137  1  0.81072530  0.56541718  0.06092220  1
  Zn  Zn138  1  0.81487170  0.57462114  0.56482743  1
  Zn  Zn139  1  0.43419397  0.44123409  0.18913900  1
  Zn  Zn140  1  0.43729524  0.43291794  0.68959017  1
  Zn  Zn141  1  0.43889480  0.93831976  0.18659212  1
  Zn  Zn142  1  0.43903975  0.93801486  0.68564569  1
  Zn  Zn143  1  0.93575928  0.43721860  0.18628032  1
  Zn  Zn144  1  0.92995284  0.44476859  0.68666003  1
  Zn  Zn145  1  0.94117656  0.94111311  0.18454858  1
  Zn  Zn146  1  0.93285824  0.93641373  0.68107094  1
  Zn  Zn147  1  0.06590254  0.05986868  0.31225728  1
  Zn  Zn148  1  0.06430986  0.05609531  0.80961748  1
  Zn  Zn149  1  0.06157213  0.56813103  0.31245467  1
  Zn  Zn150  1  0.06404158  0.56178327  0.81293774  1
  Zn  Zn151  1  0.56404051  0.05361932  0.31859030  1
  Zn  Zn152  1  0.56511546  0.06240550  0.80848826  1
  Zn  Zn153  1  0.56133833  0.55753478  0.31635626  1
  Zn  Zn154  1  0.56494922  0.56600293  0.81406009  1
  Zn  Zn155  1  0.44119631  0.18932580  0.43960010  1
  Zn  Zn156  1  0.43434538  0.18932681  0.94641200  1
  Zn  Zn157  1  0.43590795  0.68616933  0.43917350  1
  Zn  Zn158  1  0.43681076  0.68867202  0.93477962  1
  Zn  Zn159  1  0.93655100  0.18519323  0.43624705  1
  Zn  Zn160  1  0.93786738  0.18653667  0.93622026  1
  Zn  Zn161  1  0.93639419  0.69285352  0.43845623  1
  Zn  Zn162  1  0.93740302  0.68963060  0.93413063  1
  Zn  Zn163  1  0.06689791  0.31635202  0.06359722  1
  Zn  Zn164  1  0.05161731  0.31808749  0.56147863  1
  Zn  Zn165  1  0.06448097  0.81694793  0.05821071  1
  Zn  Zn166  1  0.06130143  0.80909245  0.55712980  1
  Zn  Zn167  1  0.56215425  0.31081965  0.06316309  1
  Zn  Zn168  1  0.56578618  0.30948333  0.56440554  1
  Zn  Zn169  1  0.56326237  0.81675114  0.05855111  1
  Zn  Zn170  1  0.55911295  0.80544403  0.55883516  1
  O  O171  1  0.13028485  0.11368299  0.13399943  1
  O  O172  1  0.11947730  0.11689632  0.62178184  1
  O  O173  1  0.12440466  0.61886184  0.12193462  1
  O  O174  1  0.11187637  0.61970132  0.62493752  1
  O  O175  1  0.62009548  0.11692647  0.11935894  1
  O  O176  1  0.61847747  0.11965972  0.61982158  1
  O  O177  1  0.62946226  0.62582573  0.11033419  1
  O  O178  1  0.61391720  0.62490692  0.61485221  1
  O  O179  1  0.37559565  0.38072231  0.38182634  1
  O  O180  1  0.38619939  0.38079629  0.87504255  1
  O  O181  1  0.37888571  0.87929890  0.38219570  1
  O  O182  1  0.37078465  0.86654304  0.88591611  1
  O  O183  1  0.88068517  0.38541700  0.36555431  1
  O  O184  1  0.88138109  0.38354846  0.87803489  1
  O  O185  1  0.87684483  0.86347047  0.39019045  1
  O  O186  1  0.87381223  0.87805189  0.88861624  1
  O  O187  1  0.26008555  -0.00294666  0.36939315  1
  O  O188  1  0.24725469  0.00134475  0.86600677  1
  O  O189  1  0.26083347  0.49736475  0.36562863  1
  O  O190  1  0.25683324  0.50497868  0.86981471  1
  O  O191  1  0.74427473  0.00099199  0.36495631  1
  O  O192  1  0.74766651  0.00569814  0.86367843  1
  O  O193  1  0.75364232  0.51051495  0.36917719  1
  O  O194  1  0.75539034  0.51484673  0.88301866  1
  O  O195  1  0.24173001  0.49613023  0.13014502  1
  O  O196  1  0.24156007  0.49913836  0.62781291  1
  O  O197  1  0.24969425  0.99131545  0.13225991  1
  O  O198  1  0.24373154  0.99039996  0.62702259  1
  O  O199  1  0.74617111  0.49296802  0.12814998  1
  O  O200  1  0.82454702  0.47373831  0.61547283  1
  O  O201  1  0.73705594  0.99929915  0.12951865  1
  O  O202  1  0.73665168  0.99996875  0.63841024  1
  O  O203  1  0.00501377  0.37025519  0.25602546  1
  O  O204  1  0.00408938  0.37156633  0.75479863  1
  O  O205  1  0.01517943  0.87355524  0.24349850  1
  O  O206  1  0.01314138  0.88001415  0.74529009  1
  O  O207  1  0.51201750  0.37704138  0.24621138  1
  O  O208  1  0.50630291  0.36679564  0.75687583  1
  O  O209  1  0.50926169  0.87830057  0.25761406  1
  O  O210  1  0.49682411  0.85974931  0.74649334  1
  O  O211  1  0.50953524  0.11893013  0.23992436  1
  O  O212  1  0.49209996  0.13089683  0.74515323  1
  O  O213  1  0.49012963  0.62226469  0.24901323  1
  O  O214  1  0.50535061  0.63156177  0.73667968  1
  O  O215  1  0.99700302  0.13382066  0.24887815  1
  O  O216  1  0.99246514  0.12502342  0.74216077  1
  O  O217  1  0.98397755  0.62432181  0.24840744  1
  O  O218  1  1.00249567  0.62555994  0.73896433  1
  O  O219  1  0.37204461  0.25561433  0.01404447  1
  O  O220  1  0.36521049  0.25670063  0.50117128  1
  O  O221  1  0.37130038  0.75560983  0.00599533  1
  O  O222  1  0.36523210  0.75481453  0.50716648  1
  O  O223  1  0.86371822  0.25164954  0.00092421  1
  O  O224  1  0.87286366  0.24673208  0.50977875  1
  O  O225  1  0.86689362  0.75686063  0.00620255  1
  O  O226  1  0.86629440  0.75531932  0.50793168  1
  O  O227  1  0.12664794  0.24937581  0.49545591  1
  O  O228  1  0.11827218  0.25489098  0.98047571  1
  O  O229  1  0.13905422  0.75596757  0.48797470  1
  O  O230  1  0.13403160  0.74227836  1.00107958  1
  O  O231  1  0.63003152  0.24180990  0.49490017  1
  O  O232  1  0.63462467  0.24581354  0.99407926  1
  O  O233  1  0.63294057  0.73966023  0.49898787  1
  O  O234  1  0.62992052  0.74583634  0.99392239  1
  O  O235  1  0.50398698  0.23231590  0.12495007  1
  O  O236  1  0.49950577  0.24044151  0.63458813  1
  O  O237  1  0.48800457  0.75491618  0.11993511  1
  O  O238  1  0.49458336  0.74237333  0.63332757  1
  O  O239  1  1.00393767  0.25192494  0.13736720  1
  O  O240  1  0.99967428  0.23398906  0.62946538  1
  O  O241  1  0.98692693  0.74999661  0.11715267  1
  O  O242  1  0.99277921  0.74027502  0.62157635  1
  O  O243  1  0.00377096  0.25666245  0.36811866  1
  O  O244  1  0.00638175  0.25495987  0.86759614  1
  O  O245  1  0.01649646  0.75408165  0.38025744  1
  O  O246  1  0.00550554  0.75665097  0.88009070  1
  O  O247  1  0.51391445  0.25284289  0.37750337  1
  O  O248  1  0.50321762  0.25802165  0.87156644  1
  O  O249  1  0.49794026  0.76275379  0.37862784  1
  O  O250  1  0.50558616  0.74200032  0.85846416  1
  O  O251  1  0.24379375  0.13494678  0.50064157  1
  O  O252  1  0.25173205  0.12916989  1.00166396  1
  O  O253  1  0.25184908  0.63924422  0.50417306  1
  O  O254  1  0.24606684  0.62923679  0.99347684  1
  O  O255  1  0.73932473  0.12507440  0.50011757  1
  O  O256  1  0.74484359  0.13060549  0.99617658  1
  O  O257  1  0.74098060  0.63012259  0.49603201  1
  O  O258  1  0.74370855  0.63757499  0.99516555  1
  O  O259  1  0.25245909  0.37939812  0.00932034  1
  O  O260  1  0.25522717  0.36925778  0.50553637  1
  O  O261  1  0.25754595  0.86988696  0.00696981  1
  O  O262  1  0.25725734  0.86653504  0.50921921  1
  O  O263  1  0.74755686  0.36763701  0.00595593  1
  O  O264  1  0.76663764  0.37641799  0.49583782  1
  O  O265  1  0.75595817  0.86572527  0.00149214  1
  O  O266  1  0.75674066  0.86096292  0.49561526  1
  O  O267  1  0.13000066  0.50240110  0.24490887  1
  O  O268  1  0.12838786  0.49491739  0.73853776  1
  O  O269  1  0.13421575  0.98808243  0.24100724  1
  O  O270  1  0.12693764  0.98974071  0.73480079  1
  O  O271  1  0.63060453  0.49255654  0.24835713  1
  O  O272  1  0.62274475  0.48804230  0.75321488  1
  O  O273  1  0.63256370  0.99028521  0.24441828  1
  O  O274  1  0.63478113  1.00165517  0.73955803  1
  O  O275  1  0.36768784  -0.00886129  0.26215703  1
  O  O276  1  0.37693278  0.01464727  0.74606696  1
  O  O277  1  0.36895136  0.51194653  0.25456630  1
  O  O278  1  0.36974064  0.49503291  0.76269189  1
  O  O279  1  0.86445708  0.00544852  0.24226308  1
  O  O280  1  0.86160700  0.00252646  0.74743536  1
  O  O281  1  0.86729343  0.50976425  0.25070158  1
  O  O282  1  0.87985563  0.50460205  0.76872206  1
  O  O283  1  0.11527791  0.37264797  0.37369666  1
  O  O284  1  0.11788858  0.37160078  0.86623513  1
  O  O285  1  0.12779395  0.86547447  0.36398447  1
  O  O286  1  0.12716707  0.87310055  0.85491170  1
  O  O287  1  0.62339531  0.36776875  0.36635775  1
  O  O288  1  0.61430109  0.37100324  0.86970707  1
  O  O289  1  0.61534766  0.87298836  0.36916952  1
  O  O290  1  0.62737137  0.85991002  0.87994458  1
  O  O291  1  0.39493729  0.11779773  0.12984532  1
  O  O292  1  0.38516874  0.12626721  0.63103686  1
  O  O293  1  0.37306850  0.63314631  0.13777525  1
  O  O294  1  0.39020664  0.63236287  0.61789356  1
  O  O295  1  0.88039472  0.12995879  0.13772106  1
  O  O296  1  0.88174424  0.12604747  0.62793959  1
  O  O297  1  0.87346590  0.63481516  0.13240005  1
  O  O298  1  0.88879073  0.64002742  0.62469867  1
  O  O299  1  0.21603396  0.27530016  0.11426652  1
  O  O300  1  0.24756601  0.25621060  0.61441397  1
  O  O301  1  0.25888934  0.75677875  0.11829236  1
  O  O302  1  0.25725701  0.75341338  0.61630865  1
  O  O303  1  0.74915723  0.25678994  0.11631296  1
  O  O304  1  0.76288199  0.24567953  0.62505904  1
  O  O305  1  0.75915790  0.75346620  0.11568526  1
  O  O306  1  0.76216399  0.74086303  0.61871172  1
  O  O307  1  0.24224136  0.25266104  0.38847765  1
  O  O308  1  0.23534258  0.25300496  0.87574241  1
  O  O309  1  0.24615896  0.75234116  0.38768375  1
  O  O310  1  0.24650591  0.74090378  0.87829977  1
  O  O311  1  0.73784108  0.24602702  0.37742147  1
  O  O312  1  0.74672195  0.24469265  0.88221825  1
  O  O313  1  0.74629222  0.73705909  0.38357483  1
  O  O314  1  0.74347157  0.74159039  0.88097411  1
  O  O315  1  -0.00416544  0.11153951  0.00187602  1
  O  O316  1  0.00597884  0.12160699  0.50673032  1
  O  O317  1  0.00647213  0.61539079  0.00173206  1
  O  O318  1  -0.00228666  0.61794439  0.50526072  1
  O  O319  1  0.50564692  0.11336541  0.00514070  1
  O  O320  1  0.51036285  0.12918363  0.51304013  1
  O  O321  1  0.50813565  0.61689266  -0.00841469  1
  O  O322  1  0.51184022  0.62794448  0.50872612  1
  O  O323  1  0.48639668  0.36830574  0.50220006  1
  O  O324  1  0.50094280  0.38290405  0.99162567  1
  O  O325  1  0.48565487  0.86928682  0.49550830  1
  O  O326  1  0.49301495  0.88865518  1.00189663  1
  O  O327  1  0.98161674  0.39225620  0.49862921  1
  O  O328  1  0.99989210  0.38814548  0.99565320  1
  O  O329  1  0.98529426  0.87468279  0.49983566  1
  O  O330  1  0.99175956  0.88706111  1.00142040  1
  O  O331  1  0.48394819  0.49315771  0.37166876  1
  O  O332  1  0.49348509  0.49520487  0.87976799  1
  O  O333  1  0.49098714  0.98578317  0.37605345  1
  O  O334  1  0.50724087  1.00329526  0.88855586  1
  O  O335  1  0.99784087  0.49834444  0.38068035  1
  O  O336  1  0.99436146  0.49843412  0.88350589  1
  O  O337  1  1.00612142  0.99067647  0.37526967  1
  O  O338  1  1.00002159  0.99353833  0.88236846  1
  O  O339  1  0.01412816  0.00357319  0.11867171  1
  O  O340  1  0.00568979  0.00873751  0.62032178  1
  O  O341  1  0.00564088  0.50455796  0.11906089  1
  O  O342  1  0.00393771  0.51356421  0.61907192  1
  O  O343  1  0.51168833  0.00671524  0.12116489  1
  O  O344  1  0.51460171  0.00774135  0.63226820  1
  O  O345  1  0.49881441  0.49680822  0.11019999  1
  O  O346  1  0.49355033  0.51294686  0.62955920  1
  O  O347  1  0.23982464  0.39160168  0.24388709  1
  O  O348  1  0.24391874  0.38134091  0.74284029  1
  O  O349  1  0.24594883  0.88036238  0.24271407  1
  O  O350  1  0.24300499  0.87209727  0.73459904  1
  O  O351  1  0.74270087  0.38031399  0.24157487  1
  O  O352  1  0.73326154  0.37054448  0.75591203  1
  O  O353  1  0.74304090  0.88215599  0.24955539  1
  O  O354  1  0.74919541  0.88675002  0.75506852  1
  O  O355  1  0.24178886  0.10357294  0.25786667  1
  O  O356  1  0.26795866  0.12774243  0.74678614  1
  O  O357  1  0.25744493  0.61521516  0.24626845  1
  O  O358  1  0.24492862  0.61701270  0.75717211  1
  O  O359  1  0.75774479  0.11484082  0.25076279  1
  O  O360  1  0.75462276  0.11994734  0.75556097  1
  O  O361  1  0.75447716  0.62121214  0.25805864  1
  O  O362  1  0.74304643  0.62774603  0.76477665  1
  O  O363  1  0.37671396  0.11136023  0.38368165  1
  O  O364  1  0.37571014  0.13192682  0.86155424  1
  O  O365  1  0.37874692  0.61974804  0.36292072  1
  O  O366  1  0.36249029  0.61762407  0.87745375  1
  O  O367  1  0.87341704  0.12761732  0.35987420  1
  O  O368  1  0.86792190  0.12109363  0.86817788  1
  O  O369  1  0.86705619  0.62427170  0.36802818  1
  O  O370  1  0.85798145  0.62144950  0.88250457  1
  O  O371  1  0.12364438  0.39355914  0.13278971  1
  O  O372  1  0.12568820  0.38343374  0.62930632  1
  O  O373  1  0.13931793  0.87533800  0.13086741  1
  O  O374  1  0.12999622  0.87818452  0.62698212  1
  O  O375  1  0.63372052  0.37614020  0.13039851  1
  O  O376  1  0.62262671  0.37363037  0.63898181  1
  O  O377  1  0.62577064  0.88142268  0.13270671  1
  O  O378  1  0.61847208  0.88643180  0.61829045  1
  O  O379  1  0.12085856  0.25757248  0.26165976  1
  O  O380  1  0.11880413  0.25703302  0.75525482  1
  O  O381  1  0.13510595  0.75630750  0.26387513  1
  O  O382  1  0.12764410  0.76347927  0.74413403  1
  O  O383  1  0.63126758  0.25845791  0.25763894  1
  O  O384  1  0.61334066  0.25089975  0.75642428  1
  O  O385  1  0.63156368  0.76141538  0.25281634  1
  O  O386  1  0.61263461  0.74900237  0.75482739  1
  O  O387  1  0.32470543  0.24098634  0.23028429  1
  O  O388  1  0.38602121  0.24468757  0.74804438  1
  O  O389  1  0.37126938  0.73702315  0.24392007  1
  O  O390  1  0.38337955  0.75027912  0.73671267  1
  O  O391  1  0.88559693  0.24478087  0.24869745  1
  O  O392  1  0.88101007  0.24094170  0.74390599  1
  O  O393  1  0.86654022  0.74399635  0.24012050  1
  O  O394  1  0.87101038  0.75773070  0.73608206  1
  O  O395  1  0.36749211  0.49042882  0.49038786  1
  O  O396  1  0.38140127  0.49942584  0.98860933  1
  O  O397  1  0.36848705  0.98850191  0.49282713  1
  O  O398  1  0.38989957  0.99153008  1.00354408  1
  O  O399  1  0.88275829  0.50760221  0.48405586  1
  O  O400  1  0.88263243  0.50057093  0.99514899  1
  O  O401  1  0.87044860  0.97976948  0.50852595  1
  O  O402  1  0.88052639  0.99311996  1.00165831  1
  O  O403  1  0.11788966  -0.00947608  0.01119135  1
  O  O404  1  0.12770648  0.00263724  0.51067718  1
  O  O405  1  0.11882132  0.50724817  0.00785448  1
  O  O406  1  0.11724363  0.49522915  0.51135198  1
  O  O407  1  0.61744487  0.00139229  0.00786738  1
  O  O408  1  0.63070826  0.00610081  0.51527134  1
  O  O409  1  0.61551248  0.50953609  -0.00052748  1
  O  O410  1  0.62961989  0.51204814  0.49933134  1
  O  O411  1  0.36203307  0.37622980  0.12680390  1
  O  O412  1  0.36642784  0.37334702  0.61816616  1
  O  O413  1  0.36710753  0.86834463  0.12140379  1
  O  O414  1  0.36923200  0.86844023  0.61884628  1
  O  O415  1  0.86125238  0.37277434  0.12309099  1
  O  O416  1  0.89953638  0.35030833  0.62403338  1
  O  O417  1  0.87322254  0.87071988  0.11626806  1
  O  O418  1  0.87798996  0.85921592  0.61449163  1
  O  O419  1  0.12783512  0.13459340  0.38277371  1
  O  O420  1  0.12607068  0.13942006  0.86345221  1
  O  O421  1  0.12637587  0.64049820  0.37235627  1
  O  O422  1  0.13681840  0.62220285  0.88093152  1
  O  O423  1  0.62434184  0.12802653  0.38516636  1
  O  O424  1  0.63043981  0.13180557  0.88055043  1
  O  O425  1  0.62864769  0.62404635  0.38578452  1
  O  O426  1  0.63488006  0.63220081  0.88438364  1
