# generated using pymatgen
data_V85Zn86O256
_symmetry_space_group_name_H-M   'P 1'
_cell_length_a   16.93806386
_cell_length_b   16.94227561
_cell_length_c   16.94612788
_cell_angle_alpha   89.97274905
_cell_angle_beta   89.95111356
_cell_angle_gamma   90.01952275
_symmetry_Int_Tables_number   1
_chemical_formula_structural   V85Zn86O256
_chemical_formula_sum   'V85 Zn86 O256'
_cell_volume   4863.01663435
_cell_formula_units_Z   1
loop_
 _symmetry_equiv_pos_site_id
 _symmetry_equiv_pos_as_xyz
  1  'x, y, z'
loop_
 _atom_site_type_symbol
 _atom_site_label
 _atom_site_symmetry_multiplicity
 _atom_site_fract_x
 _atom_site_fract_y
 _atom_site_fract_z
 _atom_site_occupancy
  V  V0  1  0.06938884  0.42227244  0.81052897  1
  V  V1  1  0.12766142  0.75062537  0.37627860  1
  V  V2  1  0.24838831  0.12425172  0.36492014  1
  V  V3  1  0.64230979  0.37828763  0.25022021  1
  V  V4  1  0.11763850  0.11913329  -0.00048511  1
  V  V5  1  0.37652849  0.50044629  0.87741289  1
  V  V6  1  0.25705688  0.75686111  -0.00168789  1
  V  V7  1  0.87265539  0.00052438  0.37173446  1
  V  V8  1  0.62569641  0.00888698  0.12031999  1
  V  V9  1  0.50526696  0.24518532  0.74953315  1
  V  V10  1  0.12535033  0.49803670  0.62229533  1
  V  V11  1  0.24703811  0.62887048  0.36316041  1
  V  V12  1  -0.00968478  0.75168702  0.23811387  1
  V  V13  1  0.24577977  0.36997932  0.62954537  1
  V  V14  1  0.25251609  0.24503227  0.00539911  1
  V  V15  1  0.74827718  0.25136471  0.50199237  1
  V  V16  1  0.37821552  0.12280151  0.74388842  1
  V  V17  1  0.50342792  0.50013738  0.00327283  1
  V  V18  1  0.13050401  0.88006100  0.24824480  1
  V  V19  1  0.75379889  0.00221298  0.24755699  1
  V  V20  1  0.37068432  0.37879817  0.49674213  1
  V  V21  1  0.24751479  0.37334888  0.12793672  1
  V  V22  1  0.25779256  0.88086420  0.12250910  1
  V  V23  1  0.74502976  0.87796619  0.62551556  1
  V  V24  1  0.87296353  0.37869604  -0.01796675  1
  V  V25  1  0.12253365  0.00125687  0.12561007  1
  V  V26  1  0.49377761  0.24678500  0.24467560  1
  V  V27  1  0.25117031  0.86494136  0.62091099  1
  V  V28  1  -0.01444254  0.62523124  0.11984247  1
  V  V29  1  0.12612401  0.86766277  0.75547462  1
  V  V30  1  -0.00438032  0.24673277  0.24882465  1
  V  V31  1  0.62389988  0.87468719  0.24922333  1
  V  V32  1  0.37168770  0.50554788  0.36489512  1
  V  V33  1  0.75292331  0.12498781  0.37280659  1
  V  V34  1  0.75658122  0.60909708  0.87837098  1
  V  V35  1  0.63612087  0.75105890  0.87890780  1
  V  V36  1  0.87248664  0.87445604  0.50149101  1
  V  V37  1  0.25129968  0.63137073  0.87575741  1
  V  V38  1  0.13198406  0.63134376  0.50023958  1
  V  V39  1  0.50162013  0.37174611  0.87749005  1
  V  V40  1  0.25032727  0.49603852  0.75360761  1
  V  V41  1  -0.01305505  0.12158440  0.12454639  1
  V  V42  1  -0.00131878  -0.00050097  0.49978926  1
  V  V43  1  0.63117125  0.37972480  0.75293259  1
  V  V44  1  0.62080675  0.74056532  0.38043045  1
  V  V45  1  0.37624684  -0.00526255  0.87998261  1
  V  V46  1  -0.00190444  0.50390481  0.49604254  1
  V  V47  1  0.76074231  0.62594447  0.36145474  1
  V  V48  1  0.87544174  0.37825752  0.49769662  1
  V  V49  1  0.87324831  0.86237807  0.00362455  1
  V  V50  1  0.11841697  0.24723425  0.87135893  1
  V  V51  1  0.64193232  0.49950208  0.13159680  1
  V  V52  1  0.62182840  0.00825397  0.62712759  1
  V  V53  1  0.49372479  0.62368712  0.13425444  1
  V  V54  1  0.62474276  0.87680870  0.75114803  1
  V  V55  1  0.86120592  0.26203185  0.12188337  1
  V  V56  1  0.37134109  0.00385905  0.36592267  1
  V  V57  1  0.49796565  0.00825177  0.50322736  1
  V  V58  1  0.37780122  0.36798279  0.00787736  1
  V  V59  1  0.74610413  0.74085132  0.50315775  1
  V  V60  1  0.12647045  0.63190831  0.00300800  1
  V  V61  1  0.62498787  0.25170397  0.37541739  1
  V  V62  1  0.62206252  0.13015513  0.50406255  1
  V  V63  1  0.74652345  0.12636563  0.88812082  1
  V  V64  1  0.49956479  0.37881677  0.37208318  1
  V  V65  1  0.00333228  0.87887042  0.88243772  1
  V  V66  1  0.87685717  0.00208946  0.88294915  1
  V  V67  1  0.87192321  0.61294872  0.75107925  1
  V  V68  1  -0.00039942  0.87426056  0.37206697  1
  V  V69  1  0.12547276  -0.00236373  0.62553362  1
  V  V70  1  0.75050680  0.86220250  0.12110965  1
  V  V71  1  0.12582219  0.12511161  0.49887223  1
  V  V72  1  -0.00443030  0.75425540  0.75421506  1
  V  V73  1  0.25218654  -0.00326814  0.74909474  1
  V  V74  1  0.24984743  0.12414522  0.87413437  1
  V  V75  1  0.74971950  0.38474640  0.63046153  1
  V  V76  1  0.62824887  0.24571307  0.89067997  1
  V  V77  1  0.49992744  0.74163778  0.74358387  1
  V  V78  1  0.38301819  0.24847948  0.62274294  1
  V  V79  1  0.87666840  0.24635953  0.62799869  1
  V  V80  1  0.62990025  0.62990864  0.00298826  1
  V  V81  1  0.50153468  0.87880455  0.37833959  1
  V  V82  1  0.49839820  0.86961687  0.88152245  1
  V  V83  1  0.50421953  0.00388867  -0.00139710  1
  V  V84  1  0.37139625  0.87379333  0.49835809  1
  Zn  Zn85  1  0.37255670  0.74920832  0.12953334  1
  Zn  Zn86  1  0.12254898  0.37504913  0.25054789  1
  Zn  Zn87  1  0.87394400  0.75141615  0.62891687  1
  Zn  Zn88  1  0.24340817  0.50551910  0.24543189  1
  Zn  Zn89  1  0.12414808  0.25032861  0.37213318  1
  Zn  Zn90  1  0.00203289  0.49167414  -0.00757680  1
  Zn  Zn91  1  0.24917053  0.24727098  0.49925327  1
  Zn  Zn92  1  0.49386508  0.74802569  0.25193571  1
  Zn  Zn93  1  -0.00003296  0.37400981  0.37142143  1
  Zn  Zn94  1  -0.00019347  0.63012310  0.62531929  1
  Zn  Zn95  1  0.37973885  0.61934658  0.73875963  1
  Zn  Zn96  1  0.85794095  0.49156519  0.34888985  1
  Zn  Zn97  1  0.37862216  0.73903911  0.61324004  1
  Zn  Zn98  1  0.36664160  0.12656527  0.23556341  1
  Zn  Zn99  1  0.61902249  0.52037430  0.62475897  1
  Zn  Zn100  1  0.49661459  0.13440709  0.11232186  1
  Zn  Zn101  1  0.75186202  0.00445342  0.75171967  1
  Zn  Zn102  1  0.87634004  0.12412310  0.75445934  1
  Zn  Zn103  1  0.00264919  0.24789892  0.75121297  1
  Zn  Zn104  1  0.49868651  0.52464960  0.50814687  1
  Zn  Zn105  1  -0.00053921  0.12324634  0.62827386  1
  Zn  Zn106  1  0.12307698  0.50097416  0.12458828  1
  Zn  Zn107  1  0.18191822  0.18882028  0.18520413  1
  Zn  Zn108  1  0.18738058  0.18639887  0.68753734  1
  Zn  Zn109  1  0.18110876  0.69476497  0.18438885  1
  Zn  Zn110  1  0.19024897  0.68586964  0.68965013  1
  Zn  Zn111  1  0.68441759  0.18688100  0.18985244  1
  Zn  Zn112  1  0.69299233  0.18879978  0.69434859  1
  Zn  Zn113  1  0.68257992  0.68737517  0.19129005  1
  Zn  Zn114  1  0.69427282  0.69099582  0.69631245  1
  Zn  Zn115  1  0.31066061  0.30915364  0.31359611  1
  Zn  Zn116  1  0.31122213  0.31079284  0.81561941  1
  Zn  Zn117  1  0.31226331  0.81240448  0.30791975  1
  Zn  Zn118  1  0.31683470  0.81068353  0.81052616  1
  Zn  Zn119  1  0.81989172  0.30561751  0.31150891  1
  Zn  Zn120  1  0.81070631  0.30708482  0.81328239  1
  Zn  Zn121  1  0.80876744  0.81221582  0.31347924  1
  Zn  Zn122  1  0.81401855  0.81473176  0.81421841  1
  Zn  Zn123  1  0.18442334  0.43835650  0.43295348  1
  Zn  Zn124  1  0.19201825  0.44205401  0.94916674  1
  Zn  Zn125  1  0.18905862  0.94002958  0.43543504  1
  Zn  Zn126  1  0.18674147  0.93816081  0.93871188  1
  Zn  Zn127  1  0.68781215  0.44397754  0.43861747  1
  Zn  Zn128  1  0.69071434  0.43302571  0.94395553  1
  Zn  Zn129  1  0.68428809  0.93685608  0.44031689  1
  Zn  Zn130  1  0.69090700  0.93835639  0.93944900  1
  Zn  Zn131  1  0.31294364  0.06066684  0.06347126  1
  Zn  Zn132  1  0.31021377  0.06049824  0.56082475  1
  Zn  Zn133  1  0.31203695  0.55990291  0.06169712  1
  Zn  Zn134  1  0.31165228  0.56259825  0.55850698  1
  Zn  Zn135  1  0.81301560  0.05583579  0.06042434  1
  Zn  Zn136  1  0.81043951  0.06347506  0.56209337  1
  Zn  Zn137  1  0.81730423  0.55524835  0.05318630  1
  Zn  Zn138  1  0.81168246  0.56376012  0.56541252  1
  Zn  Zn139  1  0.44003895  0.43774731  0.18825830  1
  Zn  Zn140  1  0.43597752  0.43342959  0.69147223  1
  Zn  Zn141  1  0.43963879  0.94121909  0.18684071  1
  Zn  Zn142  1  0.44091961  0.93200688  0.68687760  1
  Zn  Zn143  1  0.93637755  0.43541267  0.18059304  1
  Zn  Zn144  1  0.93537413  0.43808881  0.68042180  1
  Zn  Zn145  1  0.93811351  0.93650816  0.18286156  1
  Zn  Zn146  1  0.93596583  0.94050982  0.69095360  1
  Zn  Zn147  1  0.06034032  0.06380241  0.30903695  1
  Zn  Zn148  1  0.05975853  0.05982007  0.81068814  1
  Zn  Zn149  1  0.03023126  0.54382470  0.28772831  1
  Zn  Zn150  1  0.06611812  0.58600084  0.81430950  1
  Zn  Zn151  1  0.56555782  0.06417484  0.31214868  1
  Zn  Zn152  1  0.56412522  0.06416551  0.81460770  1
  Zn  Zn153  1  0.56531832  0.56045755  0.31609252  1
  Zn  Zn154  1  0.56694982  0.56185899  0.81479539  1
  Zn  Zn155  1  0.43611795  0.19007659  0.43446862  1
  Zn  Zn156  1  0.43678237  0.18437974  0.93456438  1
  Zn  Zn157  1  0.43036726  0.69078529  0.42951219  1
  Zn  Zn158  1  0.43817225  0.68744344  0.94142710  1
  Zn  Zn159  1  0.93616319  0.18637484  0.43923768  1
  Zn  Zn160  1  0.93424675  0.19155775  0.94302271  1
  Zn  Zn161  1  0.94055935  0.68948750  0.43675785  1
  Zn  Zn162  1  0.93751730  0.68934109  0.93503961  1
  Zn  Zn163  1  0.05869462  0.30915494  0.05995154  1
  Zn  Zn164  1  0.06087825  0.31203847  0.56138524  1
  Zn  Zn165  1  0.06656872  0.81245074  0.05864332  1
  Zn  Zn166  1  0.06096342  0.81231229  0.56475749  1
  Zn  Zn167  1  0.56901911  0.31828694  0.06840107  1
  Zn  Zn168  1  0.56019874  0.37652121  0.56275493  1
  Zn  Zn169  1  0.56235814  0.81268640  0.06275251  1
  Zn  Zn170  1  0.56477586  0.69297405  0.56323927  1
  O  O171  1  0.11811981  0.11838730  0.11717683  1
  O  O172  1  0.12619654  0.11534011  0.61720263  1
  O  O173  1  0.11784899  0.62693527  0.11552275  1
  O  O174  1  0.12557605  0.61762778  0.61970269  1
  O  O175  1  0.61915352  0.11191280  0.12931350  1
  O  O176  1  0.63074969  0.11556893  0.62236247  1
  O  O177  1  0.62023283  0.61776264  0.12009366  1
  O  O178  1  0.62988062  0.63109186  0.63050841  1
  O  O179  1  0.37646764  0.38142952  0.37916279  1
  O  O180  1  0.38044793  0.38012781  0.88470588  1
  O  O181  1  0.37936644  0.88535645  0.37902347  1
  O  O182  1  0.38596103  0.88358871  0.86780529  1
  O  O183  1  0.87730740  0.37836697  0.38365842  1
  O  O184  1  0.87996341  0.36355913  0.88305494  1
  O  O185  1  0.87752833  0.87998537  0.38322126  1
  O  O186  1  0.87985968  0.88019217  0.88536667  1
  O  O187  1  0.26050367  0.00959882  0.37761210  1
  O  O188  1  0.25885175  0.00218215  0.86908281  1
  O  O189  1  0.25398057  0.50999095  0.37061680  1
  O  O190  1  0.25899286  0.50423200  0.87302770  1
  O  O191  1  0.75119011  0.00480292  0.36858346  1
  O  O192  1  0.75549130  0.00944607  0.87448017  1
  O  O193  1  0.74958570  0.51965391  0.37884745  1
  O  O194  1  0.74344738  0.51174794  0.87291923  1
  O  O195  1  0.24887502  0.48894659  0.12553439  1
  O  O196  1  0.23961427  0.49347237  0.63200921  1
  O  O197  1  0.23402320  0.99351926  0.11696465  1
  O  O198  1  0.24547343  0.99068823  0.63178868  1
  O  O199  1  0.73998182  0.51036406  0.12689978  1
  O  O200  1  0.74590002  0.48713255  0.62294817  1
  O  O201  1  0.74345716  0.99333785  0.13198197  1
  O  O202  1  0.74243613  0.99530778  0.62662542  1
  O  O203  1  -0.00000044  0.35677400  0.24656825  1
  O  O204  1  0.00462218  0.37224496  0.74927375  1
  O  O205  1  0.00765771  0.86859377  0.25123305  1
  O  O206  1  0.00706557  0.87163174  0.75690332  1
  O  O207  1  0.50419569  0.36690943  0.25828211  1
  O  O208  1  0.50385075  0.36122042  0.76044885  1
  O  O209  1  0.51163265  0.88243030  0.25992450  1
  O  O210  1  0.50646739  0.86616219  0.76094995  1
  O  O211  1  0.50368209  0.14154718  0.25255484  1
  O  O212  1  0.49319851  0.13627431  0.75398217  1
  O  O213  1  0.50649545  0.62441093  0.23668881  1
  O  O214  1  0.50094868  0.63853431  0.75906863  1
  O  O215  1  1.00183751  0.13362926  0.23777292  1
  O  O216  1  0.99587602  0.12715859  0.74625261  1
  O  O217  1  1.00602432  0.64419471  0.23039082  1
  O  O218  1  0.98881253  0.63593181  0.75066606  1
  O  O219  1  0.36666084  0.25708026  -0.00822784  1
  O  O220  1  0.37150729  0.25403213  0.50868352  1
  O  O221  1  0.36264253  0.74565911  0.00817016  1
  O  O222  1  0.37839643  0.77004554  0.49699031  1
  O  O223  1  0.87811718  0.25980815  0.01530038  1
  O  O224  1  0.86924134  0.25814551  0.50496535  1
  O  O225  1  0.87220936  0.76379199  -0.00558565  1
  O  O226  1  0.86957028  0.76204529  0.50212865  1
  O  O227  1  0.12374740  0.23467789  0.50046657  1
  O  O228  1  0.13263738  0.23912185  0.99324793  1
  O  O229  1  0.11703801  0.74349514  0.49083323  1
  O  O230  1  0.13888670  0.74047754  1.00148239  1
  O  O231  1  0.63275373  0.24797167  0.49249411  1
  O  O232  1  0.61885852  0.25312950  0.98987928  1
  O  O233  1  0.63530733  0.75888371  0.49039560  1
  O  O234  1  0.62134263  0.73754680  0.99406979  1
  O  O235  1  0.50868272  0.25152925  0.14068793  1
  O  O236  1  0.48526513  0.25924912  0.63523712  1
  O  O237  1  0.50193088  0.73433355  0.12368871  1
  O  O238  1  0.50106096  0.75700694  0.64160764  1
  O  O239  1  0.99247920  0.24015512  0.13218216  1
  O  O240  1  0.98768638  0.24911214  0.62411776  1
  O  O241  1  1.00154366  0.74839921  0.13206654  1
  O  O242  1  0.99621528  0.75227288  0.63904034  1
  O  O243  1  -0.00478276  0.24483039  0.35979137  1
  O  O244  1  0.01513170  0.24564120  0.87684080  1
  O  O245  1  0.00836558  0.75588056  0.36524685  1
  O  O246  1  -0.00267858  0.76244301  0.86358143  1
  O  O247  1  0.50620987  0.25657850  0.36502260  1
  O  O248  1  0.50709629  0.25216826  0.86929395  1
  O  O249  1  0.50677374  0.76281943  0.37302844  1
  O  O250  1  0.50803452  0.75488163  0.87212337  1
  O  O251  1  0.24054903  0.12346243  0.49198115  1
  O  O252  1  0.24434845  0.12989914  0.99315663  1
  O  O253  1  0.23561764  0.62161880  0.48989630  1
  O  O254  1  0.24625352  0.63139228  0.99531001  1
  O  O255  1  0.74229905  0.13063073  0.49368199  1
  O  O256  1  0.74953768  0.11907673  0.98764415  1
  O  O257  1  0.75439342  0.63874955  0.49756735  1
  O  O258  1  0.74544924  0.62203894  0.98726021  1
  O  O259  1  0.25851048  0.36636097  0.00802853  1
  O  O260  1  0.25858009  0.37346545  0.50529290  1
  O  O261  1  0.24429342  0.86730689  0.00772889  1
  O  O262  1  0.25851404  0.88387700  0.50946879  1
  O  O263  1  0.77038397  0.37658182  -0.00179298  1
  O  O264  1  0.76006404  0.37101395  0.50595406  1
  O  O265  1  0.76129647  0.87626234  0.00786551  1
  O  O266  1  0.75589713  0.87040653  0.50593406  1
  O  O267  1  0.12411947  0.49344326  0.24359444  1
  O  O268  1  0.12477737  0.49347427  0.74896765  1
  O  O269  1  0.12013573  0.99117696  0.24083445  1
  O  O270  1  0.13053198  0.98813170  0.74520805  1
  O  O271  1  0.62321777  0.49345909  0.23922983  1
  O  O272  1  0.61684300  0.48249053  0.74824124  1
  O  O273  1  0.63367826  0.99353951  0.24471612  1
  O  O274  1  0.62335386  0.99496683  0.74274415  1
  O  O275  1  0.38178898  0.00542104  0.26318270  1
  O  O276  1  0.37483582  0.00580536  0.75475939  1
  O  O277  1  0.36988348  0.49468834  0.26165365  1
  O  O278  1  0.37311303  0.49906714  0.76377464  1
  O  O279  1  0.86118996  -0.00839567  0.25412926  1
  O  O280  1  0.87288270  -0.00151573  0.76684133  1
  O  O281  1  0.92118743  0.50958921  0.26089017  1
  O  O282  1  0.88253774  0.51433849  0.74859478  1
  O  O283  1  0.11918830  0.36776451  0.37354455  1
  O  O284  1  0.13066371  0.36857256  0.87561460  1
  O  O285  1  0.12025612  0.87259432  0.36798361  1
  O  O286  1  0.11650662  0.87999772  0.86729932  1
  O  O287  1  0.61629719  0.37307647  0.36836931  1
  O  O288  1  0.62204982  0.36705653  0.87186818  1
  O  O289  1  0.61852973  0.87087815  0.36964777  1
  O  O290  1  0.62098269  0.86784164  0.87277397  1
  O  O291  1  0.38468588  0.11728244  0.12504247  1
  O  O292  1  0.36925431  0.13154757  0.63597042  1
  O  O293  1  0.39171100  0.62018223  0.12005280  1
  O  O294  1  0.37132206  0.62677016  0.62550501  1
  O  O295  1  0.88455991  0.12648450  0.11710412  1
  O  O296  1  0.87625884  0.13348488  0.62390082  1
  O  O297  1  0.88711435  0.62906445  0.11241678  1
  O  O298  1  0.87490146  0.62869588  0.63921877  1
  O  O299  1  0.24714753  0.25282665  0.11134224  1
  O  O300  1  0.25831413  0.25641328  0.62522089  1
  O  O301  1  0.24961764  0.76233755  0.11743751  1
  O  O302  1  0.25328759  0.76225080  0.62946275  1
  O  O303  1  0.76416934  0.24129271  0.13004339  1
  O  O304  1  0.76114010  0.25418609  0.61950616  1
  O  O305  1  0.74265302  0.76341171  0.13013350  1
  O  O306  1  0.75164896  0.76163083  0.61868192  1
  O  O307  1  0.24699698  0.23930653  0.37937608  1
  O  O308  1  0.24246570  0.24405205  0.88416705  1
  O  O309  1  0.23584066  0.74743988  0.37105719  1
  O  O310  1  0.25936192  0.74190951  0.88226918  1
  O  O311  1  0.74744616  0.24162666  0.37981233  1
  O  O312  1  0.74231794  0.23571854  0.87581166  1
  O  O313  1  0.74335176  0.74312127  0.38219804  1
  O  O314  1  0.73820485  0.74499631  0.87111001  1
  O  O315  1  0.00864678  0.13029148  0.00986273  1
  O  O316  1  0.00721342  0.11605025  0.50090994  1
  O  O317  1  0.00798293  0.63195533  0.00621042  1
  O  O318  1  0.00757656  0.62047276  0.50473724  1
  O  O319  1  0.50015716  0.10910945  -0.00617991  1
  O  O320  1  0.50479870  0.11632009  0.49501316  1
  O  O321  1  0.51117268  0.61785993  0.00605815  1
  O  O322  1  0.50519175  0.63446125  0.48916163  1
  O  O323  1  0.48222523  0.36145549  0.48092948  1
  O  O324  1  0.49511562  0.37915986  0.99772115  1
  O  O325  1  0.49261645  0.89111031  0.48550046  1
  O  O326  1  0.50343777  0.88175790  0.98760288  1
  O  O327  1  0.98779886  0.38147586  0.50212748  1
  O  O328  1  0.98435900  0.37614019  1.00767344  1
  O  O329  1  0.99159860  0.87901997  0.49414929  1
  O  O330  1  0.98959375  0.86978915  0.99339372  1
  O  O331  1  0.49141794  0.49275310  0.37456611  1
  O  O332  1  0.49557974  0.49416407  0.88253167  1
  O  O333  1  0.49555596  0.99818603  0.38083881  1
  O  O334  1  0.49622290  0.99165005  0.87828744  1
  O  O335  1  1.00929760  0.49796654  0.39401477  1
  O  O336  1  1.01757962  0.49013830  0.86583662  1
  O  O337  1  0.99283085  0.99379399  0.37815317  1
  O  O338  1  0.99299062  0.98716114  0.87370972  1
  O  O339  1  0.00986839  0.00824256  0.12726350  1
  O  O340  1  0.00733350  -0.00296233  0.61758603  1
  O  O341  1  0.00106701  0.51790644  0.11735569  1
  O  O342  1  0.01267490  0.50070118  0.61803142  1
  O  O343  1  0.50980080  -0.00458247  0.11349055  1
  O  O344  1  0.50907939  -0.00500140  0.61517047  1
  O  O345  1  0.50775320  0.50884745  0.12160773  1
  O  O346  1  0.50577209  0.47373119  0.61564010  1
  O  O347  1  0.25097741  0.36778581  0.23462684  1
  O  O348  1  0.25616753  0.38179450  0.74107672  1
  O  O349  1  0.23670467  0.87368911  0.24043548  1
  O  O350  1  0.24422491  0.87741059  0.74531321  1
  O  O351  1  0.74133857  0.37478501  0.26252854  1
  O  O352  1  0.74286317  0.36990567  0.74418898  1
  O  O353  1  0.73977112  0.88053023  0.24628042  1
  O  O354  1  0.74334913  0.87714951  0.74282173  1
  O  O355  1  0.24858865  0.12989183  0.26024598  1
  O  O356  1  0.25741849  0.11682300  0.75497940  1
  O  O357  1  0.24044834  0.62768113  0.25958601  1
  O  O358  1  0.25190556  0.61638562  0.75992235  1
  O  O359  1  0.74363313  0.11421713  0.26052002  1
  O  O360  1  0.75616541  0.12270293  0.76340554  1
  O  O361  1  0.75437651  0.63318300  0.26257078  1
  O  O362  1  0.76422345  0.62836381  0.76362945  1
  O  O363  1  0.36511085  0.11961421  0.37362049  1
  O  O364  1  0.36990183  0.11717927  0.86273544  1
  O  O365  1  0.35924876  0.61834218  0.37734638  1
  O  O366  1  0.36822384  0.61518059  0.87724644  1
  O  O367  1  0.86073041  0.11669960  0.38233813  1
  O  O368  1  0.86699430  0.11930739  0.88023582  1
  O  O369  1  0.86200706  0.62849803  0.37862688  1
  O  O370  1  0.86446782  0.62585967  0.86909476  1
  O  O371  1  0.13562288  0.37501811  0.11958616  1
  O  O372  1  0.13722421  0.38072336  0.61754830  1
  O  O373  1  0.12827128  0.88317138  0.12986037  1
  O  O374  1  0.13269574  0.87937668  0.63043455  1
  O  O375  1  0.62807957  0.39066233  0.13406294  1
  O  O376  1  0.63995070  0.35770201  0.64059393  1
  O  O377  1  0.62976571  0.88127354  0.13261603  1
  O  O378  1  0.63757369  0.88940646  0.62943714  1
  O  O379  1  0.11022846  0.25054786  0.24976334  1
  O  O380  1  0.12601568  0.24675768  0.76261803  1
  O  O381  1  0.11505619  0.76182834  0.25636094  1
  O  O382  1  0.11864997  0.76173624  0.74659934  1
  O  O383  1  0.61990827  0.25967311  0.25650140  1
  O  O384  1  0.61789946  0.25392255  0.75986702  1
  O  O385  1  0.61903155  0.76000339  0.25938028  1
  O  O386  1  0.61649142  0.75681849  0.76037849  1
  O  O387  1  0.39081384  0.24840716  0.25377434  1
  O  O388  1  0.38052853  0.24131326  0.74682818  1
  O  O389  1  0.38195527  0.75715453  0.24245012  1
  O  O390  1  0.39176030  0.74717015  0.75009948  1
  O  O391  1  0.88465188  0.24743175  0.23673329  1
  O  O392  1  0.87915092  0.24822973  0.74000786  1
  O  O393  1  0.89231237  0.76075391  0.25371753  1
  O  O394  1  0.88160322  0.74578638  0.75032932  1
  O  O395  1  0.37602910  0.49120548  0.48836273  1
  O  O396  1  0.37996414  0.49125463  0.99122744  1
  O  O397  1  0.38217587  0.99626078  0.49347439  1
  O  O398  1  0.38146222  1.00111638  0.98423972  1
  O  O399  1  0.88309667  0.49344780  0.50471897  1
  O  O400  1  0.88332940  0.48654019  0.99201620  1
  O  O401  1  0.87674231  0.99011893  0.49471464  1
  O  O402  1  0.87333367  0.98810761  0.98815464  1
  O  O403  1  0.12554834  0.01269369  0.00410211  1
  O  O404  1  0.11980158  0.00721100  0.50411678  1
  O  O405  1  0.12179612  0.51516052  0.00168555  1
  O  O406  1  0.12140106  0.50783571  0.50881280  1
  O  O407  1  0.61776403  -0.00614651  0.00921194  1
  O  O408  1  0.61725788  0.00715245  0.50729239  1
  O  O409  1  0.62384160  0.50642467  0.01191442  1
  O  O410  1  0.61122033  0.47509830  0.51218293  1
  O  O411  1  0.37171717  0.37879336  0.11254076  1
  O  O412  1  0.36407101  0.36815879  0.61715700  1
  O  O413  1  0.36024624  0.88399701  0.12680111  1
  O  O414  1  0.36781432  0.87500296  0.61609529  1
  O  O415  1  0.86799955  0.36415536  0.12579305  1
  O  O416  1  0.86750495  0.36831128  0.61927819  1
  O  O417  1  0.86754575  0.87910845  0.11119885  1
  O  O418  1  0.86341528  0.87881807  0.61851578  1
  O  O419  1  0.13135833  0.12286404  0.38162496  1
  O  O420  1  0.13029891  0.12756202  0.88094023  1
  O  O421  1  0.12875266  0.63611376  0.38262062  1
  O  O422  1  0.14265908  0.62681382  0.88374208  1
  O  O423  1  0.63448623  0.13015752  0.38193008  1
  O  O424  1  0.63698502  0.13079594  0.87417251  1
  O  O425  1  0.63444114  0.63701489  0.36947406  1
  O  O426  1  0.63593331  0.62967889  0.88207564  1
