# generated using pymatgen
data_V85Zn86O256
_symmetry_space_group_name_H-M   'P 1'
_cell_length_a   16.90622191
_cell_length_b   16.89872882
_cell_length_c   16.90355238
_cell_angle_alpha   89.99801698
_cell_angle_beta   90.04841353
_cell_angle_gamma   90.02650287
_symmetry_Int_Tables_number   1
_chemical_formula_structural   V85Zn86O256
_chemical_formula_sum   'V85 Zn86 O256'
_cell_volume   4829.23549425
_cell_formula_units_Z   1
loop_
 _symmetry_equiv_pos_site_id
 _symmetry_equiv_pos_as_xyz
  1  'x, y, z'
loop_
 _atom_site_type_symbol
 _atom_site_label
 _atom_site_symmetry_multiplicity
 _atom_site_fract_x
 _atom_site_fract_y
 _atom_site_fract_z
 _atom_site_occupancy
  V  V0  1  0.50587712  0.36547383  0.37471174  1
  V  V1  1  0.86706380  0.12095844  0.25173542  1
  V  V2  1  0.62313479  0.11439976  -0.00061626  1
  V  V3  1  0.75310378  0.50803826  0.25068791  1
  V  V4  1  0.24214642  0.12105672  0.37466623  1
  V  V5  1  -0.00318023  -0.00142461  0.00042791  1
  V  V6  1  0.86311110  0.12776590  0.74562818  1
  V  V7  1  0.75009937  0.37381317  0.12586385  1
  V  V8  1  -0.00689763  0.74370160  0.25319932  1
  V  V9  1  0.87399032  0.24986956  0.12588966  1
  V  V10  1  0.37673924  0.62300044  0.75057671  1
  V  V11  1  0.50283588  0.11150765  0.12054316  1
  V  V12  1  0.62224578  0.74986485  0.38360761  1
  V  V13  1  0.25249992  0.37523507  0.62521142  1
  V  V14  1  0.12330714  0.87932193  0.74485128  1
  V  V15  1  0.63882599  0.88628989  0.74654525  1
  V  V16  1  0.74501277  0.62492610  0.38446839  1
  V  V17  1  0.37697439  0.75065041  0.12495725  1
  V  V18  1  0.75126437  0.50042697  0.75211463  1
  V  V19  1  0.11798975  0.62394492  0.49846962  1
  V  V20  1  0.25000270  0.12810598  0.88174537  1
  V  V21  1  0.62536383  0.75121117  0.87176437  1
  V  V22  1  0.37550458  0.24824941  0.11587397  1
  V  V23  1  0.50141622  0.24725490  0.74701000  1
  V  V24  1  0.37535492  0.12172699  0.25497548  1
  V  V25  1  0.87867289  0.37037519  0.50088134  1
  V  V26  1  -0.00014033  0.12449674  0.12769167  1
  V  V27  1  0.12552283  0.75107736  0.87554421  1
  V  V28  1  0.24944892  0.36922128  0.11812805  1
  V  V29  1  0.12505941  0.00006277  0.12747591  1
  V  V30  1  -0.00451022  0.87627033  0.87955031  1
  V  V31  1  0.50173725  0.11416795  0.61253022  1
  V  V32  1  0.62891999  0.50139345  0.62021495  1
  V  V33  1  0.11925821  0.49868110  0.12361334  1
  V  V34  1  0.37547706  0.12376054  0.74876066  1
  V  V35  1  0.62548098  0.62458690  -0.00011596  1
  V  V36  1  -0.00133708  0.74927761  0.74644549  1
  V  V37  1  0.75010121  0.24427621  -0.00051889  1
  V  V38  1  0.50557331  0.62722491  0.62124660  1
  V  V39  1  0.50247355  0.88094178  0.87542134  1
  V  V40  1  0.12842129  0.75239484  0.37815182  1
  V  V41  1  0.12463032  0.37592372  0.75220475  1
  V  V42  1  0.25525319  0.61896451  0.87627138  1
  V  V43  1  0.37772010  -0.00011338  0.87742792  1
  V  V44  1  0.63630393  0.00010400  0.61226044  1
  V  V45  1  0.74837536  0.88645938  0.13504662  1
  V  V46  1  0.50348237  0.50372238  0.49682794  1
  V  V47  1  0.87111080  0.00087082  0.37414928  1
  V  V48  1  0.24618147  0.87148427  0.61955312  1
  V  V49  1  0.37364028  0.74961574  0.61370385  1
  V  V50  1  0.37457905  0.62415514  0.25059964  1
  V  V51  1  0.50450635  0.75206317  0.25109238  1
  V  V52  1  0.11498267  0.62241659  0.00129746  1
  V  V53  1  0.37593850  0.37417209  0.49670862  1
  V  V54  1  0.49748241  0.88933956  0.37767951  1
  V  V55  1  0.37985332  0.87657363  -0.00154216  1
  V  V56  1  0.75595572  0.36906838  0.62490312  1
  V  V57  1  0.00101966  0.24828797  0.26023918  1
  V  V58  1  0.73868753  0.24729726  0.49637042  1
  V  V59  1  0.49437780  0.37817207  0.87230956  1
  V  V60  1  0.12858973  0.37125534  0.25560736  1
  V  V61  1  0.25034970  0.74911556  -0.00018864  1
  V  V62  1  0.86614836  0.75175761  0.62512310  1
  V  V63  1  0.62504202  0.49860884  0.12472507  1
  V  V64  1  0.86383187  0.87739098  0.50396845  1
  V  V65  1  0.75266348  0.75834873  0.00247340  1
  V  V66  1  0.49117290  0.49962395  -0.00340410  1
  V  V67  1  0.25000024  0.87535877  0.12586859  1
  V  V68  1  0.11903038  0.50008350  0.62113408  1
  V  V69  1  0.25275160  0.62663414  0.38335072  1
  V  V70  1  0.88050023  0.50660415  0.37698018  1
  V  V71  1  0.62886401  0.24547939  0.87447406  1
  V  V72  1  0.73696205  0.12796345  0.37589793  1
  V  V73  1  0.87965636  0.37950238  0.00076356  1
  V  V74  1  0.37513118  0.89098538  0.49585693  1
  V  V75  1  0.24628792  0.00084728  0.74533660  1
  V  V76  1  -0.00257146  0.24823852  0.74661576  1
  V  V77  1  0.87295206  0.74743965  0.12521029  1
  V  V78  1  0.24039407  0.25249365  0.49228341  1
  V  V79  1  0.12789214  0.25195966  0.88350871  1
  V  V80  1  0.00395725  0.37742491  0.38121236  1
  V  V81  1  0.86616682  0.00627156  0.87169581  1
  V  V82  1  0.00490243  -0.00135262  0.50870733  1
  V  V83  1  0.88390239  0.50252585  0.87788390  1
  V  V84  1  0.62788343  0.36390695  0.25253060  1
  Zn  Zn85  1  -0.00133369  0.87669949  0.37402663  1
  Zn  Zn86  1  0.25119230  0.49898110  0.25038397  1
  Zn  Zn87  1  0.75142827  0.62493096  0.87519890  1
  Zn  Zn88  1  0.12216163  0.12575053  0.50486409  1
  Zn  Zn89  1  0.00542801  0.12267530  0.62979016  1
  Zn  Zn90  1  0.62566750  0.37391874  0.74952995  1
  Zn  Zn91  1  0.50306752  0.24741348  0.24780520  1
  Zn  Zn92  1  0.37627480  0.24783656  0.62254494  1
  Zn  Zn93  1  -0.00931029  0.61777988  0.12724766  1
  Zn  Zn94  1  -0.00297430  0.62273402  0.62055499  1
  Zn  Zn95  1  0.87544774  0.62490006  0.74905568  1
  Zn  Zn96  1  0.50153947  0.75383915  0.74557703  1
  Zn  Zn97  1  0.25221648  -0.00441825  0.25666533  1
  Zn  Zn98  1  0.50019236  0.62435342  0.12573344  1
  Zn  Zn99  1  0.62366069  0.89082340  0.24869675  1
  Zn  Zn100  1  0.25554209  0.49815226  0.75309636  1
  Zn  Zn101  1  0.74349634  0.74988187  0.50552732  1
  Zn  Zn102  1  0.00255074  0.37736544  0.88034503  1
  Zn  Zn103  1  0.12787191  0.12964514  0.00400006  1
  Zn  Zn104  1  0.37695477  0.49849333  0.37137284  1
  Zn  Zn105  1  0.36980164  0.37436920  -0.00642157  1
  Zn  Zn106  1  0.12251170  0.87344174  0.25088337  1
  Zn  Zn107  1  0.18821237  0.18975873  0.18988137  1
  Zn  Zn108  1  0.18389665  0.18921188  0.68553518  1
  Zn  Zn109  1  0.18569309  0.68706174  0.19112287  1
  Zn  Zn110  1  0.18838420  0.68934391  0.68634592  1
  Zn  Zn111  1  0.68658817  0.06824164  0.18710918  1
  Zn  Zn112  1  0.68538163  0.18543239  0.68107686  1
  Zn  Zn113  1  0.68680594  0.68820361  0.18987016  1
  Zn  Zn114  1  0.68586370  0.68666851  0.68956476  1
  Zn  Zn115  1  0.31495046  0.30670171  0.30942695  1
  Zn  Zn116  1  0.31384004  0.30971837  0.81111775  1
  Zn  Zn117  1  0.31315209  0.81098948  0.31436314  1
  Zn  Zn118  1  0.31417845  0.80801387  0.80750868  1
  Zn  Zn119  1  0.81318996  0.31289118  0.31480687  1
  Zn  Zn120  1  0.81333324  0.31233469  0.81435989  1
  Zn  Zn121  1  0.81241552  0.81199602  0.31400984  1
  Zn  Zn122  1  0.81407010  0.81496184  0.81438251  1
  Zn  Zn123  1  0.18871036  0.44261901  0.43632400  1
  Zn  Zn124  1  0.18714307  0.44123107  0.93962764  1
  Zn  Zn125  1  0.18845774  0.93676326  0.43845341  1
  Zn  Zn126  1  0.18569798  0.93937589  0.93803027  1
  Zn  Zn127  1  0.68908704  0.43570336  0.43756988  1
  Zn  Zn128  1  0.68682739  0.43304825  0.93596432  1
  Zn  Zn129  1  0.68660246  0.93924103  0.43044866  1
  Zn  Zn130  1  0.68959438  0.93452709  0.93972756  1
  Zn  Zn131  1  0.31478691  0.06118797  0.06313134  1
  Zn  Zn132  1  0.30811072  0.06432095  0.56398355  1
  Zn  Zn133  1  0.30766764  0.56109339  0.06637507  1
  Zn  Zn134  1  0.31210322  0.56032928  0.56201561  1
  Zn  Zn135  1  0.81689914  0.06369744  0.05549143  1
  Zn  Zn136  1  0.81565968  0.06726290  0.56265838  1
  Zn  Zn137  1  0.81100102  0.56540749  0.06142471  1
  Zn  Zn138  1  0.81732585  0.56084642  0.56075010  1
  Zn  Zn139  1  0.43904008  0.43583968  0.18538348  1
  Zn  Zn140  1  0.43844867  0.43921708  0.68665024  1
  Zn  Zn141  1  0.43771533  0.93939896  0.19108860  1
  Zn  Zn142  1  0.43876249  0.93666060  0.68857168  1
  Zn  Zn143  1  0.93763303  0.43707648  0.19270556  1
  Zn  Zn144  1  0.93783964  0.43595640  0.69017895  1
  Zn  Zn145  1  0.93352632  0.93132108  0.18899925  1
  Zn  Zn146  1  0.93004215  0.93710115  0.68911300  1
  Zn  Zn147  1  0.06103737  0.06071744  0.31651752  1
  Zn  Zn148  1  0.06234278  0.06460029  0.81191388  1
  Zn  Zn149  1  0.06388886  0.56107052  0.31125580  1
  Zn  Zn150  1  0.06536277  0.56293653  0.81157244  1
  Zn  Zn151  1  0.55767221  0.06667385  0.31590715  1
  Zn  Zn152  1  0.56484171  0.06333797  0.81067281  1
  Zn  Zn153  1  0.56507103  0.56125069  0.31230264  1
  Zn  Zn154  1  0.56308812  0.56241714  0.80984205  1
  Zn  Zn155  1  0.43225355  0.18743795  0.43607384  1
  Zn  Zn156  1  0.44005937  0.18753761  0.93754068  1
  Zn  Zn157  1  0.43892278  0.69030682  0.43722910  1
  Zn  Zn158  1  0.44059972  0.68926258  0.93579979  1
  Zn  Zn159  1  0.93347863  0.18674520  0.44098159  1
  Zn  Zn160  1  0.94039720  0.18685949  0.93466937  1
  Zn  Zn161  1  0.93553790  0.68833173  0.43837131  1
  Zn  Zn162  1  0.93414458  0.68991656  0.93791891  1
  Zn  Zn163  1  0.06050605  0.31214935  0.06648317  1
  Zn  Zn164  1  0.06199878  0.31171098  0.56508294  1
  Zn  Zn165  1  0.06012307  0.81125497  0.06429683  1
  Zn  Zn166  1  0.05793531  0.81366193  0.55963461  1
  Zn  Zn167  1  0.56120160  0.30930832  0.06242655  1
  Zn  Zn168  1  0.56452762  0.31355399  0.56475068  1
  Zn  Zn169  1  0.56571560  0.81697125  0.06279944  1
  Zn  Zn170  1  0.56077153  0.82071008  0.56234241  1
  O  O171  1  0.11994642  0.11769523  0.12561257  1
  O  O172  1  0.12068078  0.12659340  0.62011209  1
  O  O173  1  0.12611362  0.61678765  0.11815510  1
  O  O174  1  0.12719533  0.61886607  0.61679239  1
  O  O175  1  0.61092636  0.12575163  0.11663836  1
  O  O176  1  0.61288090  0.11132733  0.62803214  1
  O  O177  1  0.62324956  0.61961330  0.11658649  1
  O  O178  1  0.61374799  0.61892983  0.62711480  1
  O  O179  1  0.38215045  0.37679153  0.38044042  1
  O  O180  1  0.38820954  0.37074462  0.87510715  1
  O  O181  1  0.37815114  0.87142343  0.38864294  1
  O  O182  1  0.38198599  0.87964859  0.87586645  1
  O  O183  1  0.88384550  0.38228591  0.38074329  1
  O  O184  1  0.87605661  0.38356279  0.88359620  1
  O  O185  1  0.87444432  0.88410271  0.38133471  1
  O  O186  1  0.88846909  0.88804956  0.86646721  1
  O  O187  1  0.24803034  0.01495375  0.37550224  1
  O  O188  1  0.25413155  0.00404878  0.86435936  1
  O  O189  1  0.25576522  0.51016024  0.37025032  1
  O  O190  1  0.24968211  0.51457648  0.87450191  1
  O  O191  1  0.76232352  0.01225537  0.38264145  1
  O  O192  1  0.76840346  -0.00528854  0.88118482  1
  O  O193  1  0.75412561  0.50650588  0.36960654  1
  O  O194  1  0.75529408  0.49817782  0.86618341  1
  O  O195  1  0.23878490  0.49185234  0.13001803  1
  O  O196  1  0.24221792  0.48895600  0.62586295  1
  O  O197  1  0.24110022  0.99266747  0.12407253  1
  O  O198  1  0.25510473  0.98944896  0.63805235  1
  O  O199  1  0.74664819  0.49525525  0.13234902  1
  O  O200  1  0.74509423  0.49548894  0.62978875  1
  O  O201  1  0.75611457  0.99047192  0.12257469  1
  O  O202  1  0.73570289  1.00740276  0.62115715  1
  O  O203  1  0.00589526  0.36737655  0.26033696  1
  O  O204  1  0.00847633  0.36975257  0.75555201  1
  O  O205  1  0.00178971  0.86077306  0.25246037  1
  O  O206  1  0.00628697  0.86811798  0.75435668  1
  O  O207  1  0.50848221  0.37616402  0.25812445  1
  O  O208  1  0.50168324  0.36749337  0.75335238  1
  O  O209  1  0.49703485  0.86762618  0.25856850  1
  O  O210  1  0.50672887  0.87349063  0.76088787  1
  O  O211  1  0.49210666  0.12726918  0.23885906  1
  O  O212  1  0.49494219  0.13117063  0.74302542  1
  O  O213  1  0.49296040  0.63247562  0.24971295  1
  O  O214  1  0.49487346  0.62793877  0.74042883  1
  O  O215  1  0.99395328  0.13217072  0.24841708  1
  O  O216  1  0.99395735  0.13332949  0.75156511  1
  O  O217  1  1.00512573  0.63909977  0.24722231  1
  O  O218  1  1.00286295  0.64017296  0.75029471  1
  O  O219  1  0.37716345  0.25185149  0.01068477  1
  O  O220  1  0.36772542  0.26196224  0.50232968  1
  O  O221  1  0.37073146  0.75602460  0.00427879  1
  O  O222  1  0.37511706  0.75426849  0.51045892  1
  O  O223  1  0.86852210  0.25379622  0.00253455  1
  O  O224  1  0.86746120  0.26468494  0.49759272  1
  O  O225  1  0.86371687  0.74879857  0.00767357  1
  O  O226  1  0.87389177  0.75847047  0.50808743  1
  O  O227  1  0.13734548  0.25324405  0.50024433  1
  O  O228  1  0.12085551  0.25092890  0.98815826  1
  O  O229  1  0.11962974  0.74334800  0.48652428  1
  O  O230  1  0.13119236  0.74406649  0.99617849  1
  O  O231  1  0.63943929  0.25573565  0.49895449  1
  O  O232  1  0.63219762  0.24486673  0.99333800  1
  O  O233  1  0.62421925  0.75668109  0.48857824  1
  O  O234  1  0.62918941  0.74352298  0.99269918  1
  O  O235  1  0.49097682  0.24344086  0.12679690  1
  O  O236  1  0.50328868  0.24211668  0.63433504  1
  O  O237  1  0.49510044  0.75097837  0.13272286  1
  O  O238  1  0.49541354  0.74217355  0.62293038  1
  O  O239  1  0.99393921  0.24526756  0.13678099  1
  O  O240  1  1.00146565  0.25328157  0.64244035  1
  O  O241  1  0.99172730  0.74974274  0.13493181  1
  O  O242  1  0.99126948  0.74908683  0.63250519  1
  O  O243  1  -0.00525264  0.25666923  0.36611890  1
  O  O244  1  0.01059417  0.25267785  0.86680522  1
  O  O245  1  0.00356883  0.74999617  0.36575035  1
  O  O246  1  0.00275437  0.75871814  0.86917607  1
  O  O247  1  0.49649641  0.26171014  0.37232102  1
  O  O248  1  0.50465049  0.25424509  0.86350072  1
  O  O249  1  0.50546300  0.75595636  0.36860833  1
  O  O250  1  0.51324562  0.75707903  0.87249395  1
  O  O251  1  0.25137752  0.13376731  0.49058040  1
  O  O252  1  0.24803619  0.11821773  0.98565959  1
  O  O253  1  0.24341494  0.62173634  0.48939750  1
  O  O254  1  0.24523881  0.63082402  0.99398032  1
  O  O255  1  0.75709696  0.14062027  0.49366011  1
  O  O256  1  0.74207633  0.13725253  1.00669231  1
  O  O257  1  0.75081215  0.62610650  0.48850356  1
  O  O258  1  0.73770344  0.63428166  0.99826462  1
  O  O259  1  0.25194002  0.38027217  0.01287955  1
  O  O260  1  0.25707419  0.37162508  0.50292758  1
  O  O261  1  0.25488138  0.87041855  0.00855530  1
  O  O262  1  0.26082335  0.87860788  0.50817570  1
  O  O263  1  0.75799158  0.36706232  0.00519894  1
  O  O264  1  0.75623071  0.36653337  0.50482453  1
  O  O265  1  0.74492418  0.86391511  0.01179440  1
  O  O266  1  0.76053139  0.87189195  0.49434458  1
  O  O267  1  0.12677275  0.48756835  0.24428399  1
  O  O268  1  0.12995881  0.48953530  0.74640390  1
  O  O269  1  0.12464160  0.99711938  0.23888144  1
  O  O270  1  0.13092193  0.98748822  0.75541403  1
  O  O271  1  0.63273640  0.49413999  0.24193227  1
  O  O272  1  0.63203915  0.49728098  0.73901248  1
  O  O273  1  0.62279665  1.00341548  0.25050046  1
  O  O274  1  0.62509614  0.99032552  0.74489036  1
  O  O275  1  0.36857641  0.01618255  0.24125596  1
  O  O276  1  0.36671331  0.00179200  0.75906307  1
  O  O277  1  0.37715826  0.51339969  0.24822025  1
  O  O278  1  0.37391356  0.51693265  0.74245972  1
  O  O279  1  0.88212151  0.01016834  0.25891846  1
  O  O280  1  0.87991105  0.01241911  0.76213605  1
  O  O281  1  0.86405030  0.49362526  0.26171895  1
  O  O282  1  0.86842855  0.50129395  0.75850908  1
  O  O283  1  0.11707507  0.38115191  0.36836395  1
  O  O284  1  0.12669404  0.37114855  0.86956990  1
  O  O285  1  0.12431624  0.86621583  0.37284062  1
  O  O286  1  0.11707864  0.87029746  0.86825668  1
  O  O287  1  0.61755576  0.38130461  0.36578375  1
  O  O288  1  0.61412274  0.36309251  0.87310984  1
  O  O289  1  0.61547807  0.86846574  0.37048494  1
  O  O290  1  0.62094002  0.87301754  0.86657042  1
  O  O291  1  0.38307344  0.13021992  0.12583333  1
  O  O292  1  0.38439798  0.12456416  0.63045841  1
  O  O293  1  0.37552892  0.63273011  0.13229530  1
  O  O294  1  0.38256579  0.63095928  0.62670971  1
  O  O295  1  0.88019839  0.12861446  0.13293731  1
  O  O296  1  0.88158698  0.12092698  0.64237741  1
  O  O297  1  0.87444192  0.63863721  0.12246812  1
  O  O298  1  0.87948904  0.63220408  0.62706446  1
  O  O299  1  0.25808015  0.25757070  0.12706848  1
  O  O300  1  0.25204792  0.26300270  0.61829109  1
  O  O301  1  0.25497640  0.75676072  0.12130424  1
  O  O302  1  0.25855362  0.76310332  0.62973895  1
  O  O303  1  0.75983161  0.25988261  0.11530969  1
  O  O304  1  0.74777896  0.25812368  0.61361531  1
  O  O305  1  0.75478502  0.75389313  0.12129607  1
  O  O306  1  0.76094482  0.74451392  0.62471685  1
  O  O307  1  0.25372491  0.23956393  0.38223977  1
  O  O308  1  0.24227329  0.23989943  0.86914804  1
  O  O309  1  0.24033792  0.74030233  0.36997713  1
  O  O310  1  0.24437143  0.74377907  0.87921366  1
  O  O311  1  0.75431787  0.24455765  0.38705538  1
  O  O312  1  0.74002717  0.25667973  0.88506668  1
  O  O313  1  0.74110375  0.74154681  0.37399737  1
  O  O314  1  0.74128823  0.75289306  0.88300838  1
  O  O315  1  0.00304007  0.11799450  0.00885203  1
  O  O316  1  -0.00317742  0.11193557  0.50251513  1
  O  O317  1  0.01208049  0.63233153  0.00346342  1
  O  O318  1  0.01331814  0.62583034  0.49965441  1
  O  O319  1  0.50752674  0.12913351  0.01155604  1
  O  O320  1  0.49501564  0.13084013  0.51463779  1
  O  O321  1  0.51022350  0.61916661  -0.00100469  1
  O  O322  1  0.49449437  0.61203314  0.50577494  1
  O  O323  1  0.49534803  0.38069709  0.49503942  1
  O  O324  1  0.49916066  0.38292345  0.99128121  1
  O  O325  1  0.48415275  0.87203518  0.49256450  1
  O  O326  1  0.49700045  0.87100456  0.98523454  1
  O  O327  1  0.99569907  0.36994789  0.48981199  1
  O  O328  1  0.98437049  0.36996830  1.00097852  1
  O  O329  1  0.98954645  0.88493090  0.49632245  1
  O  O330  1  1.00496711  0.88274138  0.99014754  1
  O  O331  1  0.49980362  0.49283489  0.38337690  1
  O  O332  1  0.50804513  0.49045279  0.88233339  1
  O  O333  1  0.49645387  0.98889212  0.37445065  1
  O  O334  1  0.48980527  0.99404604  0.86968464  1
  O  O335  1  0.99108476  0.49156062  0.36924108  1
  O  O336  1  0.98824792  0.49972102  0.87197549  1
  O  O337  1  0.98785202  1.00000971  0.38441455  1
  O  O338  1  0.99856196  0.99445181  0.88297020  1
  O  O339  1  0.00375882  0.00088376  0.11908907  1
  O  O340  1  -0.00471567  -0.00360225  0.61169463  1
  O  O341  1  0.01282527  0.50029045  0.13197648  1
  O  O342  1  0.01454007  0.50225138  0.63289837  1
  O  O343  1  0.49401778  0.01236715  0.12027174  1
  O  O344  1  0.50450346  0.01057618  0.62742107  1
  O  O345  1  0.50814812  0.50048981  0.11523097  1
  O  O346  1  0.50874855  0.50523035  0.61795846  1
  O  O347  1  0.24315490  0.37401503  0.24319306  1
  O  O348  1  0.24545777  0.37603902  0.74240834  1
  O  O349  1  0.25102172  0.87545828  0.23790777  1
  O  O350  1  0.24278091  0.88021512  0.74441191  1
  O  O351  1  0.74505665  0.38290664  0.24675810  1
  O  O352  1  0.75140847  0.38286213  0.74191498  1
  O  O353  1  0.74793392  0.87309027  0.23836753  1
  O  O354  1  0.73711351  0.87624949  0.75292399  1
  O  O355  1  0.25323716  0.12534900  0.26168421  1
  O  O356  1  0.25473102  0.11728815  0.75568661  1
  O  O357  1  0.25928298  0.62512276  0.25844053  1
  O  O358  1  0.25701541  0.62610747  0.75797829  1
  O  O359  1  0.76133193  0.12867111  0.25605137  1
  O  O360  1  0.76383556  0.13235950  0.74832941  1
  O  O361  1  0.74550402  0.61298808  0.25866900  1
  O  O362  1  0.75028832  0.61190994  0.75215683  1
  O  O363  1  0.36483611  0.12883688  0.36463578  1
  O  O364  1  0.37001857  0.11855109  0.87029204  1
  O  O365  1  0.36935211  0.62560986  0.36896240  1
  O  O366  1  0.36745979  0.63493998  0.86471618  1
  O  O367  1  0.86856521  0.12040920  0.36804434  1
  O  O368  1  0.87867840  0.11307822  0.86755189  1
  O  O369  1  0.86769502  0.61325104  0.38033461  1
  O  O370  1  0.87120509  0.61767692  0.87338549  1
  O  O371  1  0.13065290  0.37917610  0.13090193  1
  O  O372  1  0.13156317  0.38094071  0.63178864  1
  O  O373  1  0.13345588  0.88090604  0.12539309  1
  O  O374  1  0.13328081  0.86855078  0.63196078  1
  O  O375  1  0.63131672  0.38021468  0.12890227  1
  O  O376  1  0.63731672  0.38281294  0.62677574  1
  O  O377  1  0.64227354  0.87126365  0.12864560  1
  O  O378  1  0.61932073  0.88692771  0.63764605  1
  O  O379  1  0.11564086  0.26239725  0.24665582  1
  O  O380  1  0.12158091  0.26181681  0.75872817  1
  O  O381  1  0.11559189  0.75003384  0.26051488  1
  O  O382  1  0.11909782  0.75970774  0.75463124  1
  O  O383  1  0.62454342  0.26501792  0.24604853  1
  O  O384  1  0.61945500  0.24958954  0.75602031  1
  O  O385  1  0.61286958  0.75111055  0.25668312  1
  O  O386  1  0.62514565  0.76130012  0.75628889  1
  O  O387  1  0.37693307  0.23829276  0.23741161  1
  O  O388  1  0.38383757  0.24257173  0.74542910  1
  O  O389  1  0.38455125  0.74196760  0.24727288  1
  O  O390  1  0.37880350  0.74115723  0.73642093  1
  O  O391  1  0.88165343  0.24379460  0.24598089  1
  O  O392  1  0.88319749  0.23704246  0.76148347  1
  O  O393  1  0.88598402  0.74989557  0.24606268  1
  O  O394  1  0.88178218  0.75035422  0.74454737  1
  O  O395  1  0.38371857  0.48893503  0.49961117  1
  O  O396  1  0.38817298  0.50115666  1.00486312  1
  O  O397  1  0.37385039  0.98928571  0.50352882  1
  O  O398  1  0.36853036  0.99245756  0.98516873  1
  O  O399  1  0.86922161  0.48558186  0.48854991  1
  O  O400  1  0.86711340  0.49216296  0.99123159  1
  O  O401  1  0.88071343  0.99463981  0.49566991  1
  O  O402  1  0.88851788  1.00438001  0.98777253  1
  O  O403  1  0.11590908  0.00173093  0.01079497  1
  O  O404  1  0.10749608  -0.00189680  0.49506923  1
  O  O405  1  0.12647847  0.51012259  0.00912135  1
  O  O406  1  0.12875552  0.50880416  0.50969272  1
  O  O407  1  0.62912690  0.01483291  -0.00812749  1
  O  O408  1  0.62311662  -0.01071458  0.51369929  1
  O  O409  1  0.62187063  0.50711297  0.00413607  1
  O  O410  1  0.61874447  0.49539169  0.51151412  1
  O  O411  1  0.36713937  0.36690379  0.12476281  1
  O  O412  1  0.36873284  0.37523357  0.61699436  1
  O  O413  1  0.36974135  0.87163400  0.11909539  1
  O  O414  1  0.37133620  0.86965266  0.61599506  1
  O  O415  1  0.87063694  0.37207541  0.12000617  1
  O  O416  1  0.86456439  0.38271035  0.61733251  1
  O  O417  1  0.86023385  0.86301676  0.12840557  1
  O  O418  1  0.87588817  0.86604262  0.61746199  1
  O  O419  1  0.13726006  0.12563734  0.37930804  1
  O  O420  1  0.13332180  0.13364728  0.87555145  1
  O  O421  1  0.13233839  0.62774020  0.38110673  1
  O  O422  1  0.13181614  0.63075427  0.88230253  1
  O  O423  1  0.63732481  0.12641458  0.37437358  1
  O  O424  1  0.61731441  0.13748592  0.88257366  1
  O  O425  1  0.63233189  0.63478735  0.37204524  1
  O  O426  1  0.62661986  0.63445130  0.87965616  1
