# generated using pymatgen
data_V85Zn86O256
_symmetry_space_group_name_H-M   'P 1'
_cell_length_a   16.94271229
_cell_length_b   16.93170936
_cell_length_c   16.94763933
_cell_angle_alpha   90.00802677
_cell_angle_beta   89.99304920
_cell_angle_gamma   90.01082000
_symmetry_Int_Tables_number   1
_chemical_formula_structural   V85Zn86O256
_chemical_formula_sum   'V85 Zn86 O256'
_cell_volume   4861.75353829
_cell_formula_units_Z   1
loop_
 _symmetry_equiv_pos_site_id
 _symmetry_equiv_pos_as_xyz
  1  'x, y, z'
loop_
 _atom_site_type_symbol
 _atom_site_label
 _atom_site_symmetry_multiplicity
 _atom_site_fract_x
 _atom_site_fract_y
 _atom_site_fract_z
 _atom_site_occupancy
  V  V0  1  0.62235862  0.49856717  0.62464418  1
  V  V1  1  0.37396138  0.24851814  0.12328845  1
  V  V2  1  0.37412459  0.50818035  0.87001191  1
  V  V3  1  0.75122011  0.01638086  0.25456010  1
  V  V4  1  0.74940055  0.49476472  0.75158367  1
  V  V5  1  0.74306564  0.88030757  0.62445651  1
  V  V6  1  0.24912279  0.75322167  0.50525531  1
  V  V7  1  0.63566853  0.12456692  0.50349964  1
  V  V8  1  0.00439675  0.49458659  -0.00252786  1
  V  V9  1  0.24845852  0.75000786  0.00416227  1
  V  V10  1  0.13891407  -0.00491545  0.12671899  1
  V  V11  1  0.50030861  0.00300030  0.50435458  1
  V  V12  1  0.87506509  0.74997671  0.12407813  1
  V  V13  1  0.87190154  0.01290165  0.37161275  1
  V  V14  1  0.62673324  0.36940726  0.75079943  1
  V  V15  1  0.11999106  0.37556474  0.76392349  1
  V  V16  1  0.48794904  0.25003233  0.74640497  1
  V  V17  1  0.00644090  0.87390812  0.87298335  1
  V  V18  1  0.88126159  0.49803375  0.87621803  1
  V  V19  1  0.62757875  0.37322197  0.24585615  1
  V  V20  1  0.87208975  0.37688789  0.00801895  1
  V  V21  1  0.74544732  0.25418896  0.00744456  1
  V  V22  1  0.12918988  0.50161213  0.13323430  1
  V  V23  1  0.00266144  0.12428396  0.62871341  1
  V  V24  1  0.87485591  0.62519905  0.24926440  1
  V  V25  1  0.36519767  0.62243553  0.24474473  1
  V  V26  1  0.86835474  0.37241361  0.49763813  1
  V  V27  1  0.87492672  0.24844740  0.62258199  1
  V  V28  1  0.49773185  0.37268037  0.37586608  1
  V  V29  1  0.63691688  0.24466609  0.37915436  1
  V  V30  1  0.50138674  0.87866949  0.37817982  1
  V  V31  1  0.37586468  0.88063349  0.00456591  1
  V  V32  1  0.00666461  0.36683915  0.37410392  1
  V  V33  1  0.74840989  0.74937348  0.49988487  1
  V  V34  1  -0.00060423  0.49861256  0.49821582  1
  V  V35  1  0.87266281  0.12649556  0.75100619  1
  V  V36  1  0.38649885  0.74944619  0.12234972  1
  V  V37  1  0.87826782  -0.00105029  0.87767395  1
  V  V38  1  0.37236199  -0.00180406  0.86087344  1
  V  V39  1  0.24161807  0.24878825  -0.00611730  1
  V  V40  1  0.75009735  0.62374624  0.37395757  1
  V  V41  1  0.87117461  0.62310150  0.75009313  1
  V  V42  1  0.39031800  0.74034437  0.62260329  1
  V  V43  1  0.74643065  0.75024949  -0.00311581  1
  V  V44  1  0.62119237  0.62374610  0.50488954  1
  V  V45  1  0.62270272  0.24468159  0.87848831  1
  V  V46  1  0.62449466  0.49939874  0.12385200  1
  V  V47  1  0.25464687  0.24837771  0.49234866  1
  V  V48  1  -0.00120467  0.75317700  0.74869236  1
  V  V49  1  0.50348791  0.73129837  0.75379626  1
  V  V50  1  0.74833227  0.36607828  0.62343979  1
  V  V51  1  0.49652549  0.50141210  0.50299458  1
  V  V52  1  0.62920446  0.87690297  0.24856997  1
  V  V53  1  0.12691075  0.50149622  0.62651487  1
  V  V54  1  -0.00562077  0.11459001  0.13049504  1
  V  V55  1  0.14077421  -0.00826852  0.63492590  1
  V  V56  1  0.24602631  0.12214554  0.86756284  1
  V  V57  1  0.87093498  0.74964536  0.62303977  1
  V  V58  1  0.12276653  0.13220100  0.49371757  1
  V  V59  1  0.37323708  0.37412143  -0.00202778  1
  V  V60  1  0.74343497  0.62515698  0.87593001  1
  V  V61  1  0.61920414  0.62926136  0.00338499  1
  V  V62  1  0.49795093  0.24388357  0.25065953  1
  V  V63  1  0.62541218  0.74943046  0.37554047  1
  V  V64  1  0.11518114  0.12029208  -0.00595617  1
  V  V65  1  -0.00027579  0.00080020  0.50263788  1
  V  V66  1  0.36643302  0.49895707  0.37121035  1
  V  V67  1  0.74615774  0.12285747  0.88652449  1
  V  V68  1  0.74181084  0.00235645  0.74783754  1
  V  V69  1  0.87628592  0.24896865  0.13118687  1
  V  V70  1  0.87810625  0.87705238  0.00008598  1
  V  V71  1  -0.00290212  0.62374083  0.62344433  1
  V  V72  1  0.87361933  0.87622985  0.49721656  1
  V  V73  1  0.75081141  0.49686418  0.24423443  1
  V  V74  1  0.62151237  0.87241811  0.75601779  1
  V  V75  1  0.36504632  0.11421914  0.24715500  1
  V  V76  1  0.49246662  0.12927040  0.62159971  1
  V  V77  1  0.62425776  0.00692087  0.11708789  1
  V  V78  1  0.50558602  0.73829894  0.24781304  1
  V  V79  1  0.00614568  0.62513379  0.12326337  1
  V  V80  1  0.24925402  0.37828330  0.13135769  1
  V  V81  1  0.25243529  0.36806404  0.62729919  1
  V  V82  1  0.49769997  0.50011658  0.00606353  1
  V  V83  1  0.00656298  0.87720184  0.37191843  1
  V  V84  1  0.00556801  0.75415731  0.25024842  1
  Zn  Zn85  1  0.12707314  0.62481133  0.49735037  1
  Zn  Zn86  1  0.36533988  -0.00197235  0.37531563  1
  Zn  Zn87  1  0.12468871  0.62996223  -0.00774285  1
  Zn  Zn88  1  0.13228577  0.37020050  0.25555224  1
  Zn  Zn89  1  0.01033491  0.24995797  0.76765252  1
  Zn  Zn90  1  0.50182567  0.00778620  -0.00835257  1
  Zn  Zn91  1  0.87477122  0.49795562  0.37269163  1
  Zn  Zn92  1  0.49890513  0.37194710  0.87556244  1
  Zn  Zn93  1  0.75083069  0.87690560  0.12579419  1
  Zn  Zn94  1  0.00465025  0.24507352  0.25165224  1
  Zn  Zn95  1  0.37059509  0.87946062  0.51001052  1
  Zn  Zn96  1  0.25540419  0.50854403  0.74273086  1
  Zn  Zn97  1  0.15279433  0.76489570  0.84618020  1
  Zn  Zn98  1  0.37725993  0.37014735  0.50784550  1
  Zn  Zn99  1  0.24511234  0.62233934  0.37414496  1
  Zn  Zn100  1  0.12983798  0.75092499  0.37615102  1
  Zn  Zn101  1  0.36364296  0.12610458  0.74098473  1
  Zn  Zn102  1  0.24912841  0.62789813  0.87052489  1
  Zn  Zn103  1  0.23900626  0.12008918  0.36618336  1
  Zn  Zn104  1  0.20536304  0.94033134  0.28024601  1
  Zn  Zn105  1  0.50204365  0.12659361  0.11724540  1
  Zn  Zn106  1  0.50315318  0.87304881  0.87398461  1
  Zn  Zn107  1  0.18151875  0.19044992  0.18241988  1
  Zn  Zn108  1  0.18301983  0.19273262  0.68411046  1
  Zn  Zn109  1  0.21303047  0.74577824  0.20808232  1
  Zn  Zn110  1  0.21342464  0.71363738  0.70390159  1
  Zn  Zn111  1  0.68806252  0.18831151  0.18817315  1
  Zn  Zn112  1  0.68438764  0.18592500  0.68610861  1
  Zn  Zn113  1  0.68731306  0.68584018  0.18314520  1
  Zn  Zn114  1  0.68303946  0.68783385  0.68762127  1
  Zn  Zn115  1  0.31258246  0.30693056  0.31398181  1
  Zn  Zn116  1  0.30554438  0.31646180  0.81415961  1
  Zn  Zn117  1  0.32346391  0.80583246  0.32355416  1
  Zn  Zn118  1  0.32378952  0.81247551  0.80909284  1
  Zn  Zn119  1  0.81389647  0.31329228  0.31140110  1
  Zn  Zn120  1  0.84146234  0.29732749  0.83061147  1
  Zn  Zn121  1  0.81604549  0.81640491  0.31302567  1
  Zn  Zn122  1  0.81181835  0.81217986  0.81283854  1
  Zn  Zn123  1  0.18729054  0.43526387  0.44200989  1
  Zn  Zn124  1  0.18988474  0.44198735  0.94253903  1
  Zn  Zn125  1  0.18644863  0.94064906  0.45254925  1
  Zn  Zn126  1  0.19243215  0.93825130  0.94130191  1
  Zn  Zn127  1  0.68656674  0.43590080  0.43406763  1
  Zn  Zn128  1  0.68940566  0.43385228  0.93765752  1
  Zn  Zn129  1  0.68594832  0.94250167  0.43678284  1
  Zn  Zn130  1  0.69030788  0.93477389  0.93623226  1
  Zn  Zn131  1  0.31261668  0.06395964  0.05743818  1
  Zn  Zn132  1  0.31260540  0.06370997  0.55932487  1
  Zn  Zn133  1  0.31233898  0.56799530  0.06523137  1
  Zn  Zn134  1  0.31200811  0.56580559  0.56205116  1
  Zn  Zn135  1  0.81121597  0.06106758  0.06487588  1
  Zn  Zn136  1  0.81337449  0.06097851  0.56190330  1
  Zn  Zn137  1  0.81213414  0.56343987  0.06419097  1
  Zn  Zn138  1  0.80964427  0.55770877  0.56220352  1
  Zn  Zn139  1  0.43776976  0.43775720  0.18747135  1
  Zn  Zn140  1  0.43819984  0.43562643  0.68703780  1
  Zn  Zn141  1  0.44202312  0.93386184  0.18772392  1
  Zn  Zn142  1  0.43756503  0.93467830  0.68211254  1
  Zn  Zn143  1  0.93945190  0.43740279  0.18699324  1
  Zn  Zn144  1  0.93904846  0.43494440  0.68832123  1
  Zn  Zn145  1  0.93570137  0.93903205  0.18866716  1
  Zn  Zn146  1  0.93396513  0.93865449  0.68890213  1
  Zn  Zn147  1  0.05861357  0.06273734  0.30966321  1
  Zn  Zn148  1  0.06086981  0.05949011  0.81103460  1
  Zn  Zn149  1  0.06349383  0.56263986  0.31348641  1
  Zn  Zn150  1  0.07124880  0.57367939  0.81086759  1
  Zn  Zn151  1  0.56213584  0.06334295  0.31307411  1
  Zn  Zn152  1  0.55906003  0.06359718  0.80931563  1
  Zn  Zn153  1  0.56191575  0.55936028  0.31712390  1
  Zn  Zn154  1  0.56321989  0.55539944  0.81999416  1
  Zn  Zn155  1  0.43386327  0.18349522  0.43303288  1
  Zn  Zn156  1  0.43591031  0.18220501  0.93603450  1
  Zn  Zn157  1  0.43526422  0.68492605  0.43633863  1
  Zn  Zn158  1  0.44185694  0.69026712  0.93629760  1
  Zn  Zn159  1  0.93540895  0.18941424  0.44159323  1
  Zn  Zn160  1  0.93660533  0.18738045  0.94263805  1
  Zn  Zn161  1  0.93797214  0.68720110  0.43523693  1
  Zn  Zn162  1  0.93747572  0.68690037  0.93625524  1
  Zn  Zn163  1  0.06242452  0.31085535  0.06487770  1
  Zn  Zn164  1  0.06372991  0.31241833  0.56639511  1
  Zn  Zn165  1  0.06102644  0.81710481  0.06199235  1
  Zn  Zn166  1  0.06322185  0.81372862  0.56403350  1
  Zn  Zn167  1  0.56145093  0.31286418  0.06324253  1
  Zn  Zn168  1  0.56105296  0.30879016  0.56144905  1
  Zn  Zn169  1  0.56097606  0.81919866  0.06135701  1
  Zn  Zn170  1  0.56079378  0.81449126  0.56753255  1
  O  O171  1  0.11241956  0.11665333  0.11509671  1
  O  O172  1  0.11609580  0.12058353  0.61888525  1
  O  O173  1  0.11126667  0.61870716  0.12341167  1
  O  O174  1  0.11271992  0.60906888  0.62074645  1
  O  O175  1  0.62427240  0.11023793  0.13125601  1
  O  O176  1  0.61433584  0.13337644  0.60884701  1
  O  O177  1  0.62830121  0.61006556  0.11687882  1
  O  O178  1  0.63321874  0.61511715  0.61197626  1
  O  O179  1  0.38608488  0.37954762  0.37165618  1
  O  O180  1  0.37368940  0.38201512  0.88751395  1
  O  O181  1  0.39325254  0.87709550  0.37950106  1
  O  O182  1  0.37810758  0.88640405  0.87838610  1
  O  O183  1  0.87994653  0.37650565  0.38414796  1
  O  O184  1  0.86538320  0.39397807  0.89010877  1
  O  O185  1  0.88278649  0.88156205  0.38253945  1
  O  O186  1  0.87709250  0.88142994  0.88114530  1
  O  O187  1  0.24633427  -0.00120533  0.37192122  1
  O  O188  1  0.26098267  0.00746973  0.87712381  1
  O  O189  1  0.26306763  0.49666132  0.37797070  1
  O  O190  1  0.26669738  0.50252844  0.88022691  1
  O  O191  1  0.75845556  -0.00511984  0.36524173  1
  O  O192  1  0.75469367  0.00648343  0.86911075  1
  O  O193  1  0.74838476  0.50446990  0.36173700  1
  O  O194  1  0.75492003  0.50632127  0.86988694  1
  O  O195  1  0.24061500  0.49198323  0.11750230  1
  O  O196  1  0.24091245  0.49325401  0.62157582  1
  O  O197  1  0.23864602  1.00327646  0.12367637  1
  O  O198  1  0.24073852  1.00141874  0.62243292  1
  O  O199  1  0.74259353  0.50246344  0.13662080  1
  O  O200  1  0.74363911  0.48840536  0.63230778  1
  O  O201  1  0.74148290  0.99911835  0.13551613  1
  O  O202  1  0.75547859  0.99169818  0.63496338  1
  O  O203  1  -0.00449531  0.37749476  0.26846526  1
  O  O204  1  0.01580740  0.37489963  0.74642204  1
  O  O205  1  -0.00818750  0.86648961  0.25934539  1
  O  O206  1  -0.01191134  0.86655037  0.75996028  1
  O  O207  1  0.50938976  0.36873569  0.25639625  1
  O  O208  1  0.50888183  0.36688680  0.75083531  1
  O  O209  1  0.51314292  0.86807758  0.25800688  1
  O  O210  1  0.51168602  0.87329708  0.74885389  1
  O  O211  1  0.49198323  0.13194277  0.24686512  1
  O  O212  1  0.50010811  0.13412305  0.73853349  1
  O  O213  1  0.50147079  0.63580255  0.25580285  1
  O  O214  1  0.51279854  0.63256540  0.75255968  1
  O  O215  1  0.99714082  0.12605913  0.23431812  1
  O  O216  1  0.99164992  0.12921000  0.74461992  1
  O  O217  1  0.99194778  0.62962963  0.24306303  1
  O  O218  1  0.98634122  0.62755668  0.74260020  1
  O  O219  1  0.36889419  0.25770048  0.00376701  1
  O  O220  1  0.36016963  0.24987706  0.49565736  1
  O  O221  1  0.38011125  0.75668052  0.00813151  1
  O  O222  1  0.37476537  0.75204659  0.50608568  1
  O  O223  1  0.86604003  0.25963262  0.00975824  1
  O  O224  1  0.87434376  0.25848507  0.51180379  1
  O  O225  1  0.86704107  0.75356786  0.00562186  1
  O  O226  1  0.86644979  0.75491251  0.50294853  1
  O  O227  1  0.13337492  0.24108480  0.50636927  1
  O  O228  1  0.13078114  0.23549068  1.00465474  1
  O  O229  1  0.13701400  0.74853233  0.50332250  1
  O  O230  1  0.14432222  0.75424107  1.01189668  1
  O  O231  1  0.62068237  0.24158155  0.48634340  1
  O  O232  1  0.63252479  0.25781001  0.99082126  1
  O  O233  1  0.62880478  0.74156769  0.49729368  1
  O  O234  1  0.63241278  0.74099379  1.00809115  1
  O  O235  1  0.49500537  0.25165458  0.13711509  1
  O  O236  1  0.50114072  0.24402533  0.63423722  1
  O  O237  1  0.49735592  0.75280176  0.13457579  1
  O  O238  1  0.49891035  0.74355855  0.63207171  1
  O  O239  1  0.99073307  0.23932588  0.12225860  1
  O  O240  1  0.99108293  0.24038858  0.62862641  1
  O  O241  1  0.99560820  0.74440416  0.12996684  1
  O  O242  1  0.98580907  0.74630767  0.62427663  1
  O  O243  1  -0.00638745  0.26383517  0.37494083  1
  O  O244  1  -0.05149530  0.25847917  0.86015390  1
  O  O245  1  -0.00161188  0.75921436  0.36745189  1
  O  O246  1  -0.00956370  0.75919743  0.86322235  1
  O  O247  1  0.50338302  0.25490878  0.36530489  1
  O  O248  1  0.50829582  0.25026396  0.86735728  1
  O  O249  1  0.50820535  0.75640273  0.36928818  1
  O  O250  1  0.49792218  0.75252595  0.85769482  1
  O  O251  1  0.24185400  0.13540944  0.49811499  1
  O  O252  1  0.24012567  0.13169822  0.99120366  1
  O  O253  1  0.24815735  0.63492565  0.49653416  1
  O  O254  1  0.24786466  0.63660276  0.99929768  1
  O  O255  1  0.73474825  0.12350546  0.50558420  1
  O  O256  1  0.75087803  0.13046840  0.99075916  1
  O  O257  1  0.74303445  0.62697463  0.49339614  1
  O  O258  1  0.74175771  0.62907071  0.99515889  1
  O  O259  1  0.25504366  0.36806115  0.00686809  1
  O  O260  1  0.25040384  0.36229362  0.50550436  1
  O  O261  1  0.26583441  0.86490560  -0.00192321  1
  O  O262  1  0.25384336  0.85925628  0.49632194  1
  O  O263  1  0.75784169  0.36642758  0.00165538  1
  O  O264  1  0.75982089  0.38248930  0.50716242  1
  O  O265  1  0.75788186  0.86480488  0.00029873  1
  O  O266  1  0.75105153  0.87221909  0.50677082  1
  O  O267  1  0.11923335  0.49378450  0.23649550  1
  O  O268  1  0.12387318  0.49263984  0.74216079  1
  O  O269  1  0.12418484  1.00573980  0.23397139  1
  O  O270  1  0.12230987  1.00610412  0.73340308  1
  O  O271  1  0.62762273  0.49306562  0.24394750  1
  O  O272  1  0.62691276  0.48641430  0.74765106  1
  O  O273  1  0.63238383  0.99390029  0.24658015  1
  O  O274  1  0.63615470  0.99405797  0.75260107  1
  O  O275  1  0.37965988  0.01130398  0.24842831  1
  O  O276  1  0.37510409  0.00108671  0.75765781  1
  O  O277  1  0.38402730  0.51030879  0.25772822  1
  O  O278  1  0.37766971  0.49291794  0.76726157  1
  O  O279  1  0.86146579  -0.00506554  0.25787562  1
  O  O280  1  0.86279932  0.00611400  0.75790027  1
  O  O281  1  0.86559909  0.50408791  0.24895663  1
  O  O282  1  0.87056248  0.50194655  0.75838097  1
  O  O283  1  0.10980493  0.37968727  0.37581734  1
  O  O284  1  0.12939457  0.38390882  0.86274197  1
  O  O285  1  0.11140972  0.87652673  0.37979007  1
  O  O286  1  0.10938828  0.87396521  0.88716367  1
  O  O287  1  0.61524738  0.36458678  0.37059446  1
  O  O288  1  0.62550361  0.36416020  0.86682547  1
  O  O289  1  0.61948403  0.86994984  0.36936296  1
  O  O290  1  0.62750345  0.87613755  0.86087264  1
  O  O291  1  0.37592701  0.13008259  0.13305300  1
  O  O292  1  0.38662763  0.12392254  0.62530883  1
  O  O293  1  0.38147253  0.63131487  0.13406378  1
  O  O294  1  0.38064450  0.63902404  0.61819655  1
  O  O295  1  0.88785456  0.13158804  0.11424787  1
  O  O296  1  0.88055175  0.13141482  0.62671576  1
  O  O297  1  0.88413550  0.62967125  0.12914005  1
  O  O298  1  0.87534912  0.62851663  0.62917039  1
  O  O299  1  0.25594012  0.25577303  0.11234705  1
  O  O300  1  0.24675572  0.25866696  0.61375575  1
  O  O301  1  0.27306546  0.74567899  0.11161621  1
  O  O302  1  0.26816315  0.74577717  0.60890719  1
  O  O303  1  0.75605873  0.24217464  0.11403224  1
  O  O304  1  0.75030359  0.26125720  0.62285034  1
  O  O305  1  0.75643489  0.74969011  0.11409971  1
  O  O306  1  0.75346802  0.75594963  0.61914386  1
  O  O307  1  0.24662468  0.24761343  0.38803937  1
  O  O308  1  0.25427365  0.24312505  0.88817522  1
  O  O309  1  0.25308466  0.74367110  0.39138339  1
  O  O310  1  0.26755932  0.74575347  0.89918264  1
  O  O311  1  0.73498060  0.25434524  0.37250587  1
  O  O312  1  0.74671475  0.24186244  0.88625196  1
  O  O313  1  0.74459177  0.74595865  0.38067647  1
  O  O314  1  0.75494612  0.74011837  0.88719231  1
  O  O315  1  0.01073525  0.12670632  0.00491676  1
  O  O316  1  0.00525845  0.12298435  0.50895725  1
  O  O317  1  -0.00110612  0.61776068  0.00781928  1
  O  O318  1  -0.00371307  0.61500770  0.50549513  1
  O  O319  1  0.49882537  0.12158572  0.00406022  1
  O  O320  1  0.50427292  0.12180396  0.50331334  1
  O  O321  1  0.51307803  0.61718729  -0.00494402  1
  O  O322  1  0.51115204  0.61390296  0.49116776  1
  O  O323  1  0.49754512  0.37848322  0.49172261  1
  O  O324  1  0.49037498  0.38082415  0.99919275  1
  O  O325  1  0.50925708  0.88626038  0.49316386  1
  O  O326  1  0.49194275  0.88179198  0.99311259  1
  O  O327  1  0.99195899  0.37822651  0.49282219  1
  O  O328  1  0.99344637  0.38848759  1.00367305  1
  O  O329  1  0.99282394  0.88088051  0.49394330  1
  O  O330  1  0.98404633  0.86606747  0.99044168  1
  O  O331  1  0.49636141  0.48958026  0.38416729  1
  O  O332  1  0.49151910  0.49340453  0.88729254  1
  O  O333  1  0.50143936  0.99344873  0.38330680  1
  O  O334  1  0.48653976  1.00038394  0.87224683  1
  O  O335  1  0.99642703  0.49237927  0.38584045  1
  O  O336  1  0.99115045  0.51225427  0.88393745  1
  O  O337  1  0.99253298  0.99405968  0.37904598  1
  O  O338  1  0.98564185  0.99181166  0.86932003  1
  O  O339  1  -0.00133292  0.01228465  0.12379034  1
  O  O340  1  -0.00684760  0.01305386  0.62103393  1
  O  O341  1  0.00514234  0.50667690  0.11762165  1
  O  O342  1  0.00243391  0.50025666  0.61428006  1
  O  O343  1  0.51738291  -0.00054064  0.12681322  1
  O  O344  1  0.50002163  0.00881618  0.61147546  1
  O  O345  1  0.50683937  0.49634272  0.11305984  1
  O  O346  1  0.50576060  0.49217772  0.61096405  1
  O  O347  1  0.25437023  0.36982133  0.23492605  1
  O  O348  1  0.23993444  0.38084671  0.74296008  1
  O  O349  1  0.25028444  0.84610882  0.24943379  1
  O  O350  1  0.22359604  0.81138155  0.76508378  1
  O  O351  1  0.73613911  0.38191455  0.25530166  1
  O  O352  1  0.74256399  0.37688692  0.74274703  1
  O  O353  1  0.73808053  0.87581217  0.24977053  1
  O  O354  1  0.74576148  0.88096071  0.74367213  1
  O  O355  1  0.26202118  0.13108376  0.24663985  1
  O  O356  1  0.24566098  0.13654505  0.76416792  1
  O  O357  1  0.26378703  0.63891250  0.25148252  1
  O  O358  1  0.24473706  0.61995294  0.75572593  1
  O  O359  1  0.74695141  0.11555907  0.25421498  1
  O  O360  1  0.75162525  0.11848591  0.75664522  1
  O  O361  1  0.75398743  0.61822504  0.25357978  1
  O  O362  1  0.75048509  0.61853030  0.75782880  1
  O  O363  1  0.36979425  0.12172024  0.35872251  1
  O  O364  1  0.36462487  0.11436346  0.86957822  1
  O  O365  1  0.37630425  0.61381414  0.36509154  1
  O  O366  1  0.38012688  0.60936105  0.88082575  1
  O  O367  1  0.87887778  0.11247884  0.37996606  1
  O  O368  1  0.86438930  0.11413654  0.87341494  1
  O  O369  1  0.86769732  0.62158055  0.36794078  1
  O  O370  1  0.86270027  0.61566601  0.87326592  1
  O  O371  1  0.13385512  0.38452954  0.12106717  1
  O  O372  1  0.13275708  0.38463627  0.62894214  1
  O  O373  1  0.11858591  0.89674493  0.11794577  1
  O  O374  1  0.11857773  0.89413853  0.62106242  1
  O  O375  1  0.62131306  0.38578909  0.13409827  1
  O  O376  1  0.63096169  0.37678354  0.62940395  1
  O  O377  1  0.62832548  0.88492298  0.13362304  1
  O  O378  1  0.63810295  0.87259182  0.63365761  1
  O  O379  1  0.11754937  0.25844467  0.24162347  1
  O  O380  1  0.12412743  0.26855304  0.74958259  1
  O  O381  1  0.10793278  0.74533785  0.25205712  1
  O  O382  1  0.09702533  0.73893056  0.73264787  1
  O  O383  1  0.61914517  0.25435870  0.25779053  1
  O  O384  1  0.62049701  0.25731906  0.75592695  1
  O  O385  1  0.62304321  0.75536641  0.25327854  1
  O  O386  1  0.61313842  0.75768857  0.74396042  1
  O  O387  1  0.38212316  0.24164437  0.24459674  1
  O  O388  1  0.38559281  0.25075612  0.75760013  1
  O  O389  1  0.38938916  0.74110805  0.24444553  1
  O  O390  1  0.39533494  0.74782480  0.73743965  1
  O  O391  1  0.87596858  0.25618378  0.23472749  1
  O  O392  1  0.85946128  0.24074749  0.73047158  1
  O  O393  1  0.88156389  0.74546442  0.24314675  1
  O  O394  1  0.87512241  0.74242506  0.74184646  1
  O  O395  1  0.38271513  0.49716360  0.49136332  1
  O  O396  1  0.38190646  0.49432216  0.99751281  1
  O  O397  1  0.38443591  0.99848538  0.49475034  1
  O  O398  1  0.37513422  0.99310077  0.99104743  1
  O  O399  1  0.88161535  0.48959204  0.49996325  1
  O  O400  1  0.88026245  0.49575624  0.99755537  1
  O  O401  1  0.88000627  0.99511467  0.49322485  1
  O  O402  1  0.86536528  0.98864504  0.99053155  1
  O  O403  1  0.12954622  0.01423938  0.00812942  1
  O  O404  1  0.11579023  0.01115598  0.51277656  1
  O  O405  1  0.11714884  0.50550919  0.00710084  1
  O  O406  1  0.11452078  0.49807228  0.50715811  1
  O  O407  1  0.62966344  -0.00574755  0.01478134  1
  O  O408  1  0.61820512  0.01788294  0.49278706  1
  O  O409  1  0.61948883  0.50181074  0.00647335  1
  O  O410  1  0.61857893  0.50471316  0.50210426  1
  O  O411  1  0.36952265  0.37220824  0.11534947  1
  O  O412  1  0.35774390  0.38194442  0.62505430  1
  O  O413  1  0.38516879  0.86601572  0.11544405  1
  O  O414  1  0.38575450  0.85521136  0.62120125  1
  O  O415  1  0.87913208  0.36911773  0.11511265  1
  O  O416  1  0.86812351  0.36876281  0.61972326  1
  O  O417  1  0.87271473  0.86989299  0.11656251  1
  O  O418  1  0.86380203  0.86992602  0.61844409  1
  O  O419  1  0.12016365  0.11993212  0.38903748  1
  O  O420  1  0.12760881  0.11803207  0.88636994  1
  O  O421  1  0.12617336  0.62893042  0.37859869  1
  O  O422  1  0.12664765  0.64805159  0.87663462  1
  O  O423  1  0.62033515  0.13816426  0.38392196  1
  O  O424  1  0.63258028  0.13671739  0.86794295  1
  O  O425  1  0.63123895  0.62917810  0.38338563  1
  O  O426  1  0.63693223  0.61738012  0.88610411  1
