# generated using pymatgen
data_V85Zn86O256
_symmetry_space_group_name_H-M   'P 1'
_cell_length_a   16.96504967
_cell_length_b   16.94189426
_cell_length_c   16.95426583
_cell_angle_alpha   89.98001103
_cell_angle_beta   90.05504481
_cell_angle_gamma   89.93896481
_symmetry_Int_Tables_number   1
_chemical_formula_structural   V85Zn86O256
_chemical_formula_sum   'V85 Zn86 O256'
_cell_volume   4872.99108866
_cell_formula_units_Z   1
loop_
 _symmetry_equiv_pos_site_id
 _symmetry_equiv_pos_as_xyz
  1  'x, y, z'
loop_
 _atom_site_type_symbol
 _atom_site_label
 _atom_site_symmetry_multiplicity
 _atom_site_fract_x
 _atom_site_fract_y
 _atom_site_fract_z
 _atom_site_occupancy
  V  V0  1  0.11387346  0.75122680  0.37013193  1
  V  V1  1  0.50685042  0.12348133  0.61865230  1
  V  V2  1  0.74797830  0.75060971  0.50874845  1
  V  V3  1  -0.00185678  0.75270623  0.75013327  1
  V  V4  1  0.62137840  0.61401401  0.49876665  1
  V  V5  1  0.25143698  -0.00555807  0.24893697  1
  V  V6  1  -0.00009087  0.49962473  0.49844087  1
  V  V7  1  -0.00179139  0.62568607  0.62388019  1
  V  V8  1  -0.00175473  0.63995704  0.12829192  1
  V  V9  1  0.37256671  0.62451708  0.75096145  1
  V  V10  1  0.13081795  0.37568478  0.74851812  1
  V  V11  1  0.37632312  0.36979671  0.00295172  1
  V  V12  1  0.00107701  0.25009956  0.74979677  1
  V  V13  1  0.11305329  0.86910011  0.24963721  1
  V  V14  1  0.49726398  0.25145543  0.24980192  1
  V  V15  1  0.37194327  0.74958480  0.11237158  1
  V  V16  1  0.00059898  0.36400747  0.37462697  1
  V  V17  1  0.87303557  -0.01656056  0.37905773  1
  V  V18  1  0.50041174  0.38338230  0.38712620  1
  V  V19  1  0.73885067  0.88343257  0.62007834  1
  V  V20  1  0.12987977  0.62393216  0.49161635  1
  V  V21  1  0.75686886  0.74981728  0.00121989  1
  V  V22  1  0.38652572  0.13224488  0.75587162  1
  V  V23  1  0.12674351  0.50148494  0.12797740  1
  V  V24  1  0.13293306  0.75162070  0.87736653  1
  V  V25  1  0.37404982  0.74984017  0.62397757  1
  V  V26  1  0.62423697  0.37372418  0.25172795  1
  V  V27  1  0.62790533  0.87761075  0.25042699  1
  V  V28  1  0.25559143  0.37241957  0.12931092  1
  V  V29  1  0.24999360  0.49869867  0.75212727  1
  V  V30  1  0.36790683  0.62194888  0.26224552  1
  V  V31  1  0.24956212  0.01041037  0.75216651  1
  V  V32  1  0.01424923  0.11764342  0.61897842  1
  V  V33  1  0.25152616  0.24562253  0.00344331  1
  V  V34  1  0.87899461  0.63749470  0.24604228  1
  V  V35  1  0.37087629  0.00202963  0.87922002  1
  V  V36  1  0.25574450  0.87125220  0.11195341  1
  V  V37  1  0.92006933  0.80088399  0.57151892  1
  V  V38  1  0.12294984  0.36450420  0.25006164  1
  V  V39  1  0.62710310  0.23973140  0.37653554  1
  V  V40  1  0.25154047  0.74827964  0.48832808  1
  V  V41  1  0.12809295  0.50015198  0.62514285  1
  V  V42  1  0.37473800  0.87492945  0.49904946  1
  V  V43  1  0.00134832  0.50308031  0.00296087  1
  V  V44  1  0.37483598  0.38857171  0.50380739  1
  V  V45  1  0.50093788  0.87504918  0.37540273  1
  V  V46  1  0.73772284  0.00157732  0.75479820  1
  V  V47  1  0.62630011  0.49823625  0.12473104  1
  V  V48  1  0.13285728  0.63027615  0.00273992  1
  V  V49  1  0.00124818  0.37671401  0.87565701  1
  V  V50  1  0.12643633  0.88061345  0.74671248  1
  V  V51  1  0.12603177  -0.00054241  0.12335844  1
  V  V52  1  0.87298434  0.37351991  0.00179703  1
  V  V53  1  0.49794354  0.12505130  0.12729353  1
  V  V54  1  -0.00404791  0.87636585  0.87566376  1
  V  V55  1  0.62502779  0.74404449  0.87536466  1
  V  V56  1  0.85538099  0.12176105  0.25965368  1
  V  V57  1  0.37739933  0.00213543  0.37855724  1
  V  V58  1  0.75126062  0.49851844  0.24935839  1
  V  V59  1  -0.00288380  0.00302635  -0.00118224  1
  V  V60  1  0.37000513  0.24931011  0.62129110  1
  V  V61  1  0.49690352  0.62422789  0.12743527  1
  V  V62  1  0.74997715  0.50053280  0.74996141  1
  V  V63  1  0.87434369  0.63095218  0.74679872  1
  V  V64  1  0.37373741  0.13060943  0.25148022  1
  V  V65  1  0.23658226  0.13138671  0.38098387  1
  V  V66  1  0.75176812  0.24164268  0.49612041  1
  V  V67  1  0.87787627  0.24907333  0.62421304  1
  V  V68  1  0.62957777  -0.00002862  0.12802302  1
  V  V69  1  0.50015582  0.49635286  -0.00117925  1
  V  V70  1  0.13181322  0.24295445  0.87609962  1
  V  V71  1  0.87344189  0.12246763  0.75649776  1
  V  V72  1  0.75582241  0.87141340  0.12695843  1
  V  V73  1  0.87661508  0.49778032  0.37171407  1
  V  V74  1  0.49337088  0.87395055  0.87778889  1
  V  V75  1  0.62692430  0.12509069  -0.01394661  1
  V  V76  1  0.49349355  -0.00811277  0.00259859  1
  V  V77  1  0.74705056  0.37375506  0.62580488  1
  V  V78  1  0.49768203  0.61631755  0.61940928  1
  V  V79  1  0.62515264  0.74923157  0.37349574  1
  V  V80  1  0.25182496  0.88243682  0.62534529  1
  V  V81  1  0.75035854  0.62382843  0.37513576  1
  V  V82  1  0.24986978  0.49805923  0.27125674  1
  V  V83  1  -0.00290232  0.12637876  0.12888680  1
  V  V84  1  0.50019993  0.74724787  0.75060503  1
  Zn  Zn85  1  0.63667209  0.11047552  0.49910152  1
  Zn  Zn86  1  0.86934936  0.24629743  0.12389987  1
  Zn  Zn87  1  0.74631809  0.24168881  -0.01052614  1
  Zn  Zn88  1  0.87672077  0.87322479  0.00653268  1
  Zn  Zn89  1  0.75229904  0.62654905  0.87489786  1
  Zn  Zn90  1  0.75175282  0.37190059  0.12325986  1
  Zn  Zn91  1  0.23922410  0.24966635  0.50205875  1
  Zn  Zn92  1  0.49966965  0.35616279  0.86795046  1
  Zn  Zn93  1  0.62780966  0.62491595  0.00127757  1
  Zn  Zn94  1  0.51235862  -0.00728854  0.50896409  1
  Zn  Zn95  1  0.86496043  0.00436535  0.87938413  1
  Zn  Zn96  1  -0.00353881  0.24545664  0.25082840  1
  Zn  Zn97  1  0.37156869  0.49903411  0.87821419  1
  Zn  Zn98  1  0.62695894  0.35752077  0.76411208  1
  Zn  Zn99  1  0.00573687  0.00468473  0.48853270  1
  Zn  Zn100  1  0.87351175  0.37398649  0.49825103  1
  Zn  Zn101  1  0.12770773  0.12439328  -0.00087842  1
  Zn  Zn102  1  0.49527351  0.74910431  0.24927662  1
  Zn  Zn103  1  0.61923264  0.87839567  0.74736318  1
  Zn  Zn104  1  0.62025711  0.49158817  0.62105032  1
  Zn  Zn105  1  0.87590451  0.50307251  0.87402893  1
  Zn  Zn106  1  0.25330970  0.62945482  0.88163798  1
  Zn  Zn107  1  0.18742259  0.18547511  0.18703500  1
  Zn  Zn108  1  0.19215496  0.19075828  0.68814143  1
  Zn  Zn109  1  0.19243008  0.68787389  0.18788945  1
  Zn  Zn110  1  0.18701572  0.69133973  0.68361493  1
  Zn  Zn111  1  0.68614986  0.19213601  0.17876546  1
  Zn  Zn112  1  0.69278153  0.18321457  0.68505382  1
  Zn  Zn113  1  0.68928765  0.68718175  0.18749498  1
  Zn  Zn114  1  0.68415597  0.68591699  0.68714546  1
  Zn  Zn115  1  0.31579602  0.31422952  0.31882098  1
  Zn  Zn116  1  0.31821504  0.31125759  0.81678706  1
  Zn  Zn117  1  0.31248753  0.81060627  0.30785561  1
  Zn  Zn118  1  0.31341916  0.81482226  0.81277260  1
  Zn  Zn119  1  0.81274213  0.30758223  0.30954051  1
  Zn  Zn120  1  0.80949236  0.30752469  0.81604345  1
  Zn  Zn121  1  0.80907114  0.81435216  0.31540511  1
  Zn  Zn122  1  0.81032055  0.81531288  0.80851354  1
  Zn  Zn123  1  0.17435082  0.40803450  0.44989178  1
  Zn  Zn124  1  0.18880904  0.43685943  0.93784074  1
  Zn  Zn125  1  0.18694980  0.94349578  0.42971377  1
  Zn  Zn126  1  0.18474126  0.93945982  0.93457433  1
  Zn  Zn127  1  0.68926954  0.42996439  0.43727713  1
  Zn  Zn128  1  0.68837759  0.43656901  0.93224956  1
  Zn  Zn129  1  0.69673748  0.93923735  0.43476682  1
  Zn  Zn130  1  0.68050048  0.93529013  0.93732611  1
  Zn  Zn131  1  0.31434055  0.06317657  0.06545096  1
  Zn  Zn132  1  0.31208325  0.06543701  0.56196931  1
  Zn  Zn133  1  0.31341973  0.55753055  0.06980915  1
  Zn  Zn134  1  0.30918832  0.56049771  0.56182616  1
  Zn  Zn135  1  0.81055180  0.06021420  0.06499432  1
  Zn  Zn136  1  0.82156201  0.05848357  0.56237330  1
  Zn  Zn137  1  0.81431304  0.56429168  0.06262798  1
  Zn  Zn138  1  0.81297149  0.56304078  0.56218788  1
  Zn  Zn139  1  0.43509389  0.43860050  0.19095122  1
  Zn  Zn140  1  0.43574654  0.43320376  0.68577098  1
  Zn  Zn141  1  0.43786311  0.93491585  0.18886062  1
  Zn  Zn142  1  0.43806214  0.94163114  0.69210276  1
  Zn  Zn143  1  0.93922766  0.43980942  0.18637097  1
  Zn  Zn144  1  0.93636803  0.43804507  0.68787073  1
  Zn  Zn145  1  0.93381715  0.94520550  0.19181100  1
  Zn  Zn146  1  0.93599006  0.94412546  0.68999951  1
  Zn  Zn147  1  0.05909060  0.05684487  0.30954969  1
  Zn  Zn148  1  0.06078771  0.06329568  0.81020269  1
  Zn  Zn149  1  0.06295947  0.56089591  0.31113225  1
  Zn  Zn150  1  0.06253888  0.56612924  0.81445895  1
  Zn  Zn151  1  0.56416279  0.05942067  0.31431544  1
  Zn  Zn152  1  0.56643852  0.19129106  0.81422942  1
  Zn  Zn153  1  0.56028421  0.56179047  0.31074172  1
  Zn  Zn154  1  0.54733419  0.52341521  0.79565349  1
  Zn  Zn155  1  0.43674898  0.18986320  0.43997602  1
  Zn  Zn156  1  0.43263539  0.18236548  0.94484229  1
  Zn  Zn157  1  0.43933181  0.68706981  0.43722583  1
  Zn  Zn158  1  0.44000315  0.68141661  0.93716612  1
  Zn  Zn159  1  0.93712026  0.18163839  0.43849901  1
  Zn  Zn160  1  0.93926083  0.19040422  0.93789494  1
  Zn  Zn161  1  0.93993231  0.68298439  0.43062726  1
  Zn  Zn162  1  0.93971111  0.68876626  0.93616291  1
  Zn  Zn163  1  0.06269393  0.31166893  0.06426130  1
  Zn  Zn164  1  0.06186651  0.31080407  0.56292661  1
  Zn  Zn165  1  0.06664884  0.81523021  0.06159535  1
  Zn  Zn166  1  0.09132774  0.85121097  0.53602180  1
  Zn  Zn167  1  0.56172136  0.30912467  0.06298679  1
  Zn  Zn168  1  0.56480207  0.30236484  0.56963682  1
  Zn  Zn169  1  0.56425963  0.80960895  0.06252851  1
  Zn  Zn170  1  0.56242895  0.80839046  0.56202525  1
  O  O171  1  0.11694178  0.11593480  0.12450127  1
  O  O172  1  0.11227084  0.13023847  0.63187479  1
  O  O173  1  0.12012826  0.62212681  0.12043248  1
  O  O174  1  0.11827925  0.62073411  0.61627212  1
  O  O175  1  0.61234303  0.11433216  0.12806153  1
  O  O176  1  0.60897406  0.12706798  0.62041433  1
  O  O177  1  0.61576456  0.61367256  0.12991574  1
  O  O178  1  0.61567406  0.62630230  0.61341749  1
  O  O179  1  0.39061735  0.36977515  0.38954576  1
  O  O180  1  0.37834812  0.38075372  0.88781073  1
  O  O181  1  0.37870499  0.88130403  0.37729520  1
  O  O182  1  0.38583862  0.87915103  0.87299076  1
  O  O183  1  0.88228786  0.38244553  0.37183547  1
  O  O184  1  0.89035009  0.37828542  0.87978222  1
  O  O185  1  0.87958971  0.88340213  0.36854089  1
  O  O186  1  0.88985520  0.87614733  0.87292078  1
  O  O187  1  0.25759311  0.00754137  0.36628869  1
  O  O188  1  0.26201288  -0.00876622  0.86712888  1
  O  O189  1  0.24159188  0.48661249  0.36843326  1
  O  O190  1  0.24751043  0.50601271  0.86375714  1
  O  O191  1  0.77105482  -0.00295430  0.37289298  1
  O  O192  1  0.74915781  -0.01019618  0.85995456  1
  O  O193  1  0.75704625  0.50276018  0.37068209  1
  O  O194  1  0.75557843  0.50605723  0.86447145  1
  O  O195  1  0.24296096  0.48802823  0.13230686  1
  O  O196  1  0.23564434  0.50562984  0.63621804  1
  O  O197  1  0.24718153  0.99484084  0.13239142  1
  O  O198  1  0.25775361  0.98865430  0.63295240  1
  O  O199  1  0.74135558  0.49975316  0.13076591  1
  O  O200  1  0.75499378  0.48580483  0.62677596  1
  O  O201  1  0.73468546  0.98965272  0.12057805  1
  O  O202  1  0.75948339  0.98861688  0.63292824  1
  O  O203  1  0.00585351  0.37192586  0.25443634  1
  O  O204  1  0.00642501  0.37126342  0.75870472  1
  O  O205  1  0.01531981  0.87655308  0.23867366  1
  O  O206  1  0.00827874  0.87460515  0.75491759  1
  O  O207  1  0.50177804  0.36735599  0.25848625  1
  O  O208  1  0.51381694  0.41287507  0.76194376  1
  O  O209  1  0.51024574  0.87021663  0.25625379  1
  O  O210  1  0.49923928  0.86784585  0.75802701  1
  O  O211  1  0.49267294  0.13019587  0.24809257  1
  O  O212  1  0.48782861  0.12366288  0.73879806  1
  O  O213  1  0.48836197  0.62201873  0.24201896  1
  O  O214  1  0.48683195  0.62326378  0.74340932  1
  O  O215  1  0.99807007  0.12496525  0.23775804  1
  O  O216  1  0.99471175  0.13212195  0.74212089  1
  O  O217  1  0.99200225  0.62136007  0.24053673  1
  O  O218  1  0.99737354  0.63276782  0.74324860  1
  O  O219  1  0.36641195  0.26100636  0.00326340  1
  O  O220  1  0.37024812  0.25471079  0.50994744  1
  O  O221  1  0.37710836  0.74132712  0.01298484  1
  O  O222  1  0.36832593  0.75381166  0.50280616  1
  O  O223  1  0.87635398  0.26107796  0.00143770  1
  O  O224  1  0.87037258  0.25055616  0.50784013  1
  O  O225  1  0.86167255  0.75353658  -0.00661685  1
  O  O226  1  0.86687356  0.73910621  0.50465743  1
  O  O227  1  0.13994538  0.30083668  0.48805279  1
  O  O228  1  0.13255939  0.25147633  0.99227344  1
  O  O229  1  0.13286914  0.74759487  0.49063188  1
  O  O230  1  0.12184397  0.74181677  0.99102658  1
  O  O231  1  0.63392252  0.24469880  0.49248116  1
  O  O232  1  0.61709910  0.22728543  1.00608910  1
  O  O233  1  0.63116486  0.74257426  0.48976519  1
  O  O234  1  0.63405573  0.74780821  0.99309612  1
  O  O235  1  0.50456403  0.24036672  0.14129961  1
  O  O236  1  0.48569429  0.23478062  0.62034186  1
  O  O237  1  0.49457737  0.74044675  0.12813545  1
  O  O238  1  0.49344326  0.74079190  0.63149386  1
  O  O239  1  0.99804537  0.23796902  0.12469250  1
  O  O240  1  0.99523092  0.24619279  0.63042893  1
  O  O241  1  1.00230740  0.73898745  0.11873978  1
  O  O242  1  0.99186776  0.74730303  0.62851382  1
  O  O243  1  -0.00500641  0.26100458  0.37402292  1
  O  O244  1  0.00961618  0.25908737  0.87018358  1
  O  O245  1  0.01434373  0.74845252  0.37599718  1
  O  O246  1  0.01010423  0.75911043  0.87116563  1
  O  O247  1  0.50652366  0.25462325  0.36665989  1
  O  O248  1  0.48347649  0.24405138  0.86836838  1
  O  O249  1  0.50917328  0.75595393  0.37329852  1
  O  O250  1  0.50333478  0.75366343  0.87096876  1
  O  O251  1  0.24710204  0.12509068  0.48573032  1
  O  O252  1  0.24914022  0.14115936  1.01064139  1
  O  O253  1  0.24060136  0.63540002  0.50686884  1
  O  O254  1  0.23609730  0.61588273  1.00248065  1
  O  O255  1  0.75238322  0.13802790  0.51175590  1
  O  O256  1  0.73053535  0.11673930  1.00206815  1
  O  O257  1  0.74263144  0.63040773  0.49479634  1
  O  O258  1  0.74862664  0.63308612  0.99731919  1
  O  O259  1  0.25594670  0.37061377  0.00950991  1
  O  O260  1  0.27448766  0.37985404  0.49919634  1
  O  O261  1  0.24505722  0.88084453  0.01336489  1
  O  O262  1  0.25648981  0.86882712  0.50671200  1
  O  O263  1  0.76885111  0.38878070  -0.00050101  1
  O  O264  1  0.75377239  0.36458832  0.50834163  1
  O  O265  1  0.74924726  0.86847418  0.00844604  1
  O  O266  1  0.75091402  0.86404599  0.50894359  1
  O  O267  1  0.13364922  0.49682498  0.24333947  1
  O  O268  1  0.12959844  0.49713727  0.74572193  1
  O  O269  1  0.13286437  0.98848080  0.24436455  1
  O  O270  1  0.13535173  0.99165311  0.75829756  1
  O  O271  1  0.62943700  0.49380767  0.24449250  1
  O  O272  1  0.64601869  0.51509017  0.73803597  1
  O  O273  1  0.61973099  0.98869640  0.24220867  1
  O  O274  1  0.63988817  0.99978533  0.74819544  1
  O  O275  1  0.36948083  0.00572750  0.25899731  1
  O  O276  1  0.36864311  0.00818279  0.75963385  1
  O  O277  1  0.36468912  0.51133670  0.24849484  1
  O  O278  1  0.36363779  0.50628974  0.74823909  1
  O  O279  1  0.87593791  0.01454715  0.25994223  1
  O  O280  1  0.86922798  0.00857588  0.75634732  1
  O  O281  1  0.87124565  0.50505982  0.25894061  1
  O  O282  1  0.86711570  0.50831967  0.74953479  1
  O  O283  1  0.10803248  0.39090961  0.35749994  1
  O  O284  1  0.11676876  0.37135630  0.86846068  1
  O  O285  1  0.13050457  0.86671386  0.35629148  1
  O  O286  1  0.11676067  0.86994856  0.86717038  1
  O  O287  1  0.61494134  0.36491520  0.37280684  1
  O  O288  1  0.61117030  0.38579659  0.87494112  1
  O  O289  1  0.62384931  0.86637724  0.36805153  1
  O  O290  1  0.60991939  0.86529562  0.87359223  1
  O  O291  1  0.38844728  0.11762631  0.13786509  1
  O  O292  1  0.37794256  0.13434276  0.62998256  1
  O  O293  1  0.38016079  0.62922501  0.13335165  1
  O  O294  1  0.37927767  0.63058981  0.62876907  1
  O  O295  1  0.88110486  0.12120981  0.13414229  1
  O  O296  1  0.88356443  0.13582778  0.63436892  1
  O  O297  1  0.88580522  0.61962927  0.13454510  1
  O  O298  1  0.88360122  0.61994550  0.63574364  1
  O  O299  1  0.24185808  0.26399186  0.11967507  1
  O  O300  1  0.26402080  0.24658082  0.61962532  1
  O  O301  1  0.25944432  0.75873629  0.12678959  1
  O  O302  1  0.25624315  0.76073198  0.61758478  1
  O  O303  1  0.74986542  0.25488888  0.10855992  1
  O  O304  1  0.76005648  0.25808046  0.62013557  1
  O  O305  1  0.74214941  0.75865473  0.11438322  1
  O  O306  1  0.74551335  0.75438421  0.61360242  1
  O  O307  1  0.25354843  0.23310735  0.37262627  1
  O  O308  1  0.24143832  0.25925112  0.88837935  1
  O  O309  1  0.24487275  0.75426788  0.38525466  1
  O  O310  1  0.23687489  0.75070861  0.87024881  1
  O  O311  1  0.74039221  0.25758605  0.38540424  1
  O  O312  1  0.73954187  0.25620920  0.88024056  1
  O  O313  1  0.74330543  0.74399275  0.38538572  1
  O  O314  1  0.74116878  0.75303389  0.88087472  1
  O  O315  1  0.00064806  0.11773542  0.00795600  1
  O  O316  1  0.00384730  0.12754468  0.51466050  1
  O  O317  1  0.00842912  0.61914090  0.00547976  1
  O  O318  1  0.00794450  0.61892775  0.50405371  1
  O  O319  1  0.50285975  0.11375893  0.01210509  1
  O  O320  1  0.49788545  0.12052880  0.51038656  1
  O  O321  1  0.50136554  0.61792202  0.01579981  1
  O  O322  1  0.50957034  0.63058466  0.50695267  1
  O  O323  1  0.49851142  0.36853354  0.49131939  1
  O  O324  1  0.49106161  0.38047255  1.00590101  1
  O  O325  1  0.49165101  0.87318016  0.49452611  1
  O  O326  1  0.50313796  0.88407739  0.99623867  1
  O  O327  1  0.99384787  0.38409419  0.49079408  1
  O  O328  1  0.99605001  0.38292712  0.99490366  1
  O  O329  1  0.97736260  0.85556838  0.51254998  1
  O  O330  1  0.99938697  0.88279710  0.99314460  1
  O  O331  1  0.50645740  0.48161516  0.37341256  1
  O  O332  1  0.49411628  0.51508153  0.89725644  1
  O  O333  1  0.49035945  0.99250180  0.37494668  1
  O  O334  1  0.48608014  0.98890468  0.88660855  1
  O  O335  1  0.99104712  0.49612017  0.37865696  1
  O  O336  1  1.00293936  0.49366087  0.88376561  1
  O  O337  1  0.98395974  1.00711761  0.37406947  1
  O  O338  1  1.00180148  0.99449912  0.88555961  1
  O  O339  1  0.00394820  0.00419538  0.11493029  1
  O  O340  1  -0.00259773  0.01591928  0.62506248  1
  O  O341  1  0.00846960  0.50729583  0.11786738  1
  O  O342  1  0.00906209  0.50431830  0.61987480  1
  O  O343  1  0.50581888  0.00258171  0.12121342  1
  O  O344  1  0.48765662  0.01720467  0.62274571  1
  O  O345  1  0.50508261  0.50482187  0.12058722  1
  O  O346  1  0.50161044  0.51344967  0.62526369  1
  O  O347  1  0.24504452  0.37792791  0.24732659  1
  O  O348  1  0.24155343  0.38499890  0.75636592  1
  O  O349  1  0.24856904  0.88598857  0.24359160  1
  O  O350  1  0.24582271  0.88306207  0.74382861  1
  O  O351  1  0.74266150  0.38083245  0.24793159  1
  O  O352  1  0.75127850  0.38460248  0.74220015  1
  O  O353  1  0.73511572  0.86527364  0.24229546  1
  O  O354  1  0.74684797  0.88431562  0.74015497  1
  O  O355  1  0.25750130  0.11550097  0.25308105  1
  O  O356  1  0.25714330  0.11319181  0.74544151  1
  O  O357  1  0.26007349  0.61498686  0.24996987  1
  O  O358  1  0.25977022  0.62149831  0.74787405  1
  O  O359  1  0.75745668  0.12707948  0.24472255  1
  O  O360  1  0.75957454  0.10904130  0.74093346  1
  O  O361  1  0.75583159  0.61791060  0.25624413  1
  O  O362  1  0.76097934  0.62381133  0.74873473  1
  O  O363  1  0.37064362  0.11720034  0.36889137  1
  O  O364  1  0.37461648  0.11362920  0.86735962  1
  O  O365  1  0.37916536  0.62651911  0.36101706  1
  O  O366  1  0.37068996  0.62228448  0.86565618  1
  O  O367  1  0.87143355  0.12890937  0.36104105  1
  O  O368  1  0.88326142  0.12608534  0.86049679  1
  O  O369  1  0.86988164  0.61645090  0.36766588  1
  O  O370  1  0.87891064  0.62367655  0.86081679  1
  O  O371  1  0.12873807  0.38228149  0.13350119  1
  O  O372  1  0.11660307  0.38610341  0.64208888  1
  O  O373  1  0.13494858  0.87784680  0.13378536  1
  O  O374  1  0.13753701  0.86539624  0.64167550  1
  O  O375  1  0.62354086  0.38534683  0.13027489  1
  O  O376  1  0.63579609  0.37487177  0.62545599  1
  O  O377  1  0.62851017  0.87995468  0.13279318  1
  O  O378  1  0.63451435  0.87048891  0.62719582  1
  O  O379  1  0.12275863  0.26157572  0.24720534  1
  O  O380  1  0.12487271  0.25942437  0.75693532  1
  O  O381  1  0.13177973  0.76048289  0.25493722  1
  O  O382  1  0.11817979  0.75627742  0.75697228  1
  O  O383  1  0.61898378  0.25555269  0.25638574  1
  O  O384  1  0.62119924  0.24829827  0.73722902  1
  O  O385  1  0.62306298  0.75108752  0.26197506  1
  O  O386  1  0.61659858  0.75127030  0.75689416  1
  O  O387  1  0.38155321  0.23889976  0.25588519  1
  O  O388  1  0.36533135  0.24233068  0.73771543  1
  O  O389  1  0.37389986  0.73534595  0.24357811  1
  O  O390  1  0.37864266  0.74199773  0.74512074  1
  O  O391  1  0.87555339  0.23661503  0.24445798  1
  O  O392  1  0.88153606  0.24646993  0.74324360  1
  O  O393  1  0.86855467  0.73591588  0.25522872  1
  O  O394  1  0.88419676  0.74339016  0.75410601  1
  O  O395  1  0.38188762  0.48830048  0.51063362  1
  O  O396  1  0.38102771  0.48897741  1.00451777  1
  O  O397  1  0.37246090  0.99441208  0.48811825  1
  O  O398  1  0.38184001  1.00492932  0.99403374  1
  O  O399  1  0.87876455  0.50084054  0.48649086  1
  O  O400  1  0.88970051  0.49767259  0.99881324  1
  O  O401  1  0.88432113  1.00307952  0.48536491  1
  O  O402  1  0.88240557  0.99658058  0.99651187  1
  O  O403  1  0.11726646  0.00318528  0.00495066  1
  O  O404  1  0.10877857  -0.04033624  0.50399893  1
  O  O405  1  0.11684248  0.50507308  0.00547625  1
  O  O406  1  0.12295224  0.50560698  0.50820568  1
  O  O407  1  0.61359157  0.00601745  0.00818184  1
  O  O408  1  0.62352035  -0.00081008  0.49162185  1
  O  O409  1  0.61884176  0.50283537  0.01080444  1
  O  O410  1  0.63191416  0.51097662  0.49977633  1
  O  O411  1  0.36467841  0.37757801  0.12137484  1
  O  O412  1  0.38652768  0.36175762  0.61373165  1
  O  O413  1  0.36815513  0.86270624  0.13139226  1
  O  O414  1  0.36998140  0.86962459  0.62105889  1
  O  O415  1  0.87653269  0.37415286  0.11541626  1
  O  O416  1  0.87193349  0.36283640  0.62492169  1
  O  O417  1  0.85907954  0.88176909  0.12877394  1
  O  O418  1  0.86746187  0.86727436  0.63015010  1
  O  O419  1  0.13931144  0.11965801  0.36592027  1
  O  O420  1  0.12120648  0.13960814  0.87581857  1
  O  O421  1  0.12288986  0.63016396  0.38552413  1
  O  O422  1  0.12578231  0.63508756  0.88413974  1
  O  O423  1  0.62165817  0.13664016  0.37536300  1
  O  O424  1  0.61444950  0.11511799  0.88878603  1
  O  O425  1  0.62795594  0.63019760  0.37930155  1
  O  O426  1  0.62424127  0.63969338  0.87648311  1
