# generated using pymatgen
data_V85Zn86O256
_symmetry_space_group_name_H-M   'P 1'
_cell_length_a   16.93627439
_cell_length_b   16.94794374
_cell_length_c   16.94346188
_cell_angle_alpha   89.95815768
_cell_angle_beta   90.04408763
_cell_angle_gamma   89.96443203
_symmetry_Int_Tables_number   1
_chemical_formula_structural   V85Zn86O256
_chemical_formula_sum   'V85 Zn86 O256'
_cell_volume   4863.36333998
_cell_formula_units_Z   1
loop_
 _symmetry_equiv_pos_site_id
 _symmetry_equiv_pos_as_xyz
  1  'x, y, z'
loop_
 _atom_site_type_symbol
 _atom_site_label
 _atom_site_symmetry_multiplicity
 _atom_site_fract_x
 _atom_site_fract_y
 _atom_site_fract_z
 _atom_site_occupancy
  V  V0  1  0.37626745  0.12691586  0.25674779  1
  V  V1  1  0.12691857  0.50259949  0.62308604  1
  V  V2  1  -0.00023894  0.87261561  0.37987237  1
  V  V3  1  0.86095107  0.74412982  0.62953632  1
  V  V4  1  0.25310497  0.37272591  0.62431064  1
  V  V5  1  0.00813807  0.86713123  0.87513782  1
  V  V6  1  0.37161176  0.49421142  0.87646912  1
  V  V7  1  0.25095638  0.87528427  0.12439203  1
  V  V8  1  0.37353103  0.50001206  0.37614350  1
  V  V9  1  0.50001072  0.62515507  0.12325030  1
  V  V10  1  0.75008670  0.00481595  0.25843847  1
  V  V11  1  0.12778128  0.64085690  0.49795280  1
  V  V12  1  0.12682501  0.87329044  0.25730174  1
  V  V13  1  0.25064250  0.49884273  0.74943027  1
  V  V14  1  0.62866590  0.62697195  0.50199329  1
  V  V15  1  0.74790574  0.24981434  -0.00246309  1
  V  V16  1  0.63320450  0.37545941  0.75076287  1
  V  V17  1  0.62592301  0.74952590  0.37746567  1
  V  V18  1  0.87710513  0.62702001  0.24713343  1
  V  V19  1  0.11992418  0.00106598  0.61781858  1
  V  V20  1  0.25172760  0.49844471  0.24339943  1
  V  V21  1  0.49865735  0.88783455  0.38049299  1
  V  V22  1  0.88277721  0.12841097  0.75296307  1
  V  V23  1  0.62135266  0.88095029  0.75136634  1
  V  V24  1  0.13208106  0.37171177  0.24268912  1
  V  V25  1  0.87165958  0.12566618  0.24985458  1
  V  V26  1  0.49529438  0.37184133  0.87733507  1
  V  V27  1  -0.01332357  0.62223081  0.62775629  1
  V  V28  1  0.12472528  0.63011396  -0.00440944  1
  V  V29  1  0.37275056  0.74786470  0.61383736  1
  V  V30  1  0.25663532  0.00064646  0.25619471  1
  V  V31  1  0.75189306  0.62552233  0.37636104  1
  V  V32  1  0.62143544  0.24809564  0.87539736  1
  V  V33  1  0.87213803  0.86883498  0.50372874  1
  V  V34  1  0.24662162  0.63745667  0.37800485  1
  V  V35  1  0.37469321  0.23941852  0.62129606  1
  V  V36  1  0.37452670  0.89168061  0.49731393  1
  V  V37  1  0.37332102  0.62679708  0.25085388  1
  V  V38  1  0.23555041  0.12327831  0.38011673  1
  V  V39  1  0.62628715  0.49716236  0.63074925  1
  V  V40  1  0.11598424  0.37135332  0.75290806  1
  V  V41  1  0.49862155  0.49679905  -0.00100654  1
  V  V42  1  0.61638716  0.11087270  0.49691191  1
  V  V43  1  0.50084276  0.74796477  0.75328582  1
  V  V44  1  0.25004330  0.75753170  -0.00687444  1
  V  V45  1  0.87016262  0.88058745  -0.01277252  1
  V  V46  1  0.12487027  -0.00116225  0.12492032  1
  V  V47  1  0.00766747  0.37623239  0.36953856  1
  V  V48  1  0.49641506  0.86893826  0.88009928  1
  V  V49  1  0.50051290  0.49393275  0.50072102  1
  V  V50  1  0.00321043  0.50200880  0.49494396  1
  V  V51  1  0.73841009  0.75275631  -0.00505122  1
  V  V52  1  0.49996033  0.75159706  0.25186363  1
  V  V53  1  0.31262571  0.31197934  0.06425471  1
  V  V54  1  0.00654802  0.75046574  0.25336797  1
  V  V55  1  0.25364677  0.13323831  0.87156089  1
  V  V56  1  0.49450785  0.24223327  0.74786875  1
  V  V57  1  0.24879331  0.00738571  0.74685124  1
  V  V58  1  0.11091758  0.25538176  0.87517079  1
  V  V59  1  0.13074465  0.12785748  -0.00271354  1
  V  V60  1  0.00326466  0.62444841  0.12260603  1
  V  V61  1  0.87999183  0.37182458  -0.01237150  1
  V  V62  1  0.87631789  0.75517083  0.12421830  1
  V  V63  1  0.62020496  0.00240021  0.12724414  1
  V  V64  1  0.48707987  -0.00330280  0.00221255  1
  V  V65  1  0.62249654  0.24792061  0.37847290  1
  V  V66  1  0.00120870  0.12284603  0.12328604  1
  V  V67  1  0.87469773  0.25153610  0.12329243  1
  V  V68  1  0.75170691  0.87869799  0.12818931  1
  V  V69  1  0.49672318  0.25398499  0.24444200  1
  V  V70  1  0.75075064  0.50396230  0.23788591  1
  V  V71  1  0.50148536  0.11034699  0.62368111  1
  V  V72  1  0.79911776  0.18248634  0.43366232  1
  V  V73  1  0.62095949  0.12229443  -0.00209893  1
  V  V74  1  0.00235581  0.49288381  -0.00564048  1
  V  V75  1  0.74007296  0.88009154  0.62098524  1
  V  V76  1  0.37203866  -0.00095811  0.87104269  1
  V  V77  1  0.23686285  0.25198748  0.49105057  1
  V  V78  1  0.00141241  0.74447463  0.75225181  1
  V  V79  1  0.24867786  0.86838493  0.62368733  1
  V  V80  1  0.00788385  0.24850453  0.24896250  1
  V  V81  1  0.37437180  0.75676221  0.11975978  1
  V  V82  1  -0.00279901  0.00077528  -0.01090271  1
  V  V83  1  0.24623886  0.62891291  0.87207647  1
  V  V84  1  0.49755600  0.62456454  0.62579794  1
  Zn  Zn85  1  0.62432790  0.87707809  0.25496026  1
  Zn  Zn86  1  0.74548106  0.62365326  0.86663262  1
  Zn  Zn87  1  0.61871484  0.63154089  -0.00774733  1
  Zn  Zn88  1  0.75580660  -0.00461117  0.75952498  1
  Zn  Zn89  1  0.00035681  0.00378949  0.50288911  1
  Zn  Zn90  1  0.48521164  0.12974655  0.12190552  1
  Zn  Zn91  1  0.13279480  0.49669876  0.11996042  1
  Zn  Zn92  1  0.50275087  0.37577189  0.37420688  1
  Zn  Zn93  1  0.87697598  0.36418423  0.49438929  1
  Zn  Zn94  1  0.87250305  0.00009620  0.38198860  1
  Zn  Zn95  1  0.74853678  0.37809050  0.12136726  1
  Zn  Zn96  1  -0.02170333  0.16019056  0.61850029  1
  Zn  Zn97  1  0.75898354  0.10707684  0.87790244  1
  Zn  Zn98  1  0.62852132  0.37593709  0.24858617  1
  Zn  Zn99  1  0.87745090  0.49929723  0.36930132  1
  Zn  Zn100  1  0.77222546  0.52096357  0.74446397  1
  Zn  Zn101  1  0.37681688  0.37144669  0.49783344  1
  Zn  Zn102  1  0.37303511  0.62616211  0.74872124  1
  Zn  Zn103  1  0.87617100  0.50530508  0.86561634  1
  Zn  Zn104  1  0.62382072  0.49916633  0.12287284  1
  Zn  Zn105  1  0.12776343  0.87051576  0.75329621  1
  Zn  Zn106  1  0.77649442  0.33989183  0.61743488  1
  Zn  Zn107  1  0.19180238  0.18700611  0.18648319  1
  Zn  Zn108  1  0.15315645  0.20244803  0.67007181  1
  Zn  Zn109  1  0.18817548  0.68702063  0.18660105  1
  Zn  Zn110  1  0.18309793  0.68868877  0.68692716  1
  Zn  Zn111  1  0.68451609  0.18785336  0.18684814  1
  Zn  Zn112  1  0.69759662  0.17637674  0.68479278  1
  Zn  Zn113  1  0.68574841  0.68940559  0.18536580  1
  Zn  Zn114  1  0.68237232  0.68811891  0.69396583  1
  Zn  Zn115  1  0.31489865  0.31286512  0.31120647  1
  Zn  Zn116  1  0.31232526  0.31085710  0.80920876  1
  Zn  Zn117  1  0.31658757  0.81506974  0.31484279  1
  Zn  Zn118  1  0.31683997  0.81445646  0.80820034  1
  Zn  Zn119  1  0.81881467  0.32030415  0.30744780  1
  Zn  Zn120  1  0.81208180  0.30745476  0.81242904  1
  Zn  Zn121  1  0.81264326  0.81134281  0.31398077  1
  Zn  Zn122  1  0.81195044  0.80812493  0.80815466  1
  Zn  Zn123  1  0.18740507  0.43943028  0.43284317  1
  Zn  Zn124  1  0.18922763  0.43473062  0.94060980  1
  Zn  Zn125  1  0.19080829  0.93267102  0.43910913  1
  Zn  Zn126  1  0.18644276  0.93958246  0.93571546  1
  Zn  Zn127  1  0.68982914  0.43378938  0.43387436  1
  Zn  Zn128  1  0.68828216  0.44196840  0.93348074  1
  Zn  Zn129  1  0.68959543  0.93340020  0.44001246  1
  Zn  Zn130  1  0.67690904  0.93438554  0.93661262  1
  Zn  Zn131  1  0.31035150  0.06824307  0.06589932  1
  Zn  Zn132  1  0.30464739  0.06463813  0.56309434  1
  Zn  Zn133  1  0.31606807  0.56421517  0.05880012  1
  Zn  Zn134  1  0.31105172  0.56383779  0.55985101  1
  Zn  Zn135  1  0.81091051  0.06265989  0.06167952  1
  Zn  Zn136  1  0.82019185  0.05577932  0.57463833  1
  Zn  Zn137  1  0.82263843  0.57370187  0.03677730  1
  Zn  Zn138  1  0.79778732  0.52370855  0.54380677  1
  Zn  Zn139  1  0.43555357  0.43517670  0.18600339  1
  Zn  Zn140  1  0.43856424  0.43355446  0.68992588  1
  Zn  Zn141  1  0.43678878  0.93740806  0.19247307  1
  Zn  Zn142  1  0.43133288  0.93415484  0.69075404  1
  Zn  Zn143  1  0.93878988  0.43862265  0.18102349  1
  Zn  Zn144  1  0.93269951  0.42907936  0.68256347  1
  Zn  Zn145  1  0.93708659  0.93963612  0.18779016  1
  Zn  Zn146  1  0.93431131  0.93751428  0.69406322  1
  Zn  Zn147  1  0.06184539  0.05692710  0.31368989  1
  Zn  Zn148  1  0.06242893  0.06201083  0.80579383  1
  Zn  Zn149  1  0.06978072  0.56324298  0.31152407  1
  Zn  Zn150  1  0.06103284  0.55992891  0.81006007  1
  Zn  Zn151  1  0.56408781  0.06782626  0.31328902  1
  Zn  Zn152  1  0.56078534  0.05997344  0.81261849  1
  Zn  Zn153  1  0.56342332  0.56210810  0.31107494  1
  Zn  Zn154  1  0.56730149  0.56545290  0.81653597  1
  Zn  Zn155  1  0.43519274  0.18423860  0.43587494  1
  Zn  Zn156  1  0.43108039  0.18586860  0.93941619  1
  Zn  Zn157  1  0.44033548  0.68593006  0.43810968  1
  Zn  Zn158  1  0.43141411  0.68448042  0.93687870  1
  Zn  Zn159  1  0.97311603  0.18519508  0.43498736  1
  Zn  Zn160  1  0.93628879  0.18358647  0.93181791  1
  Zn  Zn161  1  0.93661616  0.68948558  0.44026758  1
  Zn  Zn162  1  0.93030361  0.68826883  0.93584477  1
  Zn  Zn163  1  0.06930599  0.31079763  0.06182399  1
  Zn  Zn164  1  0.05953352  0.31976902  0.56216079  1
  Zn  Zn165  1  0.06430436  0.81278362  0.06204165  1
  Zn  Zn166  1  0.05823693  0.81279433  0.56889327  1
  Zn  Zn167  1  0.56176179  0.31644976  0.06460068  1
  Zn  Zn168  1  0.59320224  0.29067539  0.58042300  1
  Zn  Zn169  1  0.55932555  0.81977564  0.06657192  1
  Zn  Zn170  1  0.55925804  0.81175661  0.56084328  1
  O  O171  1  0.12102365  0.12013848  0.11589610  1
  O  O172  1  0.13922901  0.09894440  0.62447546  1
  O  O173  1  0.11633326  0.62491010  0.11793752  1
  O  O174  1  0.12070120  0.62063754  0.61323398  1
  O  O175  1  0.62336941  0.11419363  0.11551786  1
  O  O176  1  0.61451346  0.12457577  0.60707153  1
  O  O177  1  0.60777315  0.62703190  0.12414233  1
  O  O178  1  0.61659305  0.62071770  0.61862303  1
  O  O179  1  0.37718706  0.38930703  0.37614532  1
  O  O180  1  0.37991044  0.38622957  0.86891848  1
  O  O181  1  0.38213216  0.87207557  0.38959541  1
  O  O182  1  0.38291061  0.88733475  0.87346532  1
  O  O183  1  0.89158142  0.37916292  0.37490491  1
  O  O184  1  0.87504439  0.37269252  0.88585115  1
  O  O185  1  0.88059954  0.87189335  0.38523320  1
  O  O186  1  0.88299102  0.87175178  0.88526865  1
  O  O187  1  0.24364104  0.01288576  0.37044123  1
  O  O188  1  0.25471302  0.00353229  0.86806496  1
  O  O189  1  0.25743686  0.50924808  0.36671965  1
  O  O190  1  0.25558446  0.50497811  0.87072256  1
  O  O191  1  0.75170981  -0.00792298  0.36140312  1
  O  O192  1  0.74561546  -0.00676555  0.87492574  1
  O  O193  1  0.75196128  0.51347181  0.35949847  1
  O  O194  1  0.75356876  0.49936595  0.86361315  1
  O  O195  1  0.25341738  0.51121900  0.13944037  1
  O  O196  1  0.24804691  0.49265200  0.62828092  1
  O  O197  1  0.24406495  0.99348082  0.13285077  1
  O  O198  1  0.24750539  0.98761992  0.63067399  1
  O  O199  1  0.75286062  0.50815959  0.13174491  1
  O  O200  1  0.73062684  0.50628375  0.63499390  1
  O  O201  1  0.74291861  0.99286939  0.13035764  1
  O  O202  1  0.74708821  0.98121520  0.62858073  1
  O  O203  1  0.00636369  0.36828152  0.25078014  1
  O  O204  1  0.01795479  0.37901425  0.74733667  1
  O  O205  1  0.00674162  0.86932015  0.25502095  1
  O  O206  1  -0.00008808  0.86645859  0.76086366  1
  O  O207  1  0.50215833  0.36474292  0.25242434  1
  O  O208  1  0.50299840  0.36665855  0.76218511  1
  O  O209  1  0.50007842  0.86780994  0.26063893  1
  O  O210  1  0.50132379  0.86793964  0.75634352  1
  O  O211  1  0.49223276  0.13358547  0.25010960  1
  O  O212  1  0.50749067  0.13395851  0.74068515  1
  O  O213  1  0.49245274  0.63044230  0.24353373  1
  O  O214  1  0.49670327  0.63123132  0.74361897  1
  O  O215  1  0.99527959  0.13066947  0.24600435  1
  O  O216  1  0.98830524  0.12172025  0.74493713  1
  O  O217  1  1.00027142  0.63268467  0.24363788  1
  O  O218  1  1.00559734  0.63022329  0.73785346  1
  O  O219  1  0.37595225  0.25283799  0.00910966  1
  O  O220  1  0.36868603  0.25287317  0.50654739  1
  O  O221  1  0.36359982  0.74588228  0.01005295  1
  O  O222  1  0.37857643  0.75071769  0.51119005  1
  O  O223  1  0.86948088  0.25170531  0.00412214  1
  O  O224  1  0.86645461  0.24033381  0.48219976  1
  O  O225  1  0.86539416  0.76409567  0.00911427  1
  O  O226  1  0.88017086  0.76005140  0.51302303  1
  O  O227  1  0.13872213  0.25717167  0.49271884  1
  O  O228  1  0.12338100  0.24076033  0.98708395  1
  O  O229  1  0.12230430  0.73903742  0.50397936  1
  O  O230  1  0.13344672  0.73788469  1.00353208  1
  O  O231  1  0.61799537  0.23823058  0.48187183  1
  O  O232  1  0.62927888  0.24192709  0.99824657  1
  O  O233  1  0.61922066  0.73502926  0.49326299  1
  O  O234  1  0.63592904  0.76081336  1.00496130  1
  O  O235  1  0.50851070  0.24589259  0.14104523  1
  O  O236  1  0.49277204  0.24238787  0.63129549  1
  O  O237  1  0.49182473  0.74697455  0.12866243  1
  O  O238  1  0.49232636  0.74168642  0.62896175  1
  O  O239  1  0.99502011  0.24302158  0.13080944  1
  O  O240  1  1.04883938  0.24375197  0.63936710  1
  O  O241  1  0.99694365  0.74531360  0.13106951  1
  O  O242  1  0.99075767  0.74127189  0.63220593  1
  O  O243  1  0.00035784  0.25920999  0.35768881  1
  O  O244  1  0.01279488  0.25025011  0.87473240  1
  O  O245  1  -0.00321492  0.76108025  0.36561751  1
  O  O246  1  -0.00751080  0.75423319  0.86728729  1
  O  O247  1  0.50583770  0.25149203  0.36519506  1
  O  O248  1  0.49896945  0.25416110  0.87015400  1
  O  O249  1  0.50983559  0.75220505  0.37112805  1
  O  O250  1  0.48507196  0.75763120  0.86649285  1
  O  O251  1  0.25050147  0.13533033  0.48744743  1
  O  O252  1  0.23599866  0.11320912  0.98905802  1
  O  O253  1  0.23621668  0.62275215  0.49360275  1
  O  O254  1  0.24393918  0.63331820  0.99319436  1
  O  O255  1  0.74587133  0.12294880  0.49879471  1
  O  O256  1  0.74018295  0.13032162  0.99844730  1
  O  O257  1  0.74063138  0.61390044  0.48825297  1
  O  O258  1  0.73697787  0.65016988  1.02194727  1
  O  O259  1  0.25932500  0.37710475  0.00542648  1
  O  O260  1  0.25140375  0.36668972  0.50277225  1
  O  O261  1  0.24194628  0.86330159  0.00400901  1
  O  O262  1  0.26512903  0.87360305  0.50617656  1
  O  O263  1  0.75879337  0.36612739  0.00131450  1
  O  O264  1  0.76751951  0.40933726  0.51000077  1
  O  O265  1  0.75361956  0.87147801  0.00879035  1
  O  O266  1  0.75360356  0.87090497  0.51294317  1
  O  O267  1  0.13601544  0.49398047  0.24575870  1
  O  O268  1  0.13323454  0.49332086  0.74523974  1
  O  O269  1  0.13369566  0.99232170  0.24500238  1
  O  O270  1  0.13316423  0.99132755  0.74316645  1
  O  O271  1  0.63568301  0.50244607  0.24530918  1
  O  O272  1  0.61557857  0.48964263  0.74354139  1
  O  O273  1  0.63172965  1.00177880  0.24278453  1
  O  O274  1  0.62059286  0.98352507  0.75026202  1
  O  O275  1  0.36111521  0.00213783  0.25258330  1
  O  O276  1  0.36346080  -0.00281593  0.75938846  1
  O  O277  1  0.37168191  0.50711619  0.25724502  1
  O  O278  1  0.36822795  0.50188307  0.75700033  1
  O  O279  1  0.86852010  0.00795433  0.25253029  1
  O  O280  1  0.87018100  0.01394271  0.74293221  1
  O  O281  1  0.87175535  0.51046093  0.24751600  1
  O  O282  1  0.88431043  0.49910962  0.75183818  1
  O  O283  1  0.11578017  0.38063012  0.36008923  1
  O  O284  1  0.13066259  0.36260693  0.87079106  1
  O  O285  1  0.11884206  0.87729879  0.36434853  1
  O  O286  1  0.11185788  0.87229006  0.87779511  1
  O  O287  1  0.62459089  0.36562496  0.37032465  1
  O  O288  1  0.61590181  0.36861116  0.86943483  1
  O  O289  1  0.61837990  0.86482361  0.37821032  1
  O  O290  1  0.60568445  0.87270402  0.86702796  1
  O  O291  1  0.37062634  0.11896640  0.14700547  1
  O  O292  1  0.37988230  0.13426901  0.61853722  1
  O  O293  1  0.38288007  0.63570147  0.12893359  1
  O  O294  1  0.37874787  0.63095863  0.62550842  1
  O  O295  1  0.88189223  0.13428347  0.12624911  1
  O  O296  1  0.86917519  0.13239952  0.63860889  1
  O  O297  1  0.88847061  0.63375877  0.12466047  1
  O  O298  1  0.88530752  0.62999273  0.61359183  1
  O  O299  1  0.24770380  0.25091942  0.11512845  1
  O  O300  1  0.25242435  0.25487527  0.61301032  1
  O  O301  1  0.25607593  0.75502102  0.11845342  1
  O  O302  1  0.25777353  0.75987854  0.63159554  1
  O  O303  1  0.75729503  0.24774068  0.11398079  1
  O  O304  1  0.70128800  0.26204921  0.61656303  1
  O  O305  1  0.75307646  0.76628001  0.12460465  1
  O  O306  1  0.75814924  0.75570924  0.62709338  1
  O  O307  1  0.25396680  0.24172889  0.38435846  1
  O  O308  1  0.25532242  0.23488201  0.87399555  1
  O  O309  1  0.25467890  0.73648363  0.36990172  1
  O  O310  1  0.25877440  0.74233818  0.88156866  1
  O  O311  1  0.74662456  0.24759639  0.37123857  1
  O  O312  1  0.74096963  0.24789725  0.88808544  1
  O  O313  1  0.73646026  0.73942229  0.36811042  1
  O  O314  1  0.75465460  0.75458922  0.89378465  1
  O  O315  1  0.00826804  0.11724619  0.00155762  1
  O  O316  1  -0.00385607  0.11661444  0.51355119  1
  O  O317  1  0.00892777  0.62348109  0.00651405  1
  O  O318  1  0.01206629  0.62237987  0.50338541  1
  O  O319  1  0.50421073  0.11702393  0.00445263  1
  O  O320  1  0.50841601  0.12294775  0.50486748  1
  O  O321  1  0.49809125  0.61949061  0.00730726  1
  O  O322  1  0.50689375  0.61494230  0.50550001  1
  O  O323  1  0.50028484  0.38949899  0.49902022  1
  O  O324  1  0.50223127  0.38085954  0.98640529  1
  O  O325  1  0.48583834  0.87194892  0.49471765  1
  O  O326  1  0.49975275  0.88391003  0.99282417  1
  O  O327  1  1.00568586  0.38407227  0.48652360  1
  O  O328  1  0.99550939  0.38163225  1.00567417  1
  O  O329  1  0.99314015  0.87359873  0.49324904  1
  O  O330  1  0.99267095  0.87989437  0.99540652  1
  O  O331  1  0.49227310  0.50257021  0.38227166  1
  O  O332  1  0.49146311  0.49257661  0.87944398  1
  O  O333  1  0.50504677  0.98617698  0.36872188  1
  O  O334  1  0.49062199  0.99465639  0.88293987  1
  O  O335  1  1.00363522  0.49474970  0.37676358  1
  O  O336  1  0.99886454  0.50811940  0.89149190  1
  O  O337  1  0.99523540  0.98562351  0.37557747  1
  O  O338  1  1.00590965  0.99148714  0.88561234  1
  O  O339  1  0.00661840  0.00483780  0.11835139  1
  O  O340  1  0.01685883  -0.01361317  0.62661960  1
  O  O341  1  0.00460958  0.51063985  0.11600685  1
  O  O342  1  0.00835777  0.50714394  0.61425669  1
  O  O343  1  0.50461773  0.00010963  0.12076681  1
  O  O344  1  0.49071136  0.01185118  0.63200862  1
  O  O345  1  0.49558019  0.50846259  0.11710708  1
  O  O346  1  0.50098410  0.50810900  0.61952723  1
  O  O347  1  0.24305993  0.38471523  0.25725276  1
  O  O348  1  0.24687549  0.37999334  0.74063491  1
  O  O349  1  0.24415020  0.88113752  0.24968232  1
  O  O350  1  0.24971268  0.88181517  0.74123336  1
  O  O351  1  0.75295686  0.38911715  0.24429722  1
  O  O352  1  0.73649309  0.36996822  0.74725142  1
  O  O353  1  0.74957175  0.88300628  0.24294866  1
  O  O354  1  0.73872406  0.86978905  0.74035107  1
  O  O355  1  0.25190437  0.11949291  0.26100216  1
  O  O356  1  0.24346654  0.11103104  0.75832602  1
  O  O357  1  0.25383758  0.62017529  0.25741854  1
  O  O358  1  0.24846283  0.61956785  0.75641481  1
  O  O359  1  0.75785900  0.11575251  0.24111859  1
  O  O360  1  0.75122074  0.11610823  0.75785195  1
  O  O361  1  0.75712226  0.62386492  0.25221821  1
  O  O362  1  0.75776679  0.63549928  0.75291844  1
  O  O363  1  0.36238032  0.12550717  0.36396039  1
  O  O364  1  0.36642080  0.11070727  0.87947314  1
  O  O365  1  0.36892108  0.61729044  0.37271436  1
  O  O366  1  0.36218667  0.61407607  0.87237535  1
  O  O367  1  0.86668152  0.12534278  0.37430031  1
  O  O368  1  0.87430665  0.12127509  0.86391607  1
  O  O369  1  0.86702859  0.62965193  0.36684626  1
  O  O370  1  0.85348254  0.60968135  0.92093176  1
  O  O371  1  0.12228773  0.37930688  0.13743393  1
  O  O372  1  0.13922773  0.38412648  0.63031253  1
  O  O373  1  0.13020486  0.87852288  0.13620402  1
  O  O374  1  0.13619531  0.87756176  0.62615885  1
  O  O375  1  0.63036830  0.38035973  0.12907183  1
  O  O376  1  0.60551734  0.38896970  0.63938711  1
  O  O377  1  0.63104724  0.88828046  0.12951799  1
  O  O378  1  0.63463941  0.86702781  0.62867283  1
  O  O379  1  0.11732395  0.25655378  0.24342211  1
  O  O380  1  0.13966428  0.25918644  0.76995026  1
  O  O381  1  0.11479509  0.75756973  0.24492639  1
  O  O382  1  0.10808104  0.75326860  0.74512718  1
  O  O383  1  0.61543377  0.24621540  0.25972054  1
  O  O384  1  0.61136755  0.25681207  0.76068472  1
  O  O385  1  0.61743599  0.75234543  0.25791226  1
  O  O386  1  0.60604339  0.76062391  0.74312299  1
  O  O387  1  0.38933466  0.24422698  0.25579390  1
  O  O388  1  0.38531223  0.25362951  0.73826910  1
  O  O389  1  0.37955096  0.74493858  0.24290187  1
  O  O390  1  0.38468427  0.75006804  0.73668562  1
  O  O391  1  0.88200446  0.24495031  0.24067606  1
  O  O392  1  0.86731701  0.23116626  0.75322786  1
  O  O393  1  0.88623773  0.74769114  0.24356783  1
  O  O394  1  0.88666832  0.75361493  0.73893364  1
  O  O395  1  0.38137903  0.50008308  0.49226721  1
  O  O396  1  0.38718436  0.50517028  0.98982971  1
  O  O397  1  0.37201040  0.98981034  0.50247794  1
  O  O398  1  0.38283916  1.00398745  0.99779930  1
  O  O399  1  0.89747711  0.51028330  0.48939701  1
  O  O400  1  0.88728273  0.48211807  1.00995639  1
  O  O401  1  0.87574015  0.98322984  0.50179522  1
  O  O402  1  0.88547420  0.99151655  1.00840200  1
  O  O403  1  0.11650943  0.00551743  0.00508182  1
  O  O404  1  0.12436061  -0.01097555  0.51363726  1
  O  O405  1  0.12204536  0.51066472  0.00166401  1
  O  O406  1  0.11877205  0.50676709  0.50235532  1
  O  O407  1  0.61210241  0.00494594  0.00783007  1
  O  O408  1  0.62618264  0.01237641  0.49273244  1
  O  O409  1  0.61027837  0.50180413  0.00111060  1
  O  O410  1  0.61738760  0.50796781  0.50753520  1
  O  O411  1  0.36771898  0.36683490  0.13065715  1
  O  O412  1  0.36481128  0.36755691  0.62302181  1
  O  O413  1  0.36828983  0.86415162  0.13124628  1
  O  O414  1  0.37035326  0.86842817  0.61418771  1
  O  O415  1  0.87517512  0.36008680  0.11963145  1
  O  O416  1  0.88515205  0.36112930  0.60980321  1
  O  O417  1  0.86731471  0.87448308  0.11939289  1
  O  O418  1  0.86331828  0.86587455  0.62215982  1
  O  O419  1  0.13604511  0.12655495  0.36981334  1
  O  O420  1  0.12990824  0.13435601  0.87842784  1
  O  O421  1  0.13182574  0.62501672  0.38797313  1
  O  O422  1  0.13779138  0.62098383  0.88130419  1
  O  O423  1  0.62581846  0.13022508  0.38610701  1
  O  O424  1  0.61914412  0.12877865  0.88833634  1
  O  O425  1  0.63005219  0.63013885  0.38159763  1
  O  O426  1  0.63007922  0.62904236  0.88036500  1
