# generated using pymatgen
data_V85Zn86O256
_symmetry_space_group_name_H-M   'P 1'
_cell_length_a   16.92170743
_cell_length_b   16.91842115
_cell_length_c   16.92183207
_cell_angle_alpha   89.98255052
_cell_angle_beta   89.95520534
_cell_angle_gamma   90.05028724
_symmetry_Int_Tables_number   1
_chemical_formula_structural   V85Zn86O256
_chemical_formula_sum   'V85 Zn86 O256'
_cell_volume   4844.52358304
_cell_formula_units_Z   1
loop_
 _symmetry_equiv_pos_site_id
 _symmetry_equiv_pos_as_xyz
  1  'x, y, z'
loop_
 _atom_site_type_symbol
 _atom_site_label
 _atom_site_symmetry_multiplicity
 _atom_site_fract_x
 _atom_site_fract_y
 _atom_site_fract_z
 _atom_site_occupancy
  V  V0  1  0.87658689  0.37899329  0.00115068  1
  V  V1  1  0.62790492  0.88132421  0.24376596  1
  V  V2  1  0.37448469  0.11869005  0.24423809  1
  V  V3  1  -0.01197358  -0.00536000  0.50327045  1
  V  V4  1  0.24914336  0.62495535  0.88056837  1
  V  V5  1  0.51670576  0.00040361  0.00261345  1
  V  V6  1  0.87303264  0.13162986  0.75253379  1
  V  V7  1  0.37021474  0.49389424  0.87784897  1
  V  V8  1  0.25168145  0.25281476  0.50173193  1
  V  V9  1  0.26037398  0.25550222  0.00145072  1
  V  V10  1  0.24548233  0.86975637  0.62937405  1
  V  V11  1  0.49628361  0.49775503  0.00143590  1
  V  V12  1  0.75189126  0.25626352  0.49973255  1
  V  V13  1  0.75078168  0.87254870  0.61876226  1
  V  V14  1  0.01038960  0.75002388  0.25552284  1
  V  V15  1  0.13294211  0.75555708  0.86825684  1
  V  V16  1  0.74848297  -0.00411558  0.75021459  1
  V  V17  1  0.87687635  0.75119795  0.12635227  1
  V  V18  1  0.03177292  0.27116337  0.72374958  1
  V  V19  1  0.62499312  0.25091316  0.37553922  1
  V  V20  1  0.87294720  0.00167409  0.36319843  1
  V  V21  1  0.75375155  0.74706398  0.49138647  1
  V  V22  1  0.13009108  0.50213939  0.12786905  1
  V  V23  1  0.37563586  0.62181098  0.25295658  1
  V  V24  1  0.74638432  0.24502572  -0.00350372  1
  V  V25  1  0.12290549  0.24948192  0.37236051  1
  V  V26  1  0.12171856  0.25484459  0.88157522  1
  V  V27  1  0.24821708  0.87432918  0.12169136  1
  V  V28  1  0.37152311  -0.00415355  0.37172597  1
  V  V29  1  0.23728316  0.48614159  0.73851635  1
  V  V30  1  0.49833458  0.12264761  0.62372299  1
  V  V31  1  0.62379089  0.74303032  0.37076948  1
  V  V32  1  0.87817361  0.75176601  0.62169197  1
  V  V33  1  0.24701156  -0.00300087  0.75065368  1
  V  V34  1  0.73977449  0.38344232  0.62330056  1
  V  V35  1  0.75153692  0.37846347  0.12554585  1
  V  V36  1  0.23708345  0.74247741  0.49364708  1
  V  V37  1  0.37590177  -0.00254164  0.87976159  1
  V  V38  1  0.13168047  0.88170574  0.25775941  1
  V  V39  1  0.37382850  0.12301137  0.74892146  1
  V  V40  1  0.62290134  -0.00906884  0.62709094  1
  V  V41  1  0.87257047  0.62886870  0.25825636  1
  V  V42  1  0.12617373  0.37887393  0.25133750  1
  V  V43  1  0.63001622  0.62531465  -0.00965107  1
  V  V44  1  0.49839200  0.25039597  0.24862081  1
  V  V45  1  0.50454947  0.75299102  0.74909381  1
  V  V46  1  0.37245860  0.37729261  0.50706996  1
  V  V47  1  0.62582105  0.50546206  0.12483154  1
  V  V48  1  0.24970744  0.11949060  0.36859240  1
  V  V49  1  0.62325839  0.62332622  0.51116240  1
  V  V50  1  0.01266711  0.62693186  0.62505658  1
  V  V51  1  -0.00236280  0.12481801  0.13337368  1
  V  V52  1  0.24898824  0.12548191  0.87589570  1
  V  V53  1  0.87259846  0.49744101  0.38723950  1
  V  V54  1  0.37425633  0.87122642  0.49778200  1
  V  V55  1  0.62391396  0.37947586  0.25142825  1
  V  V56  1  0.87149245  0.50845661  0.87401428  1
  V  V57  1  0.50184986  0.24995782  0.74965600  1
  V  V58  1  0.49727001  0.38094540  0.37647927  1
  V  V59  1  0.49950612  0.37473194  0.87840487  1
  V  V60  1  0.75388811  0.74525982  -0.00897506  1
  V  V61  1  0.01814480  0.49893362  0.50658477  1
  V  V62  1  -0.00413697  0.12489857  0.62580337  1
  V  V63  1  0.00294325  -0.00117369  -0.00188176  1
  V  V64  1  0.62538938  0.12198905  0.49752476  1
  V  V65  1  0.12397841  -0.00301918  0.63008052  1
  V  V66  1  0.87581879  0.24834713  0.13112458  1
  V  V67  1  0.87915467  0.87458079  -0.00081697  1
  V  V68  1  0.12506043  0.12193225  0.50006556  1
  V  V69  1  0.87537457  0.63219173  0.74999113  1
  V  V70  1  0.50110186  0.50476586  0.51521598  1
  V  V71  1  0.25750147  0.37817874  0.12707299  1
  V  V72  1  0.37383018  0.86473869  -0.00102743  1
  V  V73  1  0.75049436  0.50817603  0.25614075  1
  V  V74  1  0.37780983  0.74163761  0.62213982  1
  V  V75  1  -0.00187884  0.86903382  0.38145274  1
  V  V76  1  0.74269017  0.50632390  0.75020825  1
  V  V77  1  0.00194882  0.62493228  0.12496897  1
  V  V78  1  0.12553691  0.12492109  0.00363550  1
  V  V79  1  0.86814793  0.25983279  0.62609528  1
  V  V80  1  0.00108821  0.37739590  0.87141516  1
  V  V81  1  0.23520240  0.62050253  0.37079801  1
  V  V82  1  0.37684598  0.62005862  0.74643364  1
  V  V83  1  0.00521210  0.87086835  0.85887749  1
  V  V84  1  0.51386247  0.12284468  0.12138058  1
  Zn  Zn85  1  0.00247817  0.50424293  -0.00130198  1
  Zn  Zn86  1  0.74673131  0.87937046  0.12046349  1
  Zn  Zn87  1  0.62184880  0.24653614  0.87904018  1
  Zn  Zn88  1  0.36851065  0.50011672  0.37509118  1
  Zn  Zn89  1  0.74542914  0.01474194  0.23327039  1
  Zn  Zn90  1  0.13145878  0.63262803  0.00338772  1
  Zn  Zn91  1  0.37260195  0.25086998  0.62626464  1
  Zn  Zn92  1  0.37231032  0.74690396  0.12396144  1
  Zn  Zn93  1  0.49887054  0.62869319  0.12436187  1
  Zn  Zn94  1  0.50815526  0.87589616  0.87106875  1
  Zn  Zn95  1  0.50072506  0.87359685  0.37215369  1
  Zn  Zn96  1  0.74017086  0.11726908  0.87872190  1
  Zn  Zn97  1  0.75897661  0.12810835  0.37164549  1
  Zn  Zn98  1  -0.00424672  0.37314072  0.38164457  1
  Zn  Zn99  1  0.13051189  0.00210856  0.13098172  1
  Zn  Zn100  1  0.63400645  0.75269163  0.86617454  1
  Zn  Zn101  1  0.62045487  0.38254469  0.74784473  1
  Zn  Zn102  1  0.49910996  0.75271896  0.24529162  1
  Zn  Zn103  1  0.37762824  0.25094927  0.12281149  1
  Zn  Zn104  1  0.49857643  -0.00308193  0.49913583  1
  Zn  Zn105  1  -0.00654794  0.24873202  0.25587230  1
  Zn  Zn106  1  0.87840784  0.00132474  0.87116954  1
  Zn  Zn107  1  0.18882670  0.18986582  0.18816455  1
  Zn  Zn108  1  0.18559179  0.19411671  0.68450942  1
  Zn  Zn109  1  0.19133206  0.69205207  0.18948253  1
  Zn  Zn110  1  0.19192357  0.68511088  0.69494699  1
  Zn  Zn111  1  0.69076425  0.18997715  0.18960529  1
  Zn  Zn112  1  0.68428817  0.18435764  0.68908375  1
  Zn  Zn113  1  0.68858227  0.69248354  0.18135508  1
  Zn  Zn114  1  0.69033171  0.68554378  0.68467751  1
  Zn  Zn115  1  0.31198840  0.31091815  0.31285169  1
  Zn  Zn116  1  0.31397762  0.31318604  0.81301953  1
  Zn  Zn117  1  0.30972866  0.80652436  0.31042066  1
  Zn  Zn118  1  0.31525313  0.81108805  0.81122315  1
  Zn  Zn119  1  0.81096708  0.31773510  0.31376750  1
  Zn  Zn120  1  0.81195102  0.31927921  0.81094327  1
  Zn  Zn121  1  0.81348941  0.81845115  0.31343208  1
  Zn  Zn122  1  0.81604193  0.81542286  0.80968959  1
  Zn  Zn123  1  0.18831875  0.43643996  0.43701441  1
  Zn  Zn124  1  0.18642566  0.43996489  0.94181626  1
  Zn  Zn125  1  0.18577320  0.93452089  0.44064627  1
  Zn  Zn126  1  0.18773487  0.93451278  0.93992538  1
  Zn  Zn127  1  0.68693486  0.44179365  0.43887184  1
  Zn  Zn128  1  0.68714403  0.43626504  0.93463028  1
  Zn  Zn129  1  0.68797854  0.93214515  0.43521113  1
  Zn  Zn130  1  0.69011773  0.92959966  0.93048117  1
  Zn  Zn131  1  0.31308472  0.05752484  0.06509878  1
  Zn  Zn132  1  0.31070391  0.06100206  0.55952868  1
  Zn  Zn133  1  0.31334774  0.56140456  0.06390418  1
  Zn  Zn134  1  0.30636301  0.56059776  0.56053810  1
  Zn  Zn135  1  0.81523600  0.06172845  0.06251932  1
  Zn  Zn136  1  0.80892031  0.06646270  0.56275334  1
  Zn  Zn137  1  0.81407012  0.56549203  0.06522804  1
  Zn  Zn138  1  0.80875620  0.56893028  0.56556952  1
  Zn  Zn139  1  0.43582411  0.44395862  0.18978716  1
  Zn  Zn140  1  0.43224078  0.43639449  0.68971457  1
  Zn  Zn141  1  0.44033344  0.93592606  0.18432378  1
  Zn  Zn142  1  0.43360692  0.93432608  0.68593130  1
  Zn  Zn143  1  0.94043645  0.43878040  0.19272959  1
  Zn  Zn144  1  0.93263298  0.44290294  0.68481672  1
  Zn  Zn145  1  0.94190384  0.93587056  0.18673600  1
  Zn  Zn146  1  0.93105705  0.93719243  0.68515993  1
  Zn  Zn147  1  0.05882698  0.05925175  0.31486857  1
  Zn  Zn148  1  0.05998177  0.06855007  0.81094984  1
  Zn  Zn149  1  0.05861676  0.55867449  0.31299052  1
  Zn  Zn150  1  0.06315112  0.56596760  0.80914747  1
  Zn  Zn151  1  0.55947068  0.06033971  0.31296492  1
  Zn  Zn152  1  0.56524072  0.06321064  0.81470874  1
  Zn  Zn153  1  0.56046457  0.56628790  0.31701349  1
  Zn  Zn154  1  0.55841866  0.56725576  0.81222820  1
  Zn  Zn155  1  0.43732139  0.18744384  0.43562494  1
  Zn  Zn156  1  0.44051664  0.18264594  0.93743123  1
  Zn  Zn157  1  0.43808629  0.68627092  0.43357965  1
  Zn  Zn158  1  0.44000168  0.68227305  0.93375604  1
  Zn  Zn159  1  0.93618256  0.18550874  0.44127354  1
  Zn  Zn160  1  0.93601860  0.19028954  0.93909017  1
  Zn  Zn161  1  0.94118916  0.68276684  0.44097718  1
  Zn  Zn162  1  0.94523908  0.69138566  0.93517535  1
  Zn  Zn163  1  0.06229932  0.31518795  0.06427687  1
  Zn  Zn164  1  0.06253417  0.31500809  0.55633112  1
  Zn  Zn165  1  0.06827031  0.81009447  0.05964044  1
  Zn  Zn166  1  0.06184711  0.81192502  0.56647999  1
  Zn  Zn167  1  0.56258755  0.31516217  0.06508565  1
  Zn  Zn168  1  0.56154747  0.31243902  0.56323267  1
  Zn  Zn169  1  0.56067740  0.81025274  0.06109970  1
  Zn  Zn170  1  0.56071292  0.80841829  0.56142707  1
  O  O171  1  0.12035168  0.12585481  0.11669074  1
  O  O172  1  0.11832009  0.11862773  0.61853595  1
  O  O173  1  0.12094335  0.62016611  0.12788375  1
  O  O174  1  0.11120021  0.63124183  0.63114830  1
  O  O175  1  0.61274283  0.13204994  0.12633646  1
  O  O176  1  0.61988447  0.11579244  0.61447942  1
  O  O177  1  0.62445045  0.61905386  0.11493600  1
  O  O178  1  0.62130704  0.62955361  0.61003372  1
  O  O179  1  0.38157776  0.37691256  0.38193349  1
  O  O180  1  0.38506046  0.38524329  0.87351357  1
  O  O181  1  0.37173384  0.87980080  0.37972108  1
  O  O182  1  0.37742904  0.88159505  0.88157693  1
  O  O183  1  0.87928696  0.39226632  0.36905440  1
  O  O184  1  0.88436514  0.38212225  0.88182257  1
  O  O185  1  0.88872075  0.88592980  0.37405507  1
  O  O186  1  0.89086392  0.87578918  0.87946238  1
  O  O187  1  0.25942745  0.00657069  0.37988766  1
  O  O188  1  0.25429101  0.00462570  0.87085026  1
  O  O189  1  0.24963911  0.51648089  0.38180366  1
  O  O190  1  0.25606964  0.50339409  0.87162006  1
  O  O191  1  0.76875742  -0.00413064  0.38073911  1
  O  O192  1  0.75685029  -0.00046165  0.86444915  1
  O  O193  1  0.75814178  0.49798562  0.36436878  1
  O  O194  1  0.76443218  0.49331564  0.86760395  1
  O  O195  1  0.24143271  0.49158989  0.12237357  1
  O  O196  1  0.25024230  0.50041330  0.63884362  1
  O  O197  1  0.24796018  0.98377517  0.12538893  1
  O  O198  1  0.24277614  0.99150126  0.62789655  1
  O  O199  1  0.74720172  0.49669722  0.13522137  1
  O  O200  1  0.75575571  0.49313767  0.63491170  1
  O  O201  1  0.75771557  0.99199675  0.12334565  1
  O  O202  1  0.74376694  0.99201977  0.62647275  1
  O  O203  1  0.01294367  0.37058256  0.25317137  1
  O  O204  1  -0.00819481  0.36813865  0.75613046  1
  O  O205  1  0.00684768  0.86697004  0.25794763  1
  O  O206  1  -0.00047896  0.88215046  0.76093501  1
  O  O207  1  0.50305505  0.37318786  0.25721187  1
  O  O208  1  0.49892248  0.36763744  0.75737351  1
  O  O209  1  0.51183853  0.87468677  0.25140549  1
  O  O210  1  0.49097204  0.85702010  0.74896741  1
  O  O211  1  0.49394976  0.12855077  0.24237970  1
  O  O212  1  0.49337755  0.13007662  0.74380610  1
  O  O213  1  0.48789349  0.62561260  0.24950889  1
  O  O214  1  0.48434955  0.63163448  0.75117266  1
  O  O215  1  1.00492834  0.12712955  0.23710185  1
  O  O216  1  0.99513090  0.14098757  0.74093560  1
  O  O217  1  0.99484198  0.63182754  0.24412588  1
  O  O218  1  0.99002113  0.61648505  0.73339176  1
  O  O219  1  0.36339617  0.24585517  -0.00009091  1
  O  O220  1  0.36788887  0.25774244  0.49652769  1
  O  O221  1  0.38165765  0.76183251  -0.00376162  1
  O  O222  1  0.36837086  0.75296886  0.50564429  1
  O  O223  1  0.86933549  0.26115075  0.00843612  1
  O  O224  1  0.85962402  0.24443230  0.50817547  1
  O  O225  1  0.87465988  0.75592313  0.00354661  1
  O  O226  1  0.86429209  0.73986922  0.50744118  1
  O  O227  1  0.13125944  0.24522379  0.48797604  1
  O  O228  1  0.13063504  0.24388089  0.99600716  1
  O  O229  1  0.13940547  0.75132980  0.50401793  1
  O  O230  1  0.11910359  0.74646380  0.98048539  1
  O  O231  1  0.63185692  0.24291335  0.49668296  1
  O  O232  1  0.64369829  0.25940373  1.00259784  1
  O  O233  1  0.62894711  0.74162272  0.49353921  1
  O  O234  1  0.63659668  0.74219932  1.00057513  1
  O  O235  1  0.49690349  0.24471280  0.12945463  1
  O  O236  1  0.49665100  0.24246696  0.63196694  1
  O  O237  1  0.49242746  0.74585020  0.12579920  1
  O  O238  1  0.48625033  0.75257227  0.63265910  1
  O  O239  1  0.99294503  0.24351848  0.12488229  1
  O  O240  1  0.98208209  0.24432647  0.61982047  1
  O  O241  1  0.99780470  0.74377055  0.13440551  1
  O  O242  1  0.99239410  0.73723495  0.61773104  1
  O  O243  1  0.00685574  0.25089133  0.37713391  1
  O  O244  1  0.00659919  0.26024278  0.87446019  1
  O  O245  1  -0.00556617  0.75685429  0.36927290  1
  O  O246  1  0.00860404  0.76503110  0.87141603  1
  O  O247  1  0.50506932  0.26107196  0.37111875  1
  O  O248  1  0.49691422  0.25807119  0.86999386  1
  O  O249  1  0.50960254  0.75302140  0.37120136  1
  O  O250  1  0.49638679  0.74894236  0.85730418  1
  O  O251  1  0.24490374  0.12838499  0.48729375  1
  O  O252  1  0.24270957  0.13110195  0.99818509  1
  O  O253  1  0.25215402  0.63527921  0.48871425  1
  O  O254  1  0.25230531  0.62088538  0.98521284  1
  O  O255  1  0.74052557  0.13321350  0.49527554  1
  O  O256  1  0.76164121  0.14229944  0.99589410  1
  O  O257  1  0.73534368  0.63359868  0.50226193  1
  O  O258  1  0.74425471  0.63302358  1.00345462  1
  O  O259  1  0.24390767  0.36562922  0.01155859  1
  O  O260  1  0.25886119  0.36537961  0.49334031  1
  O  O261  1  0.25797233  0.87675949  0.01041431  1
  O  O262  1  0.25666658  0.86266206  0.50455939  1
  O  O263  1  0.76127478  0.37247555  0.00475004  1
  O  O264  1  0.74410220  0.36803319  0.50810118  1
  O  O265  1  0.76833413  0.87011885  -0.00332131  1
  O  O266  1  0.74715496  0.86467180  0.51136675  1
  O  O267  1  0.12076537  0.49196671  0.24022929  1
  O  O268  1  0.13854970  0.49973955  0.75414179  1
  O  O269  1  0.11733767  0.98643172  0.24807204  1
  O  O270  1  0.12851505  1.00845688  0.73703663  1
  O  O271  1  0.63247683  0.50092038  0.24757636  1
  O  O272  1  0.63806068  0.50462629  0.75810227  1
  O  O273  1  0.62769625  0.98506262  0.25972125  1
  O  O274  1  0.63455777  1.00515046  0.73722224  1
  O  O275  1  0.37914198  0.01022085  0.25627462  1
  O  O276  1  0.37079510  0.00222997  0.76132117  1
  O  O277  1  0.37427811  0.51505807  0.25552042  1
  O  O278  1  0.36910501  0.50443806  0.75817637  1
  O  O279  1  0.87681366  -0.00262010  0.26137658  1
  O  O280  1  0.86851129  0.01184820  0.74800363  1
  O  O281  1  0.86917889  0.50892232  0.25686743  1
  O  O282  1  0.86688148  0.50935698  0.75670750  1
  O  O283  1  0.12357650  0.36694146  0.36899722  1
  O  O284  1  0.11159476  0.36887794  0.88339335  1
  O  O285  1  0.11334720  0.87993445  0.36904369  1
  O  O286  1  0.11783992  0.86750133  0.87531131  1
  O  O287  1  0.61732343  0.37208615  0.37127782  1
  O  O288  1  0.61175751  0.37165990  0.87153546  1
  O  O289  1  0.62370499  0.86337893  0.36767010  1
  O  O290  1  0.62107088  0.86502377  0.87304982  1
  O  O291  1  0.38004181  0.12582897  0.13264150  1
  O  O292  1  0.38140903  0.12153271  0.62999519  1
  O  O293  1  0.37145806  0.62491799  0.13889127  1
  O  O294  1  0.36728863  0.63250973  0.63131322  1
  O  O295  1  0.88650866  0.13700787  0.11726291  1
  O  O296  1  0.87565920  0.13345079  0.63427468  1
  O  O297  1  0.88389904  0.63000766  0.13635318  1
  O  O298  1  0.88003608  0.63477869  0.63144473  1
  O  O299  1  0.25162652  0.25775828  0.11772354  1
  O  O300  1  0.25541621  0.23881227  0.60565502  1
  O  O301  1  0.25334280  0.76592807  0.12624248  1
  O  O302  1  0.25572387  0.75306251  0.61824405  1
  O  O303  1  0.75682462  0.25799692  0.11564013  1
  O  O304  1  0.75051863  0.25639739  0.61921294  1
  O  O305  1  0.76099903  0.75602587  0.11226576  1
  O  O306  1  0.75563372  0.75618800  0.61760206  1
  O  O307  1  0.24343030  0.24076793  0.38182533  1
  O  O308  1  0.24412946  0.24682768  0.88401696  1
  O  O309  1  0.25001695  0.74107393  0.38788445  1
  O  O310  1  0.24180142  0.74297396  0.87067746  1
  O  O311  1  0.74398358  0.25336679  0.38348566  1
  O  O312  1  0.75234456  0.25702655  0.88976271  1
  O  O313  1  0.74587855  0.75619803  0.38643896  1
  O  O314  1  0.75573876  0.75272148  0.88632984  1
  O  O315  1  0.00724093  0.11941647  0.00489523  1
  O  O316  1  0.00606316  0.11579204  0.50693793  1
  O  O317  1  -0.00127167  0.62594456  0.01599604  1
  O  O318  1  -0.00126660  0.61259072  0.51322715  1
  O  O319  1  0.49619811  0.11018115  0.00685246  1
  O  O320  1  0.50537948  0.12354179  0.50731407  1
  O  O321  1  0.50828803  0.61304931  -0.00046035  1
  O  O322  1  0.51040007  0.61745873  0.49492776  1
  O  O323  1  0.49454163  0.38068296  0.49355785  1
  O  O324  1  0.50493589  0.38753437  0.99389574  1
  O  O325  1  0.48492529  0.87355921  0.49904887  1
  O  O326  1  0.49205696  0.88765972  1.00017092  1
  O  O327  1  1.00113217  0.39193805  0.50177571  1
  O  O328  1  0.98947636  0.37814901  0.99450514  1
  O  O329  1  1.00584319  0.88245019  0.49360362  1
  O  O330  1  0.99618023  0.88207753  0.99400688  1
  O  O331  1  0.49933633  0.48901500  0.38173500  1
  O  O332  1  0.49297976  0.49376520  0.88023056  1
  O  O333  1  0.48433399  0.99774050  0.37910966  1
  O  O334  1  0.49229421  0.99932690  0.88426375  1
  O  O335  1  0.99259387  0.50161431  0.39122965  1
  O  O336  1  0.99217139  0.49415934  0.87494761  1
  O  O337  1  0.99104550  0.99401531  0.38458270  1
  O  O338  1  1.00399971  0.99129881  0.88036946  1
  O  O339  1  0.00242926  0.00813303  0.11597063  1
  O  O340  1  0.00508983  0.00210924  0.62126825  1
  O  O341  1  0.00660793  0.50974165  0.12636875  1
  O  O342  1  -0.00490748  0.50912746  0.61353930  1
  O  O343  1  0.49872517  0.00680801  0.11046794  1
  O  O344  1  0.50667226  0.00233286  0.62384987  1
  O  O345  1  0.50658899  0.50179993  0.11705898  1
  O  O346  1  0.49911224  0.49443539  0.61447084  1
  O  O347  1  0.23633898  0.36709984  0.24327671  1
  O  O348  1  0.25286283  0.38649581  0.75256859  1
  O  O349  1  0.23935308  0.87036627  0.24346146  1
  O  O350  1  0.25618229  0.88225201  0.73949228  1
  O  O351  1  0.74331853  0.38537035  0.24462636  1
  O  O352  1  0.74589668  0.38562402  0.74250166  1
  O  O353  1  0.73781543  0.87682490  0.24859885  1
  O  O354  1  0.75780270  0.88756931  0.73705937  1
  O  O355  1  0.25714309  0.12841295  0.26044853  1
  O  O356  1  0.25521211  0.11918410  0.75458450  1
  O  O357  1  0.25719242  0.63205874  0.26439895  1
  O  O358  1  0.25988997  0.61584537  0.76063532  1
  O  O359  1  0.74337739  0.12456199  0.26052643  1
  O  O360  1  0.75748020  0.11550219  0.74821519  1
  O  O361  1  0.75977038  0.61909352  0.24349125  1
  O  O362  1  0.76068662  0.61847522  0.74549909  1
  O  O363  1  0.36804119  0.11723557  0.36912157  1
  O  O364  1  0.36793041  0.11714035  0.87025688  1
  O  O365  1  0.36679535  0.62391673  0.36613856  1
  O  O366  1  0.36928021  0.61416461  0.86827233  1
  O  O367  1  0.87859632  0.10671500  0.38008413  1
  O  O368  1  0.87571984  0.12718532  0.86153823  1
  O  O369  1  0.88071932  0.61557636  0.36366117  1
  O  O370  1  0.88639475  0.61827789  0.86570157  1
  O  O371  1  0.13081059  0.38210205  0.13181622  1
  O  O372  1  0.11015404  0.30337221  0.65803323  1
  O  O373  1  0.13403480  0.87586745  0.13053129  1
  O  O374  1  0.13642311  0.88136720  0.62281251  1
  O  O375  1  0.63056121  0.38515274  0.13209094  1
  O  O376  1  0.63510850  0.37394215  0.62807634  1
  O  O377  1  0.62614025  0.86836456  0.14023835  1
  O  O378  1  0.63097738  0.88375787  0.61966604  1
  O  O379  1  0.12319943  0.25315562  0.26191388  1
  O  O380  1  0.12462873  0.22871795  0.77823146  1
  O  O381  1  0.11415402  0.75891707  0.24889748  1
  O  O382  1  0.12482075  0.74620132  0.76721184  1
  O  O383  1  0.61792872  0.25991056  0.25596837  1
  O  O384  1  0.61028592  0.25169883  0.74869583  1
  O  O385  1  0.62614204  0.75619337  0.25636289  1
  O  O386  1  0.60752061  0.73879309  0.74535441  1
  O  O387  1  0.38203322  0.23711405  0.25184098  1
  O  O388  1  0.38389602  0.24350835  0.74906448  1
  O  O389  1  0.37748929  0.73723623  0.24997811  1
  O  O390  1  0.37827221  0.74044964  0.74084495  1
  O  O391  1  0.87441458  0.25905816  0.23575234  1
  O  O392  1  0.87049559  0.24549500  0.74095294  1
  O  O393  1  0.88190731  0.74512516  0.24762561  1
  O  O394  1  0.87115428  0.73997041  0.74114069  1
  O  O395  1  0.38197192  0.49402634  0.49795739  1
  O  O396  1  0.38486784  0.50373275  0.99130944  1
  O  O397  1  0.37255444  0.98791844  0.49274855  1
  O  O398  1  0.37577566  0.99323999  0.98860838  1
  O  O399  1  0.87037116  0.50769461  0.48818672  1
  O  O400  1  0.87640857  0.49599466  0.99314715  1
  O  O401  1  0.88587217  1.00155500  0.50302404  1
  O  O402  1  0.88900166  0.99403972  0.99399346  1
  O  O403  1  0.11716265  0.00679213  0.00277006  1
  O  O404  1  0.11873450  0.00333878  0.51155723  1
  O  O405  1  0.12121183  0.50620039  0.01356481  1
  O  O406  1  0.11694705  0.49941228  0.50313578  1
  O  O407  1  0.61463208  -0.00466949  -0.00437315  1
  O  O408  1  0.62357338  0.00594563  0.50469544  1
  O  O409  1  0.62235312  0.50649776  0.00368147  1
  O  O410  1  0.61833084  0.51533514  0.49519146  1
  O  O411  1  0.36137662  0.37380366  0.13442948  1
  O  O412  1  0.37822315  0.37051144  0.61095323  1
  O  O413  1  0.36601622  0.87535700  0.11705722  1
  O  O414  1  0.36323638  0.86777805  0.61626317  1
  O  O415  1  0.87291085  0.37378689  0.11816632  1
  O  O416  1  0.86265916  0.36498108  0.62936290  1
  O  O417  1  0.88333473  0.86687535  0.11443093  1
  O  O418  1  0.86914387  0.86050342  0.62569793  1
  O  O419  1  0.13074339  0.12834470  0.37774079  1
  O  O420  1  0.12851611  0.12763546  0.89039732  1
  O  O421  1  0.13596280  0.62498094  0.36743129  1
  O  O422  1  0.13198873  0.63334745  0.87630205  1
  O  O423  1  0.61893644  0.13022672  0.38749841  1
  O  O424  1  0.62856238  0.13363564  0.87245224  1
  O  O425  1  0.62504190  0.63814244  0.38103919  1
  O  O426  1  0.62256382  0.63090092  0.88655782  1
