# generated using pymatgen
data_V85Zn86O256
_symmetry_space_group_name_H-M   'P 1'
_cell_length_a   16.95402966
_cell_length_b   16.97017978
_cell_length_c   16.96921289
_cell_angle_alpha   89.91526968
_cell_angle_beta   90.03043098
_cell_angle_gamma   90.04839932
_symmetry_Int_Tables_number   1
_chemical_formula_structural   V85Zn86O256
_chemical_formula_sum   'V85 Zn86 O256'
_cell_volume   4882.25421671
_cell_formula_units_Z   1
loop_
 _symmetry_equiv_pos_site_id
 _symmetry_equiv_pos_as_xyz
  1  'x, y, z'
loop_
 _atom_site_type_symbol
 _atom_site_label
 _atom_site_symmetry_multiplicity
 _atom_site_fract_x
 _atom_site_fract_y
 _atom_site_fract_z
 _atom_site_occupancy
  V  V0  1  0.25904742  0.85513385  0.10999953  1
  V  V1  1  0.25381945  0.88194350  0.63254876  1
  V  V2  1  0.16088782  0.22368832  0.34476887  1
  V  V3  1  -0.00752710  0.74632559  0.75005512  1
  V  V4  1  0.25368247  0.38066492  0.62859219  1
  V  V5  1  0.82383345  0.57441903  0.70982803  1
  V  V6  1  -0.00818665  0.87458773  0.37693296  1
  V  V7  1  0.86771808  0.24798643  0.12701110  1
  V  V8  1  0.87071673  0.24935804  0.63183611  1
  V  V9  1  0.87736628  0.75703865  0.61669763  1
  V  V10  1  0.25483278  0.50316253  0.76587532  1
  V  V11  1  0.61959368  0.37080043  0.76779504  1
  V  V12  1  0.50484898  0.74934509  0.75031425  1
  V  V13  1  0.00071687  0.50227732  0.01755303  1
  V  V14  1  0.12502337  0.37765973  0.75285223  1
  V  V15  1  0.62980411  0.87482062  0.74907430  1
  V  V16  1  -0.00437075  0.37976202  0.87817116  1
  V  V17  1  0.11860906  0.74131469  0.88000086  1
  V  V18  1  0.49875621  0.87421276  0.87682048  1
  V  V19  1  0.74533234  0.48704697  0.24650956  1
  V  V20  1  0.00095780  0.00041455  0.00089914  1
  V  V21  1  0.75947613  0.00854834  0.74871522  1
  V  V22  1  0.75590292  0.63018652  0.89133693  1
  V  V23  1  0.87902651  0.62455122  0.24285392  1
  V  V24  1  0.25047534  0.74660063  0.50429246  1
  V  V25  1  0.62240334  0.87364402  0.24668911  1
  V  V26  1  0.88166498  0.00387749  0.87446983  1
  V  V27  1  0.12882023  0.87052754  0.75226570  1
  V  V28  1  0.74933702  0.00153372  0.25020207  1
  V  V29  1  0.12534759  0.25113738  0.88060988  1
  V  V30  1  0.74783525  0.87322441  0.11285427  1
  V  V31  1  0.12831172  0.50254010  0.62725455  1
  V  V32  1  0.13438996  0.87659815  0.24856686  1
  V  V33  1  0.48766329  0.75166539  0.24572463  1
  V  V34  1  0.12124449  0.62227746  0.01049858  1
  V  V35  1  0.49508606  -0.00011926  0.49951785  1
  V  V36  1  0.62865548  0.00387417  0.62431874  1
  V  V37  1  0.00548968  0.36756539  0.37574429  1
  V  V38  1  0.50279450  0.38266219  0.36959022  1
  V  V39  1  0.49502067  0.87447720  0.37654600  1
  V  V40  1  0.00236674  0.62399222  0.62885057  1
  V  V41  1  0.49651344  0.62695884  0.12573049  1
  V  V42  1  0.38185098  0.61393917  0.75503833  1
  V  V43  1  0.26008197  0.62052029  0.37754777  1
  V  V44  1  0.50130939  0.49984932  -0.01189394  1
  V  V45  1  0.62423897  0.48871305  0.12907737  1
  V  V46  1  0.62592410  0.25334704  0.36679765  1
  V  V47  1  0.75588217  0.13160563  0.87170611  1
  V  V48  1  0.49117302  0.25261298  0.25091262  1
  V  V49  1  0.49894630  0.50185055  0.49780507  1
  V  V50  1  0.12242244  0.38550256  0.24488687  1
  V  V51  1  0.25051763  0.38150476  0.12246696  1
  V  V52  1  0.00253286  0.74769157  0.24183778  1
  V  V53  1  -0.00720325  -0.00571939  0.49943156  1
  V  V54  1  0.87136273  0.37308571  0.50201189  1
  V  V55  1  0.36721128  -0.00045464  0.85741631  1
  V  V56  1  0.13711391  -0.00112825  0.12302232  1
  V  V57  1  0.28156825  0.64948997  0.89948106  1
  V  V58  1  0.62849102  0.62372667  0.50012322  1
  V  V59  1  0.49145740  0.12648114  0.12895829  1
  V  V60  1  0.74615753  0.25448538  0.50522456  1
  V  V61  1  -0.00377993  0.24473760  0.24958661  1
  V  V62  1  0.62365593  0.00750138  0.11740900  1
  V  V63  1  0.87245681  0.75014090  0.11773955  1
  V  V64  1  0.57764397  0.17973333  -0.05589453  1
  V  V65  1  0.49335457  -0.00508985  -0.00255660  1
  V  V66  1  0.62496354  0.12667416  0.49757157  1
  V  V67  1  0.25849530  0.49931979  0.25287469  1
  V  V68  1  0.24689268  0.25217587  0.50585070  1
  V  V69  1  0.12523064  0.74779599  0.37592237  1
  V  V70  1  0.37658226  0.38079935  -0.01278264  1
  V  V71  1  0.12429231  0.12731057  0.50209091  1
  V  V72  1  0.37546595  0.37932375  0.49915336  1
  V  V73  1  0.74865230  0.62841424  0.36613673  1
  V  V74  1  0.86769484  0.37574439  0.00491249  1
  V  V75  1  0.75579110  0.87931204  0.61439700  1
  V  V76  1  0.74940849  0.24798369  0.00077863  1
  V  V77  1  0.00441061  0.49793161  0.49861810  1
  V  V78  1  0.37558629  0.74789604  0.63034962  1
  V  V79  1  0.50865356  0.61836338  0.62740552  1
  V  V80  1  0.87669100  0.49818508  0.36974537  1
  V  V81  1  -0.00408653  0.24890685  0.75231453  1
  V  V82  1  -0.00404438  0.12418235  0.63080696  1
  V  V83  1  0.12918290  -0.00103907  0.62778074  1
  V  V84  1  0.49136818  0.12961481  0.63042137  1
  Zn  Zn85  1  0.34261327  0.02944653  0.34236441  1
  Zn  Zn86  1  0.75201045  0.12344516  0.37585971  1
  Zn  Zn87  1  -0.00088999  0.87665532  0.87397314  1
  Zn  Zn88  1  0.37233544  0.25234166  0.12542936  1
  Zn  Zn89  1  0.12656503  0.62269363  0.50043323  1
  Zn  Zn90  1  0.87498143  0.11992870  0.25168093  1
  Zn  Zn91  1  0.25650608  0.12722262  0.86398059  1
  Zn  Zn92  1  0.00068891  0.12126082  0.12565816  1
  Zn  Zn93  1  0.75476912  0.75828419  0.49010779  1
  Zn  Zn94  1  0.87063786  0.50318783  0.87512665  1
  Zn  Zn95  1  0.49506104  0.25241804  0.76698439  1
  Zn  Zn96  1  0.37408353  0.86929354  0.49675444  1
  Zn  Zn97  1  0.24922056  0.25113977  -0.00006925  1
  Zn  Zn98  1  0.87349686  0.87245505  -0.00524846  1
  Zn  Zn99  1  0.69778485  0.44589841  0.65520179  1
  Zn  Zn100  1  0.63778771  0.75767217  0.88952335  1
  Zn  Zn101  1  0.37448053  0.62423728  0.24867708  1
  Zn  Zn102  1  0.37342938  0.24849035  0.63595633  1
  Zn  Zn103  1  0.62513322  0.75041730  0.37283966  1
  Zn  Zn104  1  0.87347043  -0.00119006  0.37622732  1
  Zn  Zn105  1  0.62849187  0.63185634  0.00646713  1
  Zn  Zn106  1  0.12978138  0.12525401  0.00053851  1
  Zn  Zn107  1  0.18469804  0.19240865  0.17512347  1
  Zn  Zn108  1  0.18963976  0.18970510  0.69075829  1
  Zn  Zn109  1  0.19011108  0.68610279  0.18842693  1
  Zn  Zn110  1  0.19037726  0.68624111  0.69632606  1
  Zn  Zn111  1  0.68232984  0.18621463  0.18626942  1
  Zn  Zn112  1  0.67862308  0.19995815  0.68989773  1
  Zn  Zn113  1  0.68411772  0.68784454  0.18145605  1
  Zn  Zn114  1  0.68778722  0.69495297  0.68252071  1
  Zn  Zn115  1  0.31896598  0.32149150  0.31279591  1
  Zn  Zn116  1  0.31504143  0.31136041  0.81022995  1
  Zn  Zn117  1  0.31038381  0.81569617  0.31430441  1
  Zn  Zn118  1  0.31708428  0.80478170  0.82814068  1
  Zn  Zn119  1  0.81308544  0.30945730  0.31767432  1
  Zn  Zn120  1  0.80424407  0.32085690  0.81292644  1
  Zn  Zn121  1  0.81199031  0.81391403  0.30299616  1
  Zn  Zn122  1  0.81361261  0.81354981  0.80946248  1
  Zn  Zn123  1  0.18647136  0.43519702  0.43461578  1
  Zn  Zn124  1  0.18446180  0.44189621  0.94070003  1
  Zn  Zn125  1  0.18619116  0.93213546  0.44524327  1
  Zn  Zn126  1  0.18659758  0.93196773  0.93778094  1
  Zn  Zn127  1  0.68604817  0.44001973  0.43663172  1
  Zn  Zn128  1  0.68836575  0.44348384  0.93598088  1
  Zn  Zn129  1  0.68026960  0.93991968  0.43281294  1
  Zn  Zn130  1  0.68557437  0.94557264  0.93533416  1
  Zn  Zn131  1  0.31035534  0.06220352  0.05279677  1
  Zn  Zn132  1  0.33056828  0.07820450  0.52221121  1
  Zn  Zn133  1  0.31471079  0.55920192  0.06574628  1
  Zn  Zn134  1  0.31685779  0.56238046  0.56580617  1
  Zn  Zn135  1  0.81334976  0.06528810  0.06106695  1
  Zn  Zn136  1  0.81406650  0.06819818  0.56125158  1
  Zn  Zn137  1  0.81201207  0.55919927  0.06578111  1
  Zn  Zn138  1  0.82384185  0.57373306  0.54075773  1
  Zn  Zn139  1  0.43672260  0.43859292  0.18471060  1
  Zn  Zn140  1  0.44835241  0.43314294  0.68952228  1
  Zn  Zn141  1  0.42787411  0.93704577  0.18428469  1
  Zn  Zn142  1  0.44146746  0.93755681  0.68439077  1
  Zn  Zn143  1  0.93158953  0.43098085  0.18783419  1
  Zn  Zn144  1  0.94102597  0.43137213  0.68397561  1
  Zn  Zn145  1  0.94004195  0.93517330  0.18699301  1
  Zn  Zn146  1  0.94020484  0.93602765  0.68971584  1
  Zn  Zn147  1  0.16471313  0.05440492  0.31479055  1
  Zn  Zn148  1  0.09467076  0.07467368  0.79783368  1
  Zn  Zn149  1  0.06449156  0.56357441  0.31111688  1
  Zn  Zn150  1  0.06006182  0.56232238  0.81624346  1
  Zn  Zn151  1  0.52195670  0.04393197  0.29316457  1
  Zn  Zn152  1  0.56181773  0.05630114  0.80642706  1
  Zn  Zn153  1  0.56304385  0.56351405  0.30956795  1
  Zn  Zn154  1  0.58500552  0.56032068  0.81060356  1
  Zn  Zn155  1  0.43785004  0.19298810  0.43867080  1
  Zn  Zn156  1  0.41143239  0.18166276  0.94126521  1
  Zn  Zn157  1  0.43954417  0.69022612  0.43804815  1
  Zn  Zn158  1  0.45098340  0.68508714  0.93414880  1
  Zn  Zn159  1  0.93615124  0.18249803  0.43686837  1
  Zn  Zn160  1  0.93864462  0.18526783  0.93870577  1
  Zn  Zn161  1  0.94004160  0.68568255  0.43489632  1
  Zn  Zn162  1  0.93637553  0.68200166  0.93728764  1
  Zn  Zn163  1  0.05988772  0.31619108  0.06590834  1
  Zn  Zn164  1  0.06331702  0.31244730  0.56528431  1
  Zn  Zn165  1  0.06360143  0.81586683  0.06075397  1
  Zn  Zn166  1  0.06502053  0.81198954  0.56243911  1
  Zn  Zn167  1  0.55583482  0.31929079  0.06469892  1
  Zn  Zn168  1  0.56299162  0.31496045  0.56392402  1
  Zn  Zn169  1  0.55996868  0.81239178  0.06307336  1
  Zn  Zn170  1  0.56764576  0.80902004  0.56178835  1
  O  O171  1  0.12212347  0.11450927  0.12029774  1
  O  O172  1  0.11527378  0.12230208  0.61657787  1
  O  O173  1  0.12899396  0.62979875  0.10987735  1
  O  O174  1  0.12251687  0.61737717  0.62561084  1
  O  O175  1  0.61505296  0.11323551  0.12536423  1
  O  O176  1  0.62020012  0.12388151  0.61457672  1
  O  O177  1  0.61274923  0.61621584  0.12650906  1
  O  O178  1  0.61959349  0.63025047  0.61480987  1
  O  O179  1  0.38670990  0.37362311  0.39094543  1
  O  O180  1  0.36743039  0.38035931  0.88909894  1
  O  O181  1  0.38792150  0.87454442  0.37709640  1
  O  O182  1  0.39217745  0.88344697  0.86681997  1
  O  O183  1  0.88342161  0.37769313  0.38459813  1
  O  O184  1  0.87910058  0.37704754  0.88718845  1
  O  O185  1  0.88860076  0.87175250  0.36960107  1
  O  O186  1  0.87458114  0.88865582  0.87470825  1
  O  O187  1  0.24110133  -0.00946026  0.36793651  1
  O  O188  1  0.26711548  -0.01148951  0.87721181  1
  O  O189  1  0.24358728  0.51023187  0.36847471  1
  O  O190  1  0.24701335  0.50798887  0.86650550  1
  O  O191  1  0.75116471  -0.00123159  0.36494914  1
  O  O192  1  0.75709165  0.01095176  0.86786916  1
  O  O193  1  0.75586008  0.50786710  0.36738654  1
  O  O194  1  0.75359700  0.51977199  0.87940746  1
  O  O195  1  0.25094552  0.49052123  0.13632963  1
  O  O196  1  0.24374995  0.49865117  0.63256025  1
  O  O197  1  0.23986549  0.99529564  0.11773542  1
  O  O198  1  0.24572329  0.98328592  0.62048431  1
  O  O199  1  0.73443349  0.50463035  0.13220777  1
  O  O200  1  0.77349419  0.52133856  0.62996910  1
  O  O201  1  0.74108068  0.99586375  0.12810076  1
  O  O202  1  0.74965406  0.99819314  0.63064529  1
  O  O203  1  0.00478017  0.37089982  0.25659494  1
  O  O204  1  0.00455093  0.37106726  0.75971953  1
  O  O205  1  0.00988515  0.86566505  0.25793849  1
  O  O206  1  0.00696976  0.86268454  0.75085442  1
  O  O207  1  0.49547037  0.37112840  0.26219464  1
  O  O208  1  0.50865749  0.37001145  0.75772269  1
  O  O209  1  0.50459462  0.86845318  0.25411575  1
  O  O210  1  0.51223226  0.87218989  0.75321529  1
  O  O211  1  0.51014837  0.14181087  0.23803011  1
  O  O212  1  0.50818485  0.12502671  0.73213715  1
  O  O213  1  0.49815173  0.63470637  0.24566872  1
  O  O214  1  0.50227088  0.62590936  0.74314086  1
  O  O215  1  1.00084554  0.14304438  0.24883171  1
  O  O216  1  1.00599667  0.13161616  0.73728015  1
  O  O217  1  0.99091681  0.63381447  0.25529974  1
  O  O218  1  1.00327195  0.63219100  0.74146098  1
  O  O219  1  0.37202380  0.26814186  0.00231916  1
  O  O220  1  0.36156685  0.26044363  0.50681074  1
  O  O221  1  0.34623133  0.72967696  -0.06777282  1
  O  O222  1  0.37095465  0.74955129  0.51239142  1
  O  O223  1  0.86863978  0.25510744  0.00750143  1
  O  O224  1  0.86678030  0.25591355  0.50562842  1
  O  O225  1  0.88494464  0.75123251  0.01482907  1
  O  O226  1  0.87433185  0.74233925  0.51214122  1
  O  O227  1  0.13501496  0.24668230  0.50176637  1
  O  O228  1  0.12594800  0.25570812  0.99408057  1
  O  O229  1  0.13133988  0.74580181  0.49266961  1
  O  O230  1  0.11139196  0.73855355  0.98944962  1
  O  O231  1  0.63118634  0.24597139  0.49515947  1
  O  O232  1  0.62879326  0.24872340  1.00338610  1
  O  O233  1  0.63013186  0.73729639  0.49540712  1
  O  O234  1  0.62183587  0.74555039  1.00117542  1
  O  O235  1  0.49995649  0.24574064  0.13372278  1
  O  O236  1  0.49568661  0.23332286  0.61509716  1
  O  O237  1  0.50010843  0.74177322  0.13451200  1
  O  O238  1  0.49554666  0.74100304  0.62993889  1
  O  O239  1  0.98665806  0.25277637  0.13277673  1
  O  O240  1  0.99218425  0.24394207  0.62961545  1
  O  O241  1  0.99328821  0.75813888  0.13775859  1
  O  O242  1  0.99495065  0.74430232  0.62812890  1
  O  O243  1  -0.00560315  0.26021355  0.36790205  1
  O  O244  1  -0.00175734  0.26392073  0.87318696  1
  O  O245  1  0.00768054  0.75317992  0.36852935  1
  O  O246  1  0.00193794  0.74920507  0.86580309  1
  O  O247  1  0.50566980  0.25753951  0.36996333  1
  O  O248  1  0.50899973  0.23006696  0.88976677  1
  O  O249  1  0.50345886  0.75676234  0.36681103  1
  O  O250  1  0.50968919  0.75873404  0.86572207  1
  O  O251  1  0.23522020  0.13964077  0.51144411  1
  O  O252  1  0.24813838  0.13149383  0.98591678  1
  O  O253  1  0.24983173  0.62848115  0.49486248  1
  O  O254  1  0.24226253  0.61288057  0.99154109  1
  O  O255  1  0.74234293  0.13434781  0.49853281  1
  O  O256  1  0.75176332  0.13768487  0.99075704  1
  O  O257  1  0.74450351  0.62808783  0.48245115  1
  O  O258  1  0.75310388  0.62872728  0.99467715  1
  O  O259  1  0.26003434  0.38441158  0.00709115  1
  O  O260  1  0.25657764  0.37515646  0.50778599  1
  O  O261  1  0.24462847  0.86678588  0.01113735  1
  O  O262  1  0.25188546  0.86257283  0.51303535  1
  O  O263  1  0.75612571  0.36100562  -0.00739540  1
  O  O264  1  0.75916617  0.36947651  0.49658476  1
  O  O265  1  0.75060620  0.88216638  0.01020458  1
  O  O266  1  0.74320942  0.87765920  0.51077133  1
  O  O267  1  0.13227587  0.48983626  0.25503144  1
  O  O268  1  0.13318396  0.49720701  0.74752841  1
  O  O269  1  0.11835745  0.98626818  0.23603220  1
  O  O270  1  0.11515040  0.97684191  0.74121438  1
  O  O271  1  0.63188530  0.50196987  0.23928363  1
  O  O272  1  0.62193143  0.48069101  0.74352403  1
  O  O273  1  0.62298582  0.98868635  0.23989456  1
  O  O274  1  0.63677536  0.99151134  0.74376301  1
  O  O275  1  0.41213518  0.01610269  0.25820461  1
  O  O276  1  0.37668244  -0.00485102  0.75869031  1
  O  O277  1  0.36212810  0.49833650  0.25357392  1
  O  O278  1  0.36652099  0.50517578  0.73798680  1
  O  O279  1  0.86303581  -0.00234406  0.24882648  1
  O  O280  1  0.86538285  -0.00186784  0.75520862  1
  O  O281  1  0.86962301  0.50656270  0.25158230  1
  O  O282  1  0.87953009  0.49897184  0.75412345  1
  O  O283  1  0.11800855  0.36638463  0.36652309  1
  O  O284  1  0.11534172  0.37097285  0.87346197  1
  O  O285  1  0.11990576  0.86143066  0.36834286  1
  O  O286  1  0.12188112  0.86306529  0.86798062  1
  O  O287  1  0.61366902  0.36573329  0.38429940  1
  O  O288  1  0.62702458  0.37610156  0.86868496  1
  O  O289  1  0.61614123  0.87173417  0.36375273  1
  O  O290  1  0.62045150  0.87803168  0.86499215  1
  O  O291  1  0.38817424  0.12961654  0.11368247  1
  O  O292  1  0.38930588  0.12180207  0.61764106  1
  O  O293  1  0.39018952  0.61742825  0.12961059  1
  O  O294  1  0.38480298  0.63288931  0.63341735  1
  O  O295  1  0.87826053  0.13298378  0.13096502  1
  O  O296  1  0.88351871  0.13764833  0.62220678  1
  O  O297  1  0.86898732  0.63236571  0.13668809  1
  O  O298  1  0.88063851  0.63140866  0.63081087  1
  O  O299  1  0.25254407  0.26588149  0.12192829  1
  O  O300  1  0.24893488  0.26131433  0.62261569  1
  O  O301  1  0.25229880  0.75578713  0.12385726  1
  O  O302  1  0.25939282  0.74964982  0.62365902  1
  O  O303  1  0.75872712  0.24335021  0.11819562  1
  O  O304  1  0.75699609  0.24451541  0.61339747  1
  O  O305  1  0.75956541  0.76169553  0.13345698  1
  O  O306  1  0.76027033  0.76207635  0.62101512  1
  O  O307  1  0.24748866  0.26584822  0.38836153  1
  O  O308  1  0.23640874  0.25328528  0.87484202  1
  O  O309  1  0.24354354  0.74468951  0.38269346  1
  O  O310  1  0.22455048  0.73714875  0.85592220  1
  O  O311  1  0.74195896  0.24966069  0.38605563  1
  O  O312  1  0.75746389  0.23775415  0.88130225  1
  O  O313  1  0.75003725  0.74311223  0.37066891  1
  O  O314  1  0.75377277  0.73722820  0.86920650  1
  O  O315  1  -0.00155077  0.11144005  0.00485650  1
  O  O316  1  0.00503929  0.12031489  0.51111141  1
  O  O317  1  0.00215655  0.60842507  0.00057249  1
  O  O318  1  0.00160000  0.61550975  0.50721202  1
  O  O319  1  0.50796298  0.12342718  0.00199058  1
  O  O320  1  0.50913017  0.11618613  0.50838765  1
  O  O321  1  0.50054431  0.61390935  0.00784520  1
  O  O322  1  0.50767165  0.62038040  0.50431289  1
  O  O323  1  0.49471376  0.38400547  0.49524215  1
  O  O324  1  0.48890162  0.38809438  1.00123766  1
  O  O325  1  0.50450001  0.87731282  0.49203113  1
  O  O326  1  0.50231107  0.88262349  0.98842926  1
  O  O327  1  0.99675524  0.37712537  0.49219625  1
  O  O328  1  0.99209342  0.38428113  0.99610015  1
  O  O329  1  1.00806139  0.88235443  0.49115629  1
  O  O330  1  0.99685067  0.88699851  0.99570903  1
  O  O331  1  0.50632506  0.49305274  0.38290499  1
  O  O332  1  0.51192798  0.50797741  0.89125827  1
  O  O333  1  0.51324934  0.98741343  0.39125431  1
  O  O334  1  0.49581382  0.99315651  0.87780250  1
  O  O335  1  0.99715555  0.48874091  0.37680131  1
  O  O336  1  0.99561369  0.48865435  0.88132692  1
  O  O337  1  0.99892141  0.98648485  0.38602562  1
  O  O338  1  0.99233793  1.00160695  0.88008915  1
  O  O339  1  0.00904239  -0.00317055  0.11660122  1
  O  O340  1  0.00566551  0.00639000  0.62133493  1
  O  O341  1  -0.00270795  0.49419853  0.11591011  1
  O  O342  1  0.00817538  0.50393014  0.62056848  1
  O  O343  1  0.50413835  0.00754235  0.11489967  1
  O  O344  1  0.51071238  0.00775911  0.62034518  1
  O  O345  1  0.51026181  0.50535420  0.12335469  1
  O  O346  1  0.49740571  0.51375204  0.61650504  1
  O  O347  1  0.24310958  0.38178966  0.24647961  1
  O  O348  1  0.24548098  0.38536997  0.74702983  1
  O  O349  1  0.23762762  0.86664440  0.24192108  1
  O  O350  1  0.24106760  0.85970090  0.74338712  1
  O  O351  1  0.75650407  0.38868210  0.25651657  1
  O  O352  1  0.73102086  0.37101836  0.74666003  1
  O  O353  1  0.74044179  0.88489757  0.24106958  1
  O  O354  1  0.74615557  0.88433027  0.73946836  1
  O  O355  1  0.21400098  0.15368527  0.27871361  1
  O  O356  1  0.20323992  0.11100058  0.76579420  1
  O  O357  1  0.25084325  0.61664884  0.25836795  1
  O  O358  1  0.26570314  0.61950037  0.75758207  1
  O  O359  1  0.74412241  0.11008990  0.25016328  1
  O  O360  1  0.74143292  0.11799255  0.75721941  1
  O  O361  1  0.75562076  0.61954116  0.25544258  1
  O  O362  1  0.74918885  0.62780324  0.75454127  1
  O  O363  1  0.37388013  0.10610001  0.41796510  1
  O  O364  1  0.37311418  0.10620761  0.86801210  1
  O  O365  1  0.36288740  0.63022376  0.37399934  1
  O  O366  1  0.38334447  0.60781123  0.86005733  1
  O  O367  1  0.87034436  0.11983147  0.36962976  1
  O  O368  1  0.86833368  0.11515432  0.87469276  1
  O  O369  1  0.86914598  0.61958047  0.36472933  1
  O  O370  1  0.86344525  0.62375970  0.87172110  1
  O  O371  1  0.13305056  0.37421884  0.13487963  1
  O  O372  1  0.12965093  0.38439552  0.63279734  1
  O  O373  1  0.13401970  0.87812260  0.13115094  1
  O  O374  1  0.13445126  0.87462726  0.63236814  1
  O  O375  1  0.62169649  0.38965396  0.12650661  1
  O  O376  1  0.62177485  0.36879517  0.63790710  1
  O  O377  1  0.62956524  0.88419643  0.12929408  1
  O  O378  1  0.63357081  0.88179493  0.63028081  1
  O  O379  1  0.11377851  0.26417966  0.24972192  1
  O  O380  1  0.11425759  0.26216225  0.75808527  1
  O  O381  1  0.11865033  0.75246211  0.25619237  1
  O  O382  1  0.11081375  0.75361074  0.75213343  1
  O  O383  1  0.62112977  0.25004985  0.26348908  1
  O  O384  1  0.61254608  0.25921698  0.75751497  1
  O  O385  1  0.61852301  0.76325306  0.24649080  1
  O  O386  1  0.62341005  0.76499916  0.74760558  1
  O  O387  1  0.38685006  0.25214383  0.25028108  1
  O  O388  1  0.38236289  0.24920101  0.74930406  1
  O  O389  1  0.38518850  0.74961362  0.25411885  1
  O  O390  1  0.38534744  0.73793593  0.74741827  1
  O  O391  1  0.87862026  0.25173731  0.24269415  1
  O  O392  1  0.87867412  0.26150377  0.73709192  1
  O  O393  1  0.88321432  0.74300742  0.24182471  1
  O  O394  1  0.88619895  0.75503157  0.73660211  1
  O  O395  1  0.38974710  0.49660173  0.50252383  1
  O  O396  1  0.39002363  0.49235239  1.00305966  1
  O  O397  1  0.39406697  0.98162869  0.51969057  1
  O  O398  1  0.39029739  1.00489069  0.99020211  1
  O  O399  1  0.88423804  0.49102893  0.48963199  1
  O  O400  1  0.88295968  0.49230671  1.00243266  1
  O  O401  1  0.88933513  1.00394805  0.50147099  1
  O  O402  1  0.88091337  0.99861243  0.99185359  1
  O  O403  1  0.11796886  -0.00083353  0.00495378  1
  O  O404  1  0.11657774  0.00819500  0.50861612  1
  O  O405  1  0.10815044  0.50493542  -0.00055749  1
  O  O406  1  0.12037525  0.49937592  0.50724856  1
  O  O407  1  0.61272320  -0.00201421  0.00741684  1
  O  O408  1  0.62105464  0.00912938  0.50653874  1
  O  O409  1  0.61602354  0.50231604  0.01230209  1
  O  O410  1  0.61759156  0.51371789  0.49745468  1
  O  O411  1  0.36668341  0.37554477  0.11772564  1
  O  O412  1  0.37278932  0.37642817  0.61421499  1
  O  O413  1  0.35766345  0.87608308  0.12456970  1
  O  O414  1  0.37098151  0.85938544  0.63273258  1
  O  O415  1  0.87313272  0.36631981  0.11257409  1
  O  O416  1  0.88226369  0.36629980  0.60930590  1
  O  O417  1  0.86486486  0.86748580  0.12432464  1
  O  O418  1  0.86862711  0.86908162  0.62502093  1
  O  O419  1  0.11397735  0.13404949  0.39197680  1
  O  O420  1  0.10302493  0.14805265  0.88582135  1
  O  O421  1  0.13180124  0.63622272  0.37558181  1
  O  O422  1  0.12071230  0.62994437  0.88682406  1
  O  O423  1  0.62453644  0.13675550  0.38993580  1
  O  O424  1  0.63166322  0.11980533  0.87982309  1
  O  O425  1  0.63387968  0.62753817  0.37744899  1
  O  O426  1  0.64201734  0.63103364  0.87957006  1
