# generated using pymatgen
data_V85Zn86O256
_symmetry_space_group_name_H-M   'P 1'
_cell_length_a   16.93946760
_cell_length_b   16.97069682
_cell_length_c   16.95440546
_cell_angle_alpha   89.98659328
_cell_angle_beta   90.00672239
_cell_angle_gamma   90.01030034
_symmetry_Int_Tables_number   1
_chemical_formula_structural   V85Zn86O256
_chemical_formula_sum   'V85 Zn86 O256'
_cell_volume   4873.96015667
_cell_formula_units_Z   1
loop_
 _symmetry_equiv_pos_site_id
 _symmetry_equiv_pos_as_xyz
  1  'x, y, z'
loop_
 _atom_site_type_symbol
 _atom_site_label
 _atom_site_symmetry_multiplicity
 _atom_site_fract_x
 _atom_site_fract_y
 _atom_site_fract_z
 _atom_site_occupancy
  V  V0  1  0.75822957  0.00635626  0.24962568  1
  V  V1  1  0.73587757  -0.00938353  0.73396806  1
  V  V2  1  0.75230427  0.37496449  0.62421235  1
  V  V3  1  0.74495699  0.75160896  0.50797956  1
  V  V4  1  0.24547733  0.74740652  0.49976296  1
  V  V5  1  0.00293542  0.37995002  0.36464197  1
  V  V6  1  0.88030638  0.23346917  0.13013426  1
  V  V7  1  0.87525093  0.63251214  0.24413725  1
  V  V8  1  0.00228155  0.00143630  -0.00487587  1
  V  V9  1  0.35792319  0.37261544  0.49813111  1
  V  V10  1  0.62805406  0.37523447  0.25218147  1
  V  V11  1  0.53253291  -0.03387976  0.54644592  1
  V  V12  1  0.49405256  0.48796933  -0.00164942  1
  V  V13  1  0.12222514  0.13022396  0.00118500  1
  V  V14  1  0.88359824  0.38308043  0.49900211  1
  V  V15  1  0.75397922  0.24840975  -0.00043833  1
  V  V16  1  0.74373065  0.62593749  0.87575427  1
  V  V17  1  0.87872846  0.75390666  0.63128464  1
  V  V18  1  0.37432814  0.87604484  0.50017398  1
  V  V19  1  0.87603950  0.87891525  0.50411602  1
  V  V20  1  0.37610812  0.25948983  0.12615714  1
  V  V21  1  0.26754628  0.77618313  -0.02803361  1
  V  V22  1  0.37616732  0.60682512  0.74815718  1
  V  V23  1  0.00383954  0.23267262  0.24852792  1
  V  V24  1  0.50287950  0.74766861  0.23707305  1
  V  V25  1  -0.00178328  0.62256794  0.63489384  1
  V  V26  1  0.50164095  0.12740637  0.12623909  1
  V  V27  1  0.50122624  0.13267406  0.62150536  1
  V  V28  1  0.25031975  0.49541949  0.25322096  1
  V  V29  1  -0.00291106  0.86657550  0.86610136  1
  V  V30  1  0.12572834  0.87272510  0.74565071  1
  V  V31  1  0.87970292  0.00706582  0.37614481  1
  V  V32  1  0.13158437  0.37950573  0.74704958  1
  V  V33  1  0.87339587  0.12617287  0.74747252  1
  V  V34  1  0.10974459  0.62147658  0.49755047  1
  V  V35  1  0.74686554  0.62806197  0.37916325  1
  V  V36  1  0.12730372  0.49287065  0.62295176  1
  V  V37  1  0.75509737  0.37416935  0.12680847  1
  V  V38  1  0.50035490  0.37591721  0.38656302  1
  V  V39  1  0.50122005  0.25323290  0.75614650  1
  V  V40  1  0.24325268  0.36949947  0.12834818  1
  V  V41  1  0.87932908  0.87021803  0.00487330  1
  V  V42  1  0.62573748  0.12476989  -0.00000314  1
  V  V43  1  0.37985003  0.00113142  0.37938374  1
  V  V44  1  -0.00353860  0.37622075  0.87267499  1
  V  V45  1  -0.00211385  0.75477101  0.23882183  1
  V  V46  1  0.13024608  0.25126359  0.38229616  1
  V  V47  1  0.38076694  0.61673004  0.24580872  1
  V  V48  1  0.75526840  0.50116776  0.25137739  1
  V  V49  1  0.86758716  -0.00116906  0.87327510  1
  V  V50  1  0.00170845  0.87932194  0.37991289  1
  V  V51  1  0.13354332  0.62696115  0.00275048  1
  V  V52  1  0.30731064  0.30460782  -0.04616183  1
  V  V53  1  0.74921589  0.50288479  0.74951800  1
  V  V54  1  0.74984586  0.74881360  0.00250373  1
  V  V55  1  0.87164719  0.50211597  0.87794761  1
  V  V56  1  0.50202008  0.25332418  0.25250535  1
  V  V57  1  0.13245341  0.87624513  0.24571293  1
  V  V58  1  0.12842043  0.10885153  0.50737408  1
  V  V59  1  0.37167822  0.74509780  0.62912923  1
  V  V60  1  0.62273154  0.50809533  0.61197115  1
  V  V61  1  0.30352349  0.92845918  0.07596903  1
  V  V62  1  0.24898918  0.11886582  0.87411483  1
  V  V63  1  0.62287827  0.37660442  0.75483760  1
  V  V64  1  0.36447135  0.74200275  0.12213594  1
  V  V65  1  0.62891760  0.24920560  0.37584584  1
  V  V66  1  0.12172204  0.74252724  0.86891327  1
  V  V67  1  0.43438652  0.54171998  0.43469134  1
  V  V68  1  -0.00264239  0.50317081  0.00245955  1
  V  V69  1  0.12239224  0.25048127  0.87827168  1
  V  V70  1  0.75540451  0.24816482  0.49972308  1
  V  V71  1  0.62591674  0.12213194  0.50301170  1
  V  V72  1  0.61899344  0.75797587  0.86871250  1
  V  V73  1  0.75529627  0.87108421  0.12657975  1
  V  V74  1  0.24966417  0.61926515  0.37614785  1
  V  V75  1  0.50432366  0.87742171  0.36981504  1
  V  V76  1  0.37516659  0.11736831  0.75030441  1
  V  V77  1  0.62546950  -0.00335603  0.12399992  1
  V  V78  1  0.11390564  0.00410551  0.12568013  1
  V  V79  1  0.24801882  0.88280109  0.62344908  1
  V  V80  1  0.24995624  0.60904913  0.86569793  1
  V  V81  1  0.12335319  0.49727848  0.12955054  1
  V  V82  1  0.37380255  0.12700094  0.25405720  1
  V  V83  1  0.36054773  0.25375165  0.61873606  1
  V  V84  1  0.12401521  0.75024242  0.37274994  1
  Zn  Zn85  1  0.48241816  -0.00412638  -0.00075354  1
  Zn  Zn86  1  0.37685302  0.47860882  0.87568824  1
  Zn  Zn87  1  -0.00207463  0.25085894  0.74636876  1
  Zn  Zn88  1  0.61757996  0.50636655  0.12377763  1
  Zn  Zn89  1  0.62164740  0.25514595  0.88046062  1
  Zn  Zn90  1  -0.00059014  0.11640234  0.61423035  1
  Zn  Zn91  1  0.87582721  0.63399856  0.75466364  1
  Zn  Zn92  1  0.61219994  0.62598351  0.00875849  1
  Zn  Zn93  1  0.87641759  0.37422525  0.00310049  1
  Zn  Zn94  1  0.49778095  0.89271109  0.87945090  1
  Zn  Zn95  1  0.49872103  0.74964841  0.75083945  1
  Zn  Zn96  1  0.49894825  0.61891822  0.61230645  1
  Zn  Zn97  1  0.88314272  0.50798047  0.38004773  1
  Zn  Zn98  1  -0.00288828  0.62966848  0.12240237  1
  Zn  Zn99  1  0.25433860  0.13159125  0.38152033  1
  Zn  Zn100  1  0.62421491  0.74847960  0.37665695  1
  Zn  Zn101  1  0.75629923  0.12602637  0.37227004  1
  Zn  Zn102  1  0.87867939  0.24863895  0.62593682  1
  Zn  Zn103  1  0.25136165  0.00025651  0.74705639  1
  Zn  Zn104  1  0.74610852  0.12340482  0.87168545  1
  Zn  Zn105  1  0.25132036  -0.00030503  0.25330435  1
  Zn  Zn106  1  0.62997022  0.87270799  0.25022007  1
  Zn  Zn107  1  0.18503967  0.18825172  0.19215987  1
  Zn  Zn108  1  0.18266818  0.18838714  0.68931782  1
  Zn  Zn109  1  0.19138647  0.68645569  0.18703228  1
  Zn  Zn110  1  0.18903609  0.68440880  0.68875483  1
  Zn  Zn111  1  0.69094535  0.18701086  0.18636933  1
  Zn  Zn112  1  0.68879163  0.18533290  0.68787324  1
  Zn  Zn113  1  0.68814752  0.68905994  0.18805625  1
  Zn  Zn114  1  0.68604872  0.68797584  0.68835346  1
  Zn  Zn115  1  0.31399899  0.31832507  0.31427914  1
  Zn  Zn116  1  0.30686017  0.30731187  0.78916445  1
  Zn  Zn117  1  0.31439117  0.80998754  0.31016316  1
  Zn  Zn118  1  0.33522908  0.82532303  0.80220902  1
  Zn  Zn119  1  0.82121730  0.31015582  0.31232224  1
  Zn  Zn120  1  0.81085791  0.31307163  0.81406118  1
  Zn  Zn121  1  0.81484063  0.81458274  0.31557069  1
  Zn  Zn122  1  0.80523849  0.81666515  0.81162361  1
  Zn  Zn123  1  0.17738197  0.43954158  0.43759947  1
  Zn  Zn124  1  0.18070034  0.44030382  0.93851034  1
  Zn  Zn125  1  0.19145935  0.93870644  0.43485988  1
  Zn  Zn126  1  0.18986591  0.93453865  0.92714575  1
  Zn  Zn127  1  0.69401247  0.43696861  0.43546320  1
  Zn  Zn128  1  0.68260749  0.43742669  0.94138881  1
  Zn  Zn129  1  0.69319701  0.93441259  0.43672201  1
  Zn  Zn130  1  0.68514362  0.93503629  0.93849713  1
  Zn  Zn131  1  0.30225699  0.09275875  0.06670668  1
  Zn  Zn132  1  0.31420107  0.06517300  0.55749917  1
  Zn  Zn133  1  0.31745585  0.55608251  0.06027627  1
  Zn  Zn134  1  0.30213730  0.56212183  0.56631901  1
  Zn  Zn135  1  0.81329239  0.05880601  0.05999101  1
  Zn  Zn136  1  0.81151961  0.05977114  0.56438566  1
  Zn  Zn137  1  0.80480706  0.56584596  0.06611837  1
  Zn  Zn138  1  0.81364137  0.56553916  0.56298325  1
  Zn  Zn139  1  0.43987521  0.43765486  0.18684491  1
  Zn  Zn140  1  0.44125137  0.43410610  0.67902917  1
  Zn  Zn141  1  0.44415615  0.94091218  0.19152961  1
  Zn  Zn142  1  0.44925541  0.92934986  0.69269312  1
  Zn  Zn143  1  0.93560616  0.43626340  0.18937128  1
  Zn  Zn144  1  0.93760762  0.44172141  0.68788493  1
  Zn  Zn145  1  0.94057392  0.94021852  0.18903610  1
  Zn  Zn146  1  0.93335032  0.94146979  0.68585899  1
  Zn  Zn147  1  0.06698381  0.06274387  0.31931546  1
  Zn  Zn148  1  0.04410793  0.04209552  0.77831465  1
  Zn  Zn149  1  0.06186894  0.56408927  0.30846989  1
  Zn  Zn150  1  0.06021143  0.55987169  0.81031826  1
  Zn  Zn151  1  0.56643726  0.06245340  0.31206655  1
  Zn  Zn152  1  0.55930396  0.06244544  0.81689659  1
  Zn  Zn153  1  0.57091977  0.56649343  0.30540067  1
  Zn  Zn154  1  0.55786468  0.55924223  0.81889886  1
  Zn  Zn155  1  0.43995333  0.19058946  0.44100829  1
  Zn  Zn156  1  0.44332589  0.17444703  0.93209828  1
  Zn  Zn157  1  0.43477796  0.70408672  0.43185258  1
  Zn  Zn158  1  0.43775136  0.67322817  0.93758084  1
  Zn  Zn159  1  0.94525452  0.18926505  0.44002807  1
  Zn  Zn160  1  0.93662900  0.18522676  0.93420162  1
  Zn  Zn161  1  0.93326635  0.69472937  0.43432301  1
  Zn  Zn162  1  0.93571041  0.68626111  0.93975201  1
  Zn  Zn163  1  0.05905052  0.31352190  0.06365667  1
  Zn  Zn164  1  0.05778687  0.30575269  0.56154901  1
  Zn  Zn165  1  0.07217884  0.81483237  0.05798616  1
  Zn  Zn166  1  0.05958270  0.81072100  0.56372987  1
  Zn  Zn167  1  0.56534538  0.31760703  0.06355223  1
  Zn  Zn168  1  0.56638059  0.31352881  0.56560994  1
  Zn  Zn169  1  0.55915982  0.81727890  0.05421760  1
  Zn  Zn170  1  0.55964309  0.79933392  0.56636469  1
  O  O171  1  0.13435743  0.11632617  0.11453551  1
  O  O172  1  0.12891467  0.12749054  0.61032141  1
  O  O173  1  0.12594980  0.61927439  0.11700376  1
  O  O174  1  0.11338511  0.61971705  0.61967944  1
  O  O175  1  0.62222921  0.11942042  0.11868390  1
  O  O176  1  0.61729624  0.13098722  0.61189426  1
  O  O177  1  0.65143213  0.61532271  0.11620414  1
  O  O178  1  0.62399979  0.61208451  0.62569672  1
  O  O179  1  0.38618459  0.37317023  0.38539715  1
  O  O180  1  0.35818894  0.35970983  0.88129833  1
  O  O181  1  0.38287043  0.88006358  0.37803551  1
  O  O182  1  0.29943142  0.85497312  0.90624068  1
  O  O183  1  0.88717062  0.37747442  0.38121988  1
  O  O184  1  0.88012580  0.38283132  0.87863463  1
  O  O185  1  0.88401308  0.88178359  0.38303847  1
  O  O186  1  0.88018097  0.87623512  0.88289096  1
  O  O187  1  0.26829467  0.00093675  0.37319357  1
  O  O188  1  0.25009929  0.01653668  0.87393655  1
  O  O189  1  0.23887187  0.50506472  0.36270479  1
  O  O190  1  0.25353956  0.50503331  0.87852360  1
  O  O191  1  0.76001169  -0.00046663  0.36625570  1
  O  O192  1  0.75990933  -0.00220979  0.87754314  1
  O  O193  1  0.75473381  0.50848561  0.36779830  1
  O  O194  1  0.75137206  0.50781653  0.87027979  1
  O  O195  1  0.24436163  0.48919507  0.12987789  1
  O  O196  1  0.22616123  0.50049068  0.62404941  1
  O  O197  1  0.24755455  0.99921297  0.13006474  1
  O  O198  1  0.25660190  0.98511614  0.62227734  1
  O  O199  1  0.75618407  0.48721141  0.13513620  1
  O  O200  1  0.74491253  0.49655909  0.63225982  1
  O  O201  1  0.74777365  0.99047586  0.13058333  1
  O  O202  1  0.74455762  0.99920576  0.63398978  1
  O  O203  1  -0.00467679  0.36713147  0.26287640  1
  O  O204  1  0.00170774  0.37615316  0.76175996  1
  O  O205  1  0.00889586  0.87002199  0.25635121  1
  O  O206  1  0.00677073  0.87086262  0.76152580  1
  O  O207  1  0.50606928  0.37049989  0.26052207  1
  O  O208  1  0.51139599  0.36617344  0.74107656  1
  O  O209  1  0.50388152  0.86675230  0.25440262  1
  O  O210  1  0.45053742  0.85702894  0.78061132  1
  O  O211  1  0.49302898  0.13220992  0.24655916  1
  O  O212  1  0.49381809  0.13468635  0.74169141  1
  O  O213  1  0.49137991  0.63310307  0.25445316  1
  O  O214  1  0.48375837  0.62494361  0.75008391  1
  O  O215  1  1.00189089  0.13406757  0.25331446  1
  O  O216  1  0.97774227  0.13487316  0.77037875  1
  O  O217  1  0.99362731  0.63665869  0.24831313  1
  O  O218  1  0.99663949  0.62664244  0.73872492  1
  O  O219  1  0.37498696  0.24330364  0.00809756  1
  O  O220  1  0.37411882  0.25609672  0.51032011  1
  O  O221  1  0.36488538  0.73871737  0.00439429  1
  O  O222  1  0.36622271  0.75479006  0.50853042  1
  O  O223  1  0.87042274  0.25049279  0.00811253  1
  O  O224  1  0.86583899  0.25604667  0.49916436  1
  O  O225  1  0.86223446  0.75852221  -0.00482061  1
  O  O226  1  0.86789427  0.75949471  0.50823103  1
  O  O227  1  0.12406868  0.24863987  0.48427054  1
  O  O228  1  0.11623929  0.24513129  0.98863240  1
  O  O229  1  0.12731741  0.74218057  0.49234695  1
  O  O230  1  0.14056802  0.74520819  0.98974870  1
  O  O231  1  0.63709312  0.24515499  0.49584256  1
  O  O232  1  0.63418414  0.24223184  1.00406323  1
  O  O233  1  0.63984257  0.75386421  0.50027143  1
  O  O234  1  0.63614674  0.74840628  0.99223585  1
  O  O235  1  0.49449059  0.24864678  0.13177416  1
  O  O236  1  0.49626351  0.24387398  0.62971556  1
  O  O237  1  0.48872231  0.75668859  0.13363937  1
  O  O238  1  0.48722457  0.73655265  0.62791653  1
  O  O239  1  0.99520405  0.25361842  0.13965698  1
  O  O240  1  0.99629320  0.23979644  0.62988865  1
  O  O241  1  1.00828585  0.75226869  0.13529358  1
  O  O242  1  0.99113770  0.73531658  0.62004649  1
  O  O243  1  0.00658913  0.25577473  0.36424577  1
  O  O244  1  0.00499855  0.26197334  0.87542794  1
  O  O245  1  0.00594093  0.76038732  0.36516155  1
  O  O246  1  0.00947519  0.75400463  0.88199259  1
  O  O247  1  0.50833235  0.25766299  0.37172158  1
  O  O248  1  0.50211517  0.24564655  0.86007284  1
  O  O249  1  0.50082401  0.76206761  0.36143436  1
  O  O250  1  0.51617211  0.74053846  0.87879915  1
  O  O251  1  0.23779017  0.12349375  0.49595570  1
  O  O252  1  0.23428047  0.13219831  0.98834382  1
  O  O253  1  0.23737909  0.62769360  0.49372374  1
  O  O254  1  0.23978211  0.61811493  0.99259581  1
  O  O255  1  0.74422891  0.13206472  0.49920523  1
  O  O256  1  0.74287295  0.13247431  1.00225699  1
  O  O257  1  0.76045732  0.64046500  0.49221005  1
  O  O258  1  0.75432552  0.63552900  0.98978870  1
  O  O259  1  0.24560006  0.37079961  0.00794973  1
  O  O260  1  0.25902484  0.37810320  0.49030675  1
  O  O261  1  0.22950826  0.87558820  0.02657257  1
  O  O262  1  0.25407909  0.86756040  0.50394497  1
  O  O263  1  0.75106293  0.36676319  0.01029273  1
  O  O264  1  0.75728852  0.36681010  0.50574367  1
  O  O265  1  0.75846621  0.86929520  0.00645701  1
  O  O266  1  0.75968916  0.86063654  0.49664999  1
  O  O267  1  0.13447430  0.50860032  0.23613301  1
  O  O268  1  0.11370979  0.49300852  0.73437686  1
  O  O269  1  0.12774264  0.99602289  0.24282929  1
  O  O270  1  0.13690275  0.97548309  0.76622745  1
  O  O271  1  0.63977640  0.49359913  0.24769212  1
  O  O272  1  0.63408292  0.49522262  0.74513473  1
  O  O273  1  0.63302229  0.99855252  0.23778497  1
  O  O274  1  0.63859331  1.01017837  0.75484372  1
  O  O275  1  0.37631088  0.01121482  0.25629640  1
  O  O276  1  0.37330794  0.01552866  0.74165168  1
  O  O277  1  0.36675283  0.50854285  0.24545831  1
  O  O278  1  0.37783686  0.50380483  0.74879821  1
  O  O279  1  0.86897445  -0.00552219  0.26084717  1
  O  O280  1  0.86095747  0.00612270  0.75790494  1
  O  O281  1  0.86742221  0.50798419  0.25382182  1
  O  O282  1  0.86167116  0.50195436  0.75614635  1
  O  O283  1  0.11114734  0.36502249  0.37756015  1
  O  O284  1  0.11609927  0.37308773  0.86816459  1
  O  O285  1  0.11902922  0.87175472  0.36913564  1
  O  O286  1  0.11754130  0.86066579  0.87116974  1
  O  O287  1  0.62165769  0.37000041  0.37119363  1
  O  O288  1  0.63567170  0.37228870  0.85828789  1
  O  O289  1  0.61633962  0.87437979  0.37219787  1
  O  O290  1  0.62136498  0.86091122  0.87723531  1
  O  O291  1  0.37964571  0.13915728  0.13552829  1
  O  O292  1  0.37860675  0.13920058  0.62627888  1
  O  O293  1  0.36985133  0.63021770  0.13468179  1
  O  O294  1  0.37312468  0.62413369  0.63300564  1
  O  O295  1  0.87335322  0.13438038  0.12189119  1
  O  O296  1  0.87613632  0.12497887  0.63405566  1
  O  O297  1  0.87583603  0.62389558  0.13945982  1
  O  O298  1  0.88483480  0.63145023  0.62722738  1
  O  O299  1  0.25556255  0.26183895  0.13243367  1
  O  O300  1  0.26255562  0.25291918  0.63137218  1
  O  O301  1  0.26166505  0.74951270  0.11826861  1
  O  O302  1  0.25378403  0.75220170  0.61652241  1
  O  O303  1  0.75974310  0.25377114  0.11967079  1
  O  O304  1  0.75148634  0.25949985  0.61681690  1
  O  O305  1  0.74929240  0.76433549  0.11797510  1
  O  O306  1  0.75711752  0.74393917  0.61348648  1
  O  O307  1  0.23290506  0.25324915  0.36454428  1
  O  O308  1  0.24304373  0.25149065  0.87988578  1
  O  O309  1  0.24500122  0.74111408  0.37901123  1
  O  O310  1  0.23905420  0.72462630  0.87683503  1
  O  O311  1  0.74796008  0.24786767  0.38140167  1
  O  O312  1  0.74956349  0.24940683  0.89081922  1
  O  O313  1  0.75035103  0.74527709  0.38519535  1
  O  O314  1  0.73982332  0.74533730  0.88001758  1
  O  O315  1  0.01348150  0.11690134  -0.01090418  1
  O  O316  1  0.01991995  0.12645070  0.49835632  1
  O  O317  1  0.01164384  0.62179177  0.00267803  1
  O  O318  1  0.00667501  0.63063998  0.50278744  1
  O  O319  1  0.50822076  0.12233915  0.01042974  1
  O  O320  1  0.51046843  0.12719477  0.50738659  1
  O  O321  1  0.49998023  0.60457125  -0.00098097  1
  O  O322  1  0.48549371  0.61597339  0.48986676  1
  O  O323  1  0.49932288  0.37218058  0.48973394  1
  O  O324  1  0.50726635  0.38527521  0.99633628  1
  O  O325  1  0.49496718  0.87354076  0.48813545  1
  O  O326  1  0.49306578  0.88163577  0.99338281  1
  O  O327  1  0.99005601  0.36589236  0.48624439  1
  O  O328  1  0.99945625  0.38429933  0.98927729  1
  O  O329  1  0.99241035  0.86931187  0.48965257  1
  O  O330  1  0.99526495  0.87807698  0.99113377  1
  O  O331  1  0.50460820  0.49329787  0.37160669  1
  O  O332  1  0.49327367  0.49481703  0.88501565  1
  O  O333  1  0.49211463  0.98984113  0.36626446  1
  O  O334  1  0.49086429  1.00869683  0.88463288  1
  O  O335  1  1.00224302  0.48524510  0.36813949  1
  O  O336  1  0.99239840  0.49584920  0.88053297  1
  O  O337  1  0.99450737  0.98757372  0.36883883  1
  O  O338  1  0.98660544  0.98727298  0.87434326  1
  O  O339  1  0.00858626  0.00124631  0.11702871  1
  O  O340  1  0.01132805  0.01685134  0.66817923  1
  O  O341  1  0.00749239  0.50086421  0.12281517  1
  O  O342  1  0.00116956  0.51676119  0.62327138  1
  O  O343  1  0.50932477  0.00798457  0.12346320  1
  O  O344  1  0.48271585  0.02251401  0.62500740  1
  O  O345  1  0.50270055  0.49074516  0.11182593  1
  O  O346  1  0.51794110  0.50040186  0.62325095  1
  O  O347  1  0.25349146  0.38734987  0.24324762  1
  O  O348  1  0.23117027  0.37906564  0.74828720  1
  O  O349  1  0.23666800  0.87598333  0.25593910  1
  O  O350  1  0.24680627  0.87300639  0.73767505  1
  O  O351  1  0.75132794  0.38209648  0.24810583  1
  O  O352  1  0.74690725  0.38217567  0.74078894  1
  O  O353  1  0.75160229  0.88215977  0.24196983  1
  O  O354  1  0.74680174  0.89131165  0.75072393  1
  O  O355  1  0.26428054  0.12533623  0.25468699  1
  O  O356  1  0.25569224  0.12541333  0.75527927  1
  O  O357  1  0.25987205  0.61787357  0.25665936  1
  O  O358  1  0.25921389  0.61769267  0.75382452  1
  O  O359  1  0.74762731  0.11066624  0.25161245  1
  O  O360  1  0.75761808  0.11847305  0.75195377  1
  O  O361  1  0.75848225  0.62064059  0.25765873  1
  O  O362  1  0.75089223  0.61825521  0.75725038  1
  O  O363  1  0.37869591  0.11954923  0.37127910  1
  O  O364  1  0.36186520  0.13862341  0.86111559  1
  O  O365  1  0.37359844  0.61454994  0.37317277  1
  O  O366  1  0.36547885  0.62124687  0.85926090  1
  O  O367  1  0.87736001  0.11009503  0.38559678  1
  O  O368  1  0.86673454  0.11352634  0.87357554  1
  O  O369  1  0.86859959  0.62619563  0.36517963  1
  O  O370  1  0.86435015  0.62123577  0.87289631  1
  O  O371  1  0.13206113  0.38380873  0.12182611  1
  O  O372  1  0.11012453  0.38674260  0.62974504  1
  O  O373  1  0.11797842  0.88837405  0.13570827  1
  O  O374  1  0.13372149  0.86389707  0.63452437  1
  O  O375  1  0.64132684  0.37176121  0.13587145  1
  O  O376  1  0.63724914  0.38369764  0.63106343  1
  O  O377  1  0.63489853  0.88242852  0.12401727  1
  O  O378  1  0.55848615  0.89761922  0.62455478  1
  O  O379  1  0.11117408  0.24605892  0.25893175  1
  O  O380  1  0.12156154  0.25872864  0.76164630  1
  O  O381  1  0.12120918  0.75671747  0.25363566  1
  O  O382  1  0.12981476  0.75438651  0.76211999  1
  O  O383  1  0.62315536  0.25425087  0.25642279  1
  O  O384  1  0.61871198  0.25763470  0.74888138  1
  O  O385  1  0.61616874  0.75197566  0.25148565  1
  O  O386  1  0.62100307  0.74842847  0.76325161  1
  O  O387  1  0.38178237  0.24631031  0.24685478  1
  O  O388  1  0.38398076  0.24565057  0.73426994  1
  O  O389  1  0.37885749  0.73864147  0.24261100  1
  O  O390  1  0.36521593  0.73303134  0.73546587  1
  O  O391  1  0.88889539  0.24765564  0.24343861  1
  O  O392  1  0.87012131  0.24142981  0.74821231  1
  O  O393  1  0.88571649  0.74589683  0.25336690  1
  O  O394  1  0.86523927  0.75258730  0.73529956  1
  O  O395  1  0.37196137  0.49174166  0.50383390  1
  O  O396  1  0.38515412  0.49323462  0.99594115  1
  O  O397  1  0.38428614  0.99212065  0.49347618  1
  O  O398  1  0.35735233  0.99562076  1.02096577  1
  O  O399  1  0.86858102  0.48746769  0.49752179  1
  O  O400  1  0.87990832  0.50119366  0.99665275  1
  O  O401  1  0.86835298  0.98615966  0.49378878  1
  O  O402  1  0.88162222  0.99159269  0.99259986  1
  O  O403  1  0.12054318  0.00576190  0.00449249  1
  O  O404  1  0.12650590  0.00963170  0.49591868  1
  O  O405  1  0.11842158  0.50819621  0.01035114  1
  O  O406  1  0.11935198  0.50786810  0.51083245  1
  O  O407  1  0.63261524  0.00839604  0.01312997  1
  O  O408  1  0.62086460  0.00475490  0.49842242  1
  O  O409  1  0.61533917  0.50189184  0.00173140  1
  O  O410  1  0.63536615  0.49707449  0.51435544  1
  O  O411  1  0.36757219  0.36360777  0.12939034  1
  O  O412  1  0.37899720  0.36236667  0.61358095  1
  O  O413  1  0.36728485  0.87102885  0.13288920  1
  O  O414  1  0.36878655  0.86289752  0.62022012  1
  O  O415  1  0.86665036  0.36524986  0.12567369  1
  O  O416  1  0.86682010  0.37615471  0.61859997  1
  O  O417  1  0.87155557  0.88121473  0.11247400  1
  O  O418  1  0.88518776  0.86765411  0.61565100  1
  O  O419  1  0.12975915  0.13583904  0.38270333  1
  O  O420  1  0.13305993  0.13785076  0.87686454  1
  O  O421  1  0.12622132  0.62945178  0.38114453  1
  O  O422  1  0.12742030  0.62482078  0.87932016  1
  O  O423  1  0.62698414  0.12983109  0.38602675  1
  O  O424  1  0.62718879  0.12997630  0.89031725  1
  O  O425  1  0.64193804  0.62856185  0.37186397  1
  O  O426  1  0.63529755  0.63150400  0.87639446  1
