# generated using pymatgen
data_V85Zn86O256
_symmetry_space_group_name_H-M   'P 1'
_cell_length_a   16.92455962
_cell_length_b   16.91889979
_cell_length_c   16.91599784
_cell_angle_alpha   89.96062249
_cell_angle_beta   89.99917999
_cell_angle_gamma   89.98236105
_symmetry_Int_Tables_number   1
_chemical_formula_structural   V85Zn86O256
_chemical_formula_sum   'V85 Zn86 O256'
_cell_volume   4843.80881424
_cell_formula_units_Z   1
loop_
 _symmetry_equiv_pos_site_id
 _symmetry_equiv_pos_as_xyz
  1  'x, y, z'
loop_
 _atom_site_type_symbol
 _atom_site_label
 _atom_site_symmetry_multiplicity
 _atom_site_fract_x
 _atom_site_fract_y
 _atom_site_fract_z
 _atom_site_occupancy
  V  V0  1  0.74638867  0.50021063  0.75418817  1
  V  V1  1  0.74992208  -0.00355399  0.24718260  1
  V  V2  1  0.51396661  0.36900572  0.87369723  1
  V  V3  1  0.37734182  0.50783165  0.36843823  1
  V  V4  1  0.87060134  0.25057099  0.12368756  1
  V  V5  1  0.49477181  0.75419115  0.26181632  1
  V  V6  1  0.37792727  0.49799907  0.87739707  1
  V  V7  1  0.24856425  0.63325182  0.87985178  1
  V  V8  1  0.62458332  -0.00724840  0.12278214  1
  V  V9  1  0.75705084  0.62514419  0.88433813  1
  V  V10  1  0.25114876  0.50794847  0.24784884  1
  V  V11  1  0.62425056  0.62286554  0.00836404  1
  V  V12  1  0.63093650  0.12495480  0.49162649  1
  V  V13  1  0.87440538  0.12769265  0.74920281  1
  V  V14  1  0.62613971  0.63566014  0.49341540  1
  V  V15  1  0.62501042  0.74994186  0.87778766  1
  V  V16  1  0.50188300  0.37122718  0.36821354  1
  V  V17  1  0.24690544  0.88738571  0.62741234  1
  V  V18  1  0.75124188  0.25069743  0.49290495  1
  V  V19  1  0.37768847  0.62433623  0.75162380  1
  V  V20  1  0.62546518  0.86880111  0.26205768  1
  V  V21  1  0.87621972  0.38276667  0.50178566  1
  V  V22  1  0.74678238  0.75739133  0.01238867  1
  V  V23  1  0.12538350  0.25051592  0.37741163  1
  V  V24  1  0.37420119  0.23612948  0.12664234  1
  V  V25  1  0.00465668  0.25332708  0.75227225  1
  V  V26  1  0.24753256  0.37802732  0.12415974  1
  V  V27  1  -0.00011003  0.12547800  0.12622908  1
  V  V28  1  0.49814412  0.23368372  0.24545132  1
  V  V29  1  0.50070906  0.75011537  0.74980264  1
  V  V30  1  0.74544036  0.24830273  -0.00991065  1
  V  V31  1  0.12541188  0.88089860  0.25145165  1
  V  V32  1  0.50148430  -0.00645538  0.49467862  1
  V  V33  1  0.12565181  0.88483581  0.74744856  1
  V  V34  1  0.50272876  0.49751343  0.49764028  1
  V  V35  1  0.84985616  0.64441886  0.71352556  1
  V  V36  1  0.87240272  0.00407740  0.38627149  1
  V  V37  1  0.25163243  0.37341685  0.62614492  1
  V  V38  1  0.87212084  0.50501324  0.36740474  1
  V  V39  1  0.01243703  0.63228200  0.61458899  1
  V  V40  1  0.37734482  -0.00064529  0.36793192  1
  V  V41  1  0.12352855  0.38120926  0.24595207  1
  V  V42  1  -0.00259105  0.25146768  0.25117648  1
  V  V43  1  0.50444789  0.49790683  0.00859861  1
  V  V44  1  0.25133853  0.50081119  0.75178274  1
  V  V45  1  0.74025215  0.37901051  0.12236716  1
  V  V46  1  0.36839016  0.74940328  0.12489498  1
  V  V47  1  0.51554071  0.25085734  0.75242925  1
  V  V48  1  -0.00053971  0.88124882  0.38654171  1
  V  V49  1  0.62487607  0.49649249  0.62464216  1
  V  V50  1  0.00025224  0.00051135  0.00173557  1
  V  V51  1  0.49396580  0.00186372  0.00481446  1
  V  V52  1  0.63478514  0.87310276  0.74716039  1
  V  V53  1  0.75018394  0.63878690  0.37161661  1
  V  V54  1  0.63385212  -0.00608655  0.62249051  1
  V  V55  1  0.49504706  0.62694570  0.13122133  1
  V  V56  1  0.86057686  0.85985211  0.51029764  1
  V  V57  1  0.00511491  0.11516461  0.62171201  1
  V  V58  1  0.12985216  0.50122453  0.61693800  1
  V  V59  1  0.36940639  -0.00015634  0.86551308  1
  V  V60  1  0.12907072  0.62985831  0.01302856  1
  V  V61  1  0.50384757  0.12299571  0.62417959  1
  V  V62  1  0.37481136  0.87085027  0.49731003  1
  V  V63  1  0.36432940  0.87080607  -0.00215179  1
  V  V64  1  0.87090633  0.87665400  0.01375693  1
  V  V65  1  0.12744862  0.37422069  0.75822030  1
  V  V66  1  0.75031291  0.37730890  0.62913456  1
  V  V67  1  0.24209387  0.13009278  0.86570648  1
  V  V68  1  0.86521527  0.12559215  0.25613172  1
  V  V69  1  -0.00065232  0.87206829  0.87518123  1
  V  V70  1  0.61910783  0.12518022  -0.00261448  1
  V  V71  1  0.74050071  0.50284576  0.24721774  1
  V  V72  1  -0.00004626  0.37788862  0.37583696  1
  V  V73  1  0.37786252  0.24805223  0.62616382  1
  V  V74  1  0.25352730  0.12455522  0.36574562  1
  V  V75  1  0.24921278  0.24731817  0.49961659  1
  V  V76  1  0.37577065  0.37146256  0.00067661  1
  V  V77  1  0.87088380  -0.00080890  0.87400511  1
  V  V78  1  0.00639479  0.50095250  0.00573660  1
  V  V79  1  0.00326031  0.74281833  0.75333222  1
  V  V80  1  0.12294642  0.11001050  0.50083368  1
  V  V81  1  0.87546569  0.37881652  -0.00378501  1
  V  V82  1  0.37767812  0.37384444  0.49840298  1
  V  V83  1  0.12647411  0.74382156  0.38216748  1
  V  V84  1  -0.00634996  0.74757541  0.25017872  1
  Zn  Zn85  1  0.49945122  0.87678916  0.87493961  1
  Zn  Zn86  1  0.24663829  0.87602823  0.12304412  1
  Zn  Zn87  1  0.37254250  0.11909422  0.74430891  1
  Zn  Zn88  1  0.86634779  0.74661914  0.13659765  1
  Zn  Zn89  1  -0.00446402  0.61881223  0.13292553  1
  Zn  Zn90  1  0.00583565  0.50544487  0.49681555  1
  Zn  Zn91  1  0.12780362  0.00139076  0.12461465  1
  Zn  Zn92  1  0.75422168  -0.00452589  0.74531613  1
  Zn  Zn93  1  0.25007061  0.62465341  0.38059608  1
  Zn  Zn94  1  0.49952783  0.62280578  0.62360903  1
  Zn  Zn95  1  0.24194513  0.25165878  -0.00749856  1
  Zn  Zn96  1  0.87832532  0.25352551  0.62395063  1
  Zn  Zn97  1  0.12969222  0.75354665  0.88068593  1
  Zn  Zn98  1  0.61990400  0.37457784  0.24223896  1
  Zn  Zn99  1  0.63029272  0.24554445  0.36551859  1
  Zn  Zn100  1  0.24362739  0.74222919  0.51097167  1
  Zn  Zn101  1  0.88185566  0.50471123  0.87008968  1
  Zn  Zn102  1  0.12089233  0.13270183  -0.00802189  1
  Zn  Zn103  1  0.74131350  0.12805308  0.86758621  1
  Zn  Zn104  1  0.00619899  0.37319904  0.87860874  1
  Zn  Zn105  1  0.37225088  0.74978773  0.62606587  1
  Zn  Zn106  1  0.25781285  0.00243175  0.24317320  1
  Zn  Zn107  1  0.18482892  0.19240657  0.18440870  1
  Zn  Zn108  1  0.18615242  0.18471743  0.68902027  1
  Zn  Zn109  1  0.18376962  0.69284410  0.19359695  1
  Zn  Zn110  1  0.18903603  0.69336024  0.69064183  1
  Zn  Zn111  1  0.68302617  0.18437685  0.17840025  1
  Zn  Zn112  1  0.69167766  0.18613423  0.68003823  1
  Zn  Zn113  1  0.68217080  0.68731689  0.19102130  1
  Zn  Zn114  1  0.67991614  0.68226476  0.68566448  1
  Zn  Zn115  1  0.31474934  0.31326158  0.30878604  1
  Zn  Zn116  1  0.31982804  0.30965939  0.81032013  1
  Zn  Zn117  1  0.31101935  0.81463612  0.31229809  1
  Zn  Zn118  1  0.31071046  0.81500500  0.80775892  1
  Zn  Zn119  1  0.81156317  0.31816948  0.31118763  1
  Zn  Zn120  1  0.81443420  0.31359816  0.81200971  1
  Zn  Zn121  1  0.81219092  0.82157729  0.31680730  1
  Zn  Zn122  1  0.81351633  0.80981672  0.81902198  1
  Zn  Zn123  1  0.19167141  0.43678839  0.43528266  1
  Zn  Zn124  1  0.18876136  0.44420529  0.94054986  1
  Zn  Zn125  1  0.19273741  0.93350218  0.43555527  1
  Zn  Zn126  1  0.18612243  0.94222119  0.93410059  1
  Zn  Zn127  1  0.68702150  0.43788145  0.43527223  1
  Zn  Zn128  1  0.68742146  0.43958035  0.94014791  1
  Zn  Zn129  1  0.69301206  0.93770495  0.43461024  1
  Zn  Zn130  1  0.68620091  0.93775235  0.93545866  1
  Zn  Zn131  1  0.30485159  0.06036908  0.05378714  1
  Zn  Zn132  1  0.31373331  0.06198193  0.55604944  1
  Zn  Zn133  1  0.31350859  0.56192879  0.06432866  1
  Zn  Zn134  1  0.31386381  0.56416215  0.56070482  1
  Zn  Zn135  1  0.80895680  0.06407270  0.06484608  1
  Zn  Zn136  1  0.81417975  0.06570596  0.56450992  1
  Zn  Zn137  1  0.81781149  0.56358501  0.06847909  1
  Zn  Zn138  1  0.81008891  0.57575147  0.56035737  1
  Zn  Zn139  1  0.43579604  0.43453446  0.18635219  1
  Zn  Zn140  1  0.44147456  0.43461241  0.68991465  1
  Zn  Zn141  1  0.44018889  0.93313647  0.18418850  1
  Zn  Zn142  1  0.44215594  0.93316382  0.68318446  1
  Zn  Zn143  1  0.93171380  0.43922260  0.18463595  1
  Zn  Zn144  1  0.93829106  0.44865236  0.68840647  1
  Zn  Zn145  1  0.94029055  0.93768872  0.19369071  1
  Zn  Zn146  1  0.93830846  0.93434437  0.68604581  1
  Zn  Zn147  1  0.05885476  0.06307085  0.31517394  1
  Zn  Zn148  1  0.05706686  0.06262483  0.81114090  1
  Zn  Zn149  1  0.06292238  0.56342632  0.31233848  1
  Zn  Zn150  1  0.06456074  0.56192621  0.81538999  1
  Zn  Zn151  1  0.56445021  0.05811189  0.31263826  1
  Zn  Zn152  1  0.55979004  0.05893569  0.81312129  1
  Zn  Zn153  1  0.56368582  0.56521239  0.31117077  1
  Zn  Zn154  1  0.56550813  0.56071970  0.81829797  1
  Zn  Zn155  1  0.43943767  0.18408688  0.43571907  1
  Zn  Zn156  1  0.43488048  0.18460678  0.93559495  1
  Zn  Zn157  1  0.43593768  0.68601847  0.44023658  1
  Zn  Zn158  1  0.43719405  0.68885884  0.93889313  1
  Zn  Zn159  1  0.93675347  0.18948551  0.43947652  1
  Zn  Zn160  1  0.93670672  0.18974911  0.93478888  1
  Zn  Zn161  1  0.93698139  0.68984239  0.43628856  1
  Zn  Zn162  1  0.93897156  0.68976730  0.94846498  1
  Zn  Zn163  1  0.06313984  0.31114149  0.06194905  1
  Zn  Zn164  1  0.06262560  0.31156320  0.56671448  1
  Zn  Zn165  1  0.06301388  0.81237441  0.06497349  1
  Zn  Zn166  1  0.06104873  0.81848305  0.56389682  1
  Zn  Zn167  1  0.56010936  0.30563874  0.06218281  1
  Zn  Zn168  1  0.56627161  0.31202685  0.56150071  1
  Zn  Zn169  1  0.55558527  0.81591750  0.06530853  1
  Zn  Zn170  1  0.56034931  0.81251301  0.56449291  1
  O  O171  1  0.10863719  0.12494205  0.12844051  1
  O  O172  1  0.11407305  0.12849182  0.61712611  1
  O  O173  1  0.12243897  0.62917023  0.11609293  1
  O  O174  1  0.11924244  0.61743949  0.63157484  1
  O  O175  1  0.62866078  0.10879032  0.10967805  1
  O  O176  1  0.61963268  0.11747790  0.61468399  1
  O  O177  1  0.61236652  0.63044123  0.11512054  1
  O  O178  1  0.62140981  0.61205301  0.61236585  1
  O  O179  1  0.38600768  0.37874283  0.37808165  1
  O  O180  1  0.38036954  0.37678939  0.88723512  1
  O  O181  1  0.36685964  0.88332863  0.38946928  1
  O  O182  1  0.37361007  0.88381379  0.87856937  1
  O  O183  1  0.88059608  0.38399639  0.38116475  1
  O  O184  1  0.87591946  0.37889576  0.88636762  1
  O  O185  1  0.88086058  0.88426152  0.38547526  1
  O  O186  1  0.88040393  0.88275940  0.88257100  1
  O  O187  1  0.25947105  0.00820186  0.37312668  1
  O  O188  1  0.26286860  0.00892377  0.87546965  1
  O  O189  1  0.26041009  0.49753349  0.36614132  1
  O  O190  1  0.25895998  0.50944709  0.87072500  1
  O  O191  1  0.75856919  -0.00044001  0.35968178  1
  O  O192  1  0.76230714  0.00178901  0.87278488  1
  O  O193  1  0.75508642  0.50371011  0.36597754  1
  O  O194  1  0.75100337  0.50621177  0.86972533  1
  O  O195  1  0.25728863  0.48681456  0.13275354  1
  O  O196  1  0.24877158  0.49395350  0.63228276  1
  O  O197  1  0.24555427  0.99842461  0.12733151  1
  O  O198  1  0.25399127  0.98712732  0.62086660  1
  O  O199  1  0.75490469  0.49154478  0.13394307  1
  O  O200  1  0.74396873  0.49676762  0.63049418  1
  O  O201  1  0.74318776  1.00112011  0.13726076  1
  O  O202  1  0.73740588  1.00407104  0.62586997  1
  O  O203  1  0.00501669  0.37262001  0.25293033  1
  O  O204  1  0.00884346  0.37256225  0.74935728  1
  O  O205  1  0.00557321  0.86876669  0.26227620  1
  O  O206  1  0.00260535  0.86220960  0.75281838  1
  O  O207  1  0.50090892  0.36578909  0.25413010  1
  O  O208  1  0.49783411  0.36448837  0.76139839  1
  O  O209  1  0.51042560  0.86306985  0.24724905  1
  O  O210  1  0.50984909  0.86518872  0.75181088  1
  O  O211  1  0.50060079  0.13450223  0.25239921  1
  O  O212  1  0.49992537  0.12843717  0.73738373  1
  O  O213  1  0.50819613  0.63916683  0.24136317  1
  O  O214  1  0.49446830  0.62930771  0.75328333  1
  O  O215  1  0.98971745  0.13110000  0.24439096  1
  O  O216  1  0.99626870  0.13292740  0.74107795  1
  O  O217  1  1.00492040  0.64264625  0.25215944  1
  O  O218  1  1.00058821  0.63437224  0.74419304  1
  O  O219  1  0.37338709  0.25593864  0.00964719  1
  O  O220  1  0.37335268  0.25285572  0.50904980  1
  O  O221  1  0.37990665  0.75947333  0.00875510  1
  O  O222  1  0.37752904  0.75914817  0.50439367  1
  O  O223  1  0.86787754  0.25667569  0.00384813  1
  O  O224  1  0.86933175  0.26443605  0.50084090  1
  O  O225  1  0.86432826  0.76249084  0.00131534  1
  O  O226  1  0.87430133  0.76037495  0.49967251  1
  O  O227  1  0.13142467  0.24745244  0.49441157  1
  O  O228  1  0.12834209  0.24600206  1.00197357  1
  O  O229  1  0.12381441  0.75812311  0.48484611  1
  O  O230  1  0.12100251  0.73548022  0.99870998  1
  O  O231  1  0.63308098  0.24155447  0.49819067  1
  O  O232  1  0.63199146  0.23790052  1.00469506  1
  O  O233  1  0.62109851  0.73394076  0.50709098  1
  O  O234  1  0.62815453  0.74676106  0.99833625  1
  O  O235  1  0.48610879  0.25038869  0.13350418  1
  O  O236  1  0.49643138  0.24316967  0.62746218  1
  O  O237  1  0.49048068  0.74349405  0.13197537  1
  O  O238  1  0.49757177  0.74469398  0.63870165  1
  O  O239  1  0.99034806  0.24517991  0.13215735  1
  O  O240  1  0.99738110  0.24457614  0.63589016  1
  O  O241  1  1.00040018  0.75441025  0.14416144  1
  O  O242  1  1.00844082  0.73754459  0.63216605  1
  O  O243  1  0.00339249  0.25777618  0.36939555  1
  O  O244  1  -0.00391230  0.25333431  0.85871788  1
  O  O245  1  0.00770247  0.75727393  0.36912856  1
  O  O246  1  -0.00049078  0.75487135  0.86959702  1
  O  O247  1  0.49820588  0.25371138  0.36164479  1
  O  O248  1  0.49410926  0.25620420  0.86453362  1
  O  O249  1  0.49499685  0.74597405  0.36031302  1
  O  O250  1  0.50680093  0.74961382  0.86550464  1
  O  O251  1  0.24098308  0.13011933  0.49271112  1
  O  O252  1  0.24572060  0.12724094  0.98185412  1
  O  O253  1  0.25637390  0.63048238  0.49448970  1
  O  O254  1  0.23777560  0.61818968  0.99572005  1
  O  O255  1  0.74367444  0.13805018  0.50644547  1
  O  O256  1  0.74457021  0.13370358  0.99689431  1
  O  O257  1  0.73532290  0.61899485  0.48411370  1
  O  O258  1  0.74020181  0.63011383  1.00089449  1
  O  O259  1  0.25761942  0.37517687  0.00619688  1
  O  O260  1  0.25839196  0.36738286  0.50495190  1
  O  O261  1  0.25986933  0.87884160  -0.00092218  1
  O  O262  1  0.25604580  0.87051853  0.51090294  1
  O  O263  1  0.75558901  0.37027260  0.00407747  1
  O  O264  1  0.75652794  0.37355527  0.50867660  1
  O  O265  1  0.75736850  0.86815125  -0.00377625  1
  O  O266  1  0.76043391  0.87242222  0.49784036  1
  O  O267  1  0.13183386  0.48767334  0.25675703  1
  O  O268  1  0.13319373  0.49428883  0.74193609  1
  O  O269  1  0.12146224  0.98944323  0.25160861  1
  O  O270  1  0.11325377  0.98385336  0.75172867  1
  O  O271  1  0.63593156  0.49524058  0.25230904  1
  O  O272  1  0.63737899  0.50664235  0.74214740  1
  O  O273  1  0.62921293  0.99273306  0.24371053  1
  O  O274  1  0.62561480  0.99018630  0.74184420  1
  O  O275  1  0.37963883  -0.00820938  0.26392890  1
  O  O276  1  0.38402197  -0.00259635  0.76277699  1
  O  O277  1  0.36514051  0.49193953  0.25759654  1
  O  O278  1  0.37324260  0.50498303  0.75730875  1
  O  O279  1  0.86740459  0.00637499  0.25529794  1
  O  O280  1  0.87592711  0.00571524  0.75725797  1
  O  O281  1  0.86462372  0.49539859  0.26151651  1
  O  O282  1  0.86088628  0.51964299  0.74879810  1
  O  O283  1  0.11902279  0.37050735  0.36975180  1
  O  O284  1  0.12865581  0.38187953  0.86200217  1
  O  O285  1  0.11732801  0.87037590  0.37125970  1
  O  O286  1  0.11790914  0.87372175  0.86965848  1
  O  O287  1  0.61161579  0.37037022  0.37349921  1
  O  O288  1  0.61318359  0.37509081  0.88120192  1
  O  O289  1  0.62244316  0.88167739  0.36066036  1
  O  O290  1  0.62209768  0.86806706  0.86660333  1
  O  O291  1  0.36593781  0.13828554  0.11937676  1
  O  O292  1  0.38447743  0.13007000  0.62204547  1
  O  O293  1  0.38661726  0.63243611  0.11929340  1
  O  O294  1  0.37899961  0.62188162  0.64116961  1
  O  O295  1  0.88251452  0.12981934  0.13236725  1
  O  O296  1  0.88554564  0.12737596  0.63328387  1
  O  O297  1  0.88377427  0.63599530  0.11838350  1
  O  O298  1  0.90519948  0.60589159  0.62463583  1
  O  O299  1  0.26110970  0.26095988  0.12714692  1
  O  O300  1  0.25946474  0.25190466  0.62067300  1
  O  O301  1  0.26448642  0.74971030  0.13424092  1
  O  O302  1  0.25446837  0.76171919  0.62741092  1
  O  O303  1  0.75405107  0.25681429  0.11482668  1
  O  O304  1  0.75384764  0.26207520  0.61553237  1
  O  O305  1  0.74638314  0.74889685  0.11604997  1
  O  O306  1  0.78165970  0.67707675  0.63656676  1
  O  O307  1  0.24813340  0.24434527  0.37927013  1
  O  O308  1  0.25961252  0.23375332  0.87236677  1
  O  O309  1  0.23446749  0.74964875  0.37200321  1
  O  O310  1  0.25337391  0.73657250  0.87250667  1
  O  O311  1  0.74782436  0.25983885  0.38794932  1
  O  O312  1  0.75248824  0.24978783  0.88620264  1
  O  O313  1  0.75156473  0.73716786  0.36781811  1
  O  O314  1  0.74381642  0.74236305  0.88790901  1
  O  O315  1  -0.00427337  0.11848924  0.00750822  1
  O  O316  1  0.00644637  0.13231852  0.51372300  1
  O  O317  1  0.01362191  0.61844112  0.00142839  1
  O  O318  1  0.00545524  0.62659691  0.51080493  1
  O  O319  1  0.50557339  0.11586241  -0.00372516  1
  O  O320  1  0.50826725  0.11952286  0.50857957  1
  O  O321  1  0.50529641  0.61692764  0.00534315  1
  O  O322  1  0.51009528  0.61665454  0.49857998  1
  O  O323  1  0.49625142  0.37673315  0.49117545  1
  O  O324  1  0.49470120  0.37956021  0.99767562  1
  O  O325  1  0.49147839  0.88422341  0.50603071  1
  O  O326  1  0.48810617  0.88336657  0.99610559  1
  O  O327  1  0.99233448  0.37916872  0.49642936  1
  O  O328  1  0.99278454  0.38137914  0.99996282  1
  O  O329  1  0.99205709  0.87386601  0.49018993  1
  O  O330  1  0.99234921  0.88214803  0.99708824  1
  O  O331  1  0.49523273  0.49144590  0.37471173  1
  O  O332  1  0.49601859  0.49180564  0.88494909  1
  O  O333  1  0.49391768  1.00593069  0.38749797  1
  O  O334  1  0.48706234  0.99882165  0.88378007  1
  O  O335  1  0.99162318  0.49783431  0.37676791  1
  O  O336  1  0.99889749  0.49734519  0.88651594  1
  O  O337  1  0.98677511  0.99147928  0.36979126  1
  O  O338  1  0.98847651  0.99628548  0.88267063  1
  O  O339  1  -0.00218755  0.00841318  0.11845214  1
  O  O340  1  -0.00095890  0.01658338  0.62859116  1
  O  O341  1  -0.00340424  0.49975192  0.11229335  1
  O  O342  1  0.01626735  0.50762756  0.62337554  1
  O  O343  1  0.50472760  -0.00202076  0.11262188  1
  O  O344  1  0.50888035  0.00656921  0.61627335  1
  O  O345  1  0.49410388  0.50770818  0.11653953  1
  O  O346  1  0.50842176  0.49754432  0.61922374  1
  O  O347  1  0.24251222  0.38061908  0.24370066  1
  O  O348  1  0.24753957  0.37873161  0.74574083  1
  O  O349  1  0.23884871  0.87997138  0.24971046  1
  O  O350  1  0.24172724  0.87588227  0.73852984  1
  O  O351  1  0.74584272  0.38139464  0.23962617  1
  O  O352  1  0.75767636  0.38435838  0.73837406  1
  O  O353  1  0.73630404  0.88021263  0.25041434  1
  O  O354  1  0.73943575  0.87183053  0.75358156  1
  O  O355  1  0.24166005  0.12525209  0.26262551  1
  O  O356  1  0.25441337  0.12448515  0.75879471  1
  O  O357  1  0.24188309  0.61069042  0.25342693  1
  O  O358  1  0.25842837  0.62055656  0.75821658  1
  O  O359  1  0.76029582  0.12133694  0.24384427  1
  O  O360  1  0.76032653  0.12313726  0.74882408  1
  O  O361  1  0.74200668  0.61845045  0.26207638  1
  O  O362  1  0.74796253  0.62058309  0.76859559  1
  O  O363  1  0.36423814  0.11496103  0.38238713  1
  O  O364  1  0.36840524  0.11294388  0.86987501  1
  O  O365  1  0.37776916  0.61054255  0.37309627  1
  O  O366  1  0.37201365  0.61959937  0.86859559  1
  O  O367  1  0.88089010  0.11890902  0.36646801  1
  O  O368  1  0.87543251  0.11822273  0.86293470  1
  O  O369  1  0.86009120  0.61866033  0.38178154  1
  O  O370  1  0.86124324  0.62479400  0.88838110  1
  O  O371  1  0.13472778  0.37137358  0.13472107  1
  O  O372  1  0.13408364  0.38224947  0.63265353  1
  O  O373  1  0.12532034  0.87755053  0.13546579  1
  O  O374  1  0.13722988  0.87345034  0.63083499  1
  O  O375  1  0.63648984  0.37235227  0.11999042  1
  O  O376  1  0.63457372  0.38740635  0.61938054  1
  O  O377  1  0.62042464  0.88720213  0.13268006  1
  O  O378  1  0.62175537  0.88217901  0.63290524  1
  O  O379  1  0.11888840  0.26108138  0.25668274  1
  O  O380  1  0.11837857  0.26241720  0.74304196  1
  O  O381  1  0.11599224  0.76169787  0.26068382  1
  O  O382  1  0.11691665  0.75781133  0.75742738  1
  O  O383  1  0.61278315  0.24953665  0.24593001  1
  O  O384  1  0.61483946  0.24538349  0.74251634  1
  O  O385  1  0.61533421  0.76295772  0.24756172  1
  O  O386  1  0.62032886  0.75272494  0.75290388  1
  O  O387  1  0.38311360  0.25154082  0.23615799  1
  O  O388  1  0.38443840  0.24691150  0.73517570  1
  O  O389  1  0.38788432  0.75861124  0.24355628  1
  O  O390  1  0.38417380  0.74168469  0.75235659  1
  O  O391  1  0.87622429  0.24419588  0.24651036  1
  O  O392  1  0.88083098  0.24300584  0.74658509  1
  O  O393  1  0.88986009  0.76050024  0.25465540  1
  O  O394  1  0.88086599  0.73721746  0.75592631  1
  O  O395  1  0.38396923  0.49219741  0.49241750  1
  O  O396  1  0.38350509  0.49188531  0.99672544  1
  O  O397  1  0.38450623  0.99361992  0.49280900  1
  O  O398  1  0.37913011  0.99375035  0.99041762  1
  O  O399  1  0.87254961  0.49299668  0.49010261  1
  O  O400  1  0.88132417  0.49180251  0.99762475  1
  O  O401  1  0.86775504  0.99988602  0.48844832  1
  O  O402  1  0.88043241  0.99630067  0.99549512  1
  O  O403  1  0.10946894  0.00496825  -0.00059315  1
  O  O404  1  0.12635826  0.01099782  0.49209455  1
  O  O405  1  0.11795407  0.51265716  -0.00028894  1
  O  O406  1  0.12859680  0.49394165  0.51281514  1
  O  O407  1  0.61607563  -0.00043060  0.00511272  1
  O  O408  1  0.62084027  0.00352484  0.50345997  1
  O  O409  1  0.61539189  0.50925259  -0.00087643  1
  O  O410  1  0.61935465  0.50414890  0.50481807  1
  O  O411  1  0.37001422  0.36804595  0.11408547  1
  O  O412  1  0.37187989  0.36732882  0.62023273  1
  O  O413  1  0.37263631  0.86756059  0.11531816  1
  O  O414  1  0.36615727  0.87568939  0.61728424  1
  O  O415  1  0.86489443  0.36992515  0.11414392  1
  O  O416  1  0.86955089  0.38148119  0.61749842  1
  O  O417  1  0.87774206  0.87419800  0.11621836  1
  O  O418  1  0.87719192  0.87959291  0.60862342  1
  O  O419  1  0.12833159  0.13195210  0.38220393  1
  O  O420  1  0.13834519  0.11922513  0.86930585  1
  O  O421  1  0.12377133  0.64070026  0.37390135  1
  O  O422  1  0.13532441  0.62664232  0.88362344  1
  O  O423  1  0.62343469  0.12562974  0.38756020  1
  O  O424  1  0.62721983  0.11341436  0.88965481  1
  O  O425  1  0.63328245  0.62327003  0.38489145  1
  O  O426  1  0.63216864  0.62983766  0.88906597  1
