# generated using pymatgen
data_V85Zn86O256
_symmetry_space_group_name_H-M   'P 1'
_cell_length_a   16.94960514
_cell_length_b   16.95488334
_cell_length_c   16.95542923
_cell_angle_alpha   90.03345305
_cell_angle_beta   90.08255080
_cell_angle_gamma   89.98879769
_symmetry_Int_Tables_number   1
_chemical_formula_structural   V85Zn86O256
_chemical_formula_sum   'V85 Zn86 O256'
_cell_volume   4872.62115903
_cell_formula_units_Z   1
loop_
 _symmetry_equiv_pos_site_id
 _symmetry_equiv_pos_as_xyz
  1  'x, y, z'
loop_
 _atom_site_type_symbol
 _atom_site_label
 _atom_site_symmetry_multiplicity
 _atom_site_fract_x
 _atom_site_fract_y
 _atom_site_fract_z
 _atom_site_occupancy
  V  V0  1  0.62216929  0.37723594  0.25669839  1
  V  V1  1  -0.00674701  0.00456893  -0.01027645  1
  V  V2  1  0.49885668  0.25548025  0.25337347  1
  V  V3  1  0.74812055  0.51204829  0.25888733  1
  V  V4  1  0.74000948  -0.00345803  0.75450968  1
  V  V5  1  0.62550881  -0.00253600  0.12220441  1
  V  V6  1  0.11715848  0.62779640  0.50655389  1
  V  V7  1  0.25233347  0.87421342  0.12367243  1
  V  V8  1  0.12353503  0.12906157  0.50078043  1
  V  V9  1  0.49882416  0.74977357  0.25321237  1
  V  V10  1  0.37433738  0.88037212  -0.00707798  1
  V  V11  1  0.00176169  0.13493837  0.12404838  1
  V  V12  1  -0.00336224  0.50215224  0.50431318  1
  V  V13  1  0.75112961  0.12597764  0.37714010  1
  V  V14  1  0.87382224  0.37175170  0.50181658  1
  V  V15  1  0.50327132  0.50099123  0.49476936  1
  V  V16  1  0.50325861  0.37993601  0.87279423  1
  V  V17  1  0.24264917  0.38360902  0.13309985  1
  V  V18  1  0.62214845  0.25047194  0.37961749  1
  V  V19  1  0.62768046  0.87419601  0.24935084  1
  V  V20  1  0.74801028  0.62223951  0.86186949  1
  V  V21  1  0.25116752  0.00142593  0.76591889  1
  V  V22  1  0.74975738  0.37435887  0.63539295  1
  V  V23  1  0.50199163  0.10665093  0.62196490  1
  V  V24  1  0.12109217  0.36222775  0.74800757  1
  V  V25  1  0.88046344  0.11912748  0.75893937  1
  V  V26  1  0.26166256  0.61580122  0.87471639  1
  V  V27  1  0.26572715  0.50321798  0.74844347  1
  V  V28  1  0.62958614  0.74355814  0.37696523  1
  V  V29  1  -0.00518147  0.13479159  0.62736198  1
  V  V30  1  0.12142584  0.50281632  0.62922275  1
  V  V31  1  0.50041913  0.88142516  0.87004176  1
  V  V32  1  0.87361371  0.37704390  -0.00122474  1
  V  V33  1  0.38145303  0.37491575  0.49204567  1
  V  V34  1  0.49995788  0.12411990  0.12518250  1
  V  V35  1  0.01137682  0.49419706  -0.00027982  1
  V  V36  1  0.37655629  0.74669715  0.12366990  1
  V  V37  1  0.86997033  0.49808238  0.87097295  1
  V  V38  1  0.12407581  0.00574592  0.12002342  1
  V  V39  1  0.37638995  0.12176378  0.25298467  1
  V  V40  1  0.11905224  0.25359014  0.35901859  1
  V  V41  1  0.12471916  0.87710478  0.25059925  1
  V  V42  1  0.34739465  0.35681268  -0.02493592  1
  V  V43  1  0.25044666  0.37630909  0.62379749  1
  V  V44  1  0.75407649  0.74243564  0.50032161  1
  V  V45  1  0.25357178  0.00049627  0.25041353  1
  V  V46  1  0.89332384  0.62465201  0.74693912  1
  V  V47  1  0.12447559  0.00380568  0.62754819  1
  V  V48  1  0.87716429  0.87382334  0.50383009  1
  V  V49  1  0.62507062  0.75304932  0.86907641  1
  V  V50  1  -0.00018168  0.36278768  0.86700626  1
  V  V51  1  0.62198047  0.49968692  0.12429191  1
  V  V52  1  0.74821600  0.37665072  0.12701474  1
  V  V53  1  0.88179974  0.13563585  0.24972835  1
  V  V54  1  0.13818857  0.13914672  -0.01426160  1
  V  V55  1  0.62519554  0.62191345  -0.00273628  1
  V  V56  1  0.37903355  0.24757812  0.62367286  1
  V  V57  1  0.75951253  0.86704007  0.12517909  1
  V  V58  1  0.75452717  0.00016609  0.24704896  1
  V  V59  1  0.11409829  0.87243697  0.75251694  1
  V  V60  1  0.24941793  0.12732591  0.37312509  1
  V  V61  1  0.73955470  0.87310491  0.63183436  1
  V  V62  1  -0.00056001  0.37540848  0.36358593  1
  V  V63  1  0.87269021  0.87139493  -0.00799683  1
  V  V64  1  0.62682706  0.24789233  0.87276769  1
  V  V65  1  0.89144043  0.74826704  0.63073502  1
  V  V66  1  0.49599110  0.88658623  0.38009541  1
  V  V67  1  0.48485551  0.49732274  -0.00341859  1
  V  V68  1  0.87840605  -0.00092498  0.37201632  1
  V  V69  1  0.88717053  0.63174519  0.24557633  1
  V  V70  1  0.37371673  0.74157074  0.62879310  1
  V  V71  1  0.06684417  0.67001676  0.05582129  1
  V  V72  1  0.36905798  0.25485344  0.12183679  1
  V  V73  1  0.00316606  0.87550793  0.37287573  1
  V  V74  1  0.24925194  0.74237895  -0.00221597  1
  V  V75  1  0.11682035  0.73716086  0.86503376  1
  V  V76  1  0.62595459  0.12388997  0.00104204  1
  V  V77  1  0.49640704  0.74656083  0.75025431  1
  V  V78  1  0.75130322  0.24909194  0.00242446  1
  V  V79  1  0.62846735  0.50304705  0.63383411  1
  V  V80  1  0.25184171  0.87631652  0.63074754  1
  V  V81  1  0.12288276  0.74923305  0.37490409  1
  V  V82  1  0.37256818  0.12084990  0.76173870  1
  V  V83  1  0.25115595  0.75191270  0.50232396  1
  V  V84  1  0.24801949  0.25232562  0.49825992  1
  Zn  Zn85  1  0.00036586  0.74961197  0.23473681  1
  Zn  Zn86  1  0.75500528  0.74216420  0.00230332  1
  Zn  Zn87  1  0.87088117  0.24610909  0.62939714  1
  Zn  Zn88  1  0.25384582  0.62149331  0.37875995  1
  Zn  Zn89  1  0.49819462  0.62414088  0.12357565  1
  Zn  Zn90  1  0.37407454  0.62198840  0.25551109  1
  Zn  Zn91  1  0.62941686  0.37751777  0.75208039  1
  Zn  Zn92  1  0.86952474  0.50781111  0.38000153  1
  Zn  Zn93  1  0.74473745  0.25165628  0.50301786  1
  Zn  Zn94  1  0.24530173  0.50313567  0.26096258  1
  Zn  Zn95  1  0.37801807  0.50204307  0.37312323  1
  Zn  Zn96  1  0.88033777  0.25658545  0.12926249  1
  Zn  Zn97  1  0.62872466  0.62296445  0.50124252  1
  Zn  Zn98  1  0.38688926  0.88839944  0.50599762  1
  Zn  Zn99  1  0.49574981  0.00135107  -0.00595890  1
  Zn  Zn100  1  0.00138098  0.00219827  0.50022685  1
  Zn  Zn101  1  0.50199396  0.24825995  0.74901850  1
  Zn  Zn102  1  0.75522952  0.11532513  0.87920930  1
  Zn  Zn103  1  0.49906830  0.62258361  0.62770838  1
  Zn  Zn104  1  0.11390869  0.49691249  0.14391321  1
  Zn  Zn105  1  -0.00621559  0.87222127  0.86877623  1
  Zn  Zn106  1  0.60692472  0.10202515  0.49449892  1
  Zn  Zn107  1  0.19003917  0.19027803  0.17965478  1
  Zn  Zn108  1  0.19340602  0.18520238  0.68830357  1
  Zn  Zn109  1  0.19301069  0.68701866  0.19398035  1
  Zn  Zn110  1  0.18711393  0.68437202  0.69077463  1
  Zn  Zn111  1  0.68876469  0.18828298  0.18922647  1
  Zn  Zn112  1  0.68892229  0.18165997  0.68659808  1
  Zn  Zn113  1  0.68442793  0.68774875  0.18474566  1
  Zn  Zn114  1  0.68887720  0.69024809  0.68625293  1
  Zn  Zn115  1  0.31229464  0.31200553  0.31214574  1
  Zn  Zn116  1  0.31486385  0.31559048  0.80557090  1
  Zn  Zn117  1  0.31394091  0.81150638  0.31473243  1
  Zn  Zn118  1  0.30998473  0.80813930  0.81368786  1
  Zn  Zn119  1  0.81082983  0.31680757  0.31511407  1
  Zn  Zn120  1  0.81489575  0.30458729  0.81206922  1
  Zn  Zn121  1  0.81576001  0.80629758  0.31230508  1
  Zn  Zn122  1  0.81175320  0.80770562  0.81101872  1
  Zn  Zn123  1  0.18355210  0.43807939  0.43448382  1
  Zn  Zn124  1  0.19267611  0.41810028  0.92838669  1
  Zn  Zn125  1  0.22213336  0.95730170  0.45606777  1
  Zn  Zn126  1  0.18246435  0.93372884  0.93809517  1
  Zn  Zn127  1  0.68578979  0.43602608  0.44175034  1
  Zn  Zn128  1  0.68679257  0.43880065  0.93690576  1
  Zn  Zn129  1  0.68661478  0.93128523  0.43647564  1
  Zn  Zn130  1  0.68716099  0.93553556  0.93630289  1
  Zn  Zn131  1  0.31232651  0.06425139  0.06234787  1
  Zn  Zn132  1  0.31512336  0.06298213  0.56632817  1
  Zn  Zn133  1  0.30626157  0.55791098  0.06317092  1
  Zn  Zn134  1  0.31080357  0.56154781  0.55713742  1
  Zn  Zn135  1  0.81560439  0.06043163  0.06344502  1
  Zn  Zn136  1  0.77930373  0.04299829  0.54714907  1
  Zn  Zn137  1  0.81226588  0.56186511  0.06300725  1
  Zn  Zn138  1  0.81340221  0.56040493  0.57061515  1
  Zn  Zn139  1  0.43231250  0.43775247  0.18498137  1
  Zn  Zn140  1  0.44493523  0.43257113  0.68223473  1
  Zn  Zn141  1  0.43869414  0.93514377  0.18670226  1
  Zn  Zn142  1  0.43534706  0.93384978  0.69467869  1
  Zn  Zn143  1  0.93156276  0.44616768  0.18491539  1
  Zn  Zn144  1  0.93573495  0.43852932  0.68764174  1
  Zn  Zn145  1  0.93884788  0.94148480  0.18304524  1
  Zn  Zn146  1  0.93350065  0.94553865  0.68583838  1
  Zn  Zn147  1  0.06387301  0.06468796  0.31065406  1
  Zn  Zn148  1  0.06325288  0.06455256  0.81292012  1
  Zn  Zn149  1  0.06347395  0.56160880  0.31712426  1
  Zn  Zn150  1  0.06611618  0.55302322  0.81786584  1
  Zn  Zn151  1  0.56618264  0.06338365  0.30848285  1
  Zn  Zn152  1  0.56328514  0.06418071  0.80919615  1
  Zn  Zn153  1  0.55959307  0.56564757  0.31432814  1
  Zn  Zn154  1  0.55794699  0.56452559  0.81068038  1
  Zn  Zn155  1  0.43705333  0.18436524  0.43764134  1
  Zn  Zn156  1  0.44298723  0.18868091  0.93721969  1
  Zn  Zn157  1  0.43914794  0.68928157  0.44182190  1
  Zn  Zn158  1  0.43856453  0.68899433  0.93733574  1
  Zn  Zn159  1  0.93830213  0.19066437  0.43887779  1
  Zn  Zn160  1  0.93756210  0.18716618  0.93913529  1
  Zn  Zn161  1  0.93488074  0.68522567  0.43125267  1
  Zn  Zn162  1  0.93150469  0.69077483  0.93206400  1
  Zn  Zn163  1  0.06563512  0.31301286  0.05776483  1
  Zn  Zn164  1  0.06092844  0.31455542  0.55956030  1
  Zn  Zn165  1  0.06383632  0.83114415  0.05688216  1
  Zn  Zn166  1  0.06481122  0.81772793  0.56194753  1
  Zn  Zn167  1  0.55844563  0.31394297  0.06257120  1
  Zn  Zn168  1  0.56205622  0.31349094  0.56426202  1
  Zn  Zn169  1  0.56273315  0.81174286  0.05858603  1
  Zn  Zn170  1  0.56220714  0.81124586  0.56095387  1
  O  O171  1  0.11927064  0.12071481  0.11726283  1
  O  O172  1  0.12042775  0.11973801  0.62311789  1
  O  O173  1  0.12939996  0.61930607  0.11798901  1
  O  O174  1  0.12686386  0.61903486  0.61490542  1
  O  O175  1  0.62150730  0.11901517  0.12125052  1
  O  O176  1  0.60326751  0.13009384  0.62423648  1
  O  O177  1  0.62174454  0.61893584  0.11476515  1
  O  O178  1  0.62666096  0.61730411  0.62298030  1
  O  O179  1  0.37432819  0.37030441  0.38978150  1
  O  O180  1  0.39592709  0.37733904  0.87399210  1
  O  O181  1  0.39370339  0.87147430  0.37339227  1
  O  O182  1  0.38370734  0.86720316  0.88332534  1
  O  O183  1  0.88251584  0.37820503  0.38384196  1
  O  O184  1  0.87740325  0.38201566  0.87610168  1
  O  O185  1  0.88699002  0.87567704  0.37926425  1
  O  O186  1  0.87441618  0.87158103  0.88714971  1
  O  O187  1  0.23455094  0.01143225  0.35437923  1
  O  O188  1  0.24721195  -0.00801906  0.86473790  1
  O  O189  1  0.25714700  0.50119500  0.38088275  1
  O  O190  1  0.24750287  0.50954386  0.86534397  1
  O  O191  1  0.75940973  0.00629749  0.36477587  1
  O  O192  1  0.74771243  -0.00350680  0.86044756  1
  O  O193  1  0.74754450  0.49522068  0.36167011  1
  O  O194  1  0.76189433  0.50599369  0.87813866  1
  O  O195  1  0.24621800  0.49262529  0.13660280  1
  O  O196  1  0.24196578  0.49730723  0.62895680  1
  O  O197  1  0.24284908  0.99659622  0.13227892  1
  O  O198  1  0.23890728  0.99338163  0.63651254  1
  O  O199  1  0.74077324  0.49467708  0.13505490  1
  O  O200  1  0.73988618  0.48842207  0.62023770  1
  O  O201  1  0.74511613  0.99121301  0.12910777  1
  O  O202  1  0.76065747  0.97914439  0.63977309  1
  O  O203  1  -0.01148120  0.38267267  0.26542591  1
  O  O204  1  0.00722879  0.37796565  0.75455951  1
  O  O205  1  0.00518487  0.87234513  0.25309742  1
  O  O206  1  0.01080903  0.88349090  0.75010450  1
  O  O207  1  0.50877344  0.36526670  0.24357957  1
  O  O208  1  0.50725035  0.36947319  0.75709885  1
  O  O209  1  0.50646911  0.86648892  0.25588612  1
  O  O210  1  0.49733780  0.86322628  0.75978468  1
  O  O211  1  0.49374083  0.13013509  0.24453616  1
  O  O212  1  0.48895196  0.12540583  0.74062252  1
  O  O213  1  0.50054680  0.63950883  0.24622836  1
  O  O214  1  0.49961740  0.63987538  0.74751119  1
  O  O215  1  0.99230285  0.12052978  0.23833445  1
  O  O216  1  0.98880471  0.11808101  0.74354367  1
  O  O217  1  0.99164824  0.62743222  0.24883311  1
  O  O218  1  0.99140586  0.62146197  0.75634942  1
  O  O219  1  0.38425564  0.25741924  0.00889451  1
  O  O220  1  0.37029246  0.25456755  0.50552185  1
  O  O221  1  0.37115317  0.75811726  0.00656395  1
  O  O222  1  0.36511787  0.76041672  0.50781102  1
  O  O223  1  0.86599410  0.25697583  0.00274719  1
  O  O224  1  0.87638644  0.26329071  0.50450432  1
  O  O225  1  0.87401748  0.76527087  0.00069770  1
  O  O226  1  0.87317188  0.75732150  0.50448517  1
  O  O227  1  0.13020181  0.24497484  0.49489959  1
  O  O228  1  0.12617599  0.23818549  0.99731294  1
  O  O229  1  0.12662350  0.74390521  0.49614122  1
  O  O230  1  0.12444793  0.74006573  0.99842482  1
  O  O231  1  0.62078111  0.24824410  0.48638071  1
  O  O232  1  0.63068555  0.24476289  0.99441975  1
  O  O233  1  0.63553664  0.74960657  0.49373434  1
  O  O234  1  0.62244879  0.73506525  0.99090489  1
  O  O235  1  0.49393511  0.24440088  0.13475148  1
  O  O236  1  0.48738440  0.24777683  0.62693563  1
  O  O237  1  0.49285450  0.75168267  0.13260099  1
  O  O238  1  0.49118881  0.75248614  0.63180382  1
  O  O239  1  0.99949169  0.23917348  0.11917854  1
  O  O240  1  1.00036602  0.23752438  0.62324307  1
  O  O241  1  1.01648750  0.73831449  0.11363651  1
  O  O242  1  0.99028104  0.75277124  0.62047955  1
  O  O243  1  0.00482091  0.26472736  0.37684059  1
  O  O244  1  -0.00734938  0.26398564  0.87583179  1
  O  O245  1  0.01104750  0.75790132  0.37518271  1
  O  O246  1  0.01238476  0.75255945  0.88035143  1
  O  O247  1  0.50680289  0.24090725  0.36144487  1
  O  O248  1  0.51208507  0.25791978  0.87427561  1
  O  O249  1  0.50906802  0.75828699  0.36879647  1
  O  O250  1  0.50601393  0.75505292  0.86878856  1
  O  O251  1  0.24422222  0.13518679  0.49439836  1
  O  O252  1  0.23666557  0.12201643  1.00239863  1
  O  O253  1  0.24078954  0.63930526  0.50126315  1
  O  O254  1  0.25188712  0.62653444  0.98649648  1
  O  O255  1  0.76904141  0.13684234  0.48025747  1
  O  O256  1  0.74641618  0.13189267  1.00087370  1
  O  O257  1  0.75446773  0.63901047  0.50651842  1
  O  O258  1  0.74247574  0.62363719  0.99075115  1
  O  O259  1  0.25870548  0.40247002  0.02085029  1
  O  O260  1  0.25503762  0.36863872  0.50633544  1
  O  O261  1  0.25464715  0.86549024  0.00375814  1
  O  O262  1  0.23265381  0.85955479  0.51911958  1
  O  O263  1  0.75274875  0.36912970  0.00643998  1
  O  O264  1  0.75855075  0.37201299  0.50604421  1
  O  O265  1  0.76119198  0.87559795  0.00583432  1
  O  O266  1  0.76039946  0.86465419  0.51271584  1
  O  O267  1  0.12861103  0.49883225  0.25498147  1
  O  O268  1  0.12794299  0.49587460  0.73670885  1
  O  O269  1  0.12846379  0.99750345  0.23600995  1
  O  O270  1  0.13154102  0.99465505  0.74592974  1
  O  O271  1  0.62921528  0.49478543  0.24808693  1
  O  O272  1  0.62147714  0.49943354  0.73776528  1
  O  O273  1  0.63416634  0.99431865  0.24177582  1
  O  O274  1  0.64063622  1.00406163  0.74707491  1
  O  O275  1  0.36580435  0.00875238  0.24172252  1
  O  O276  1  0.36623891  0.01215018  0.74810261  1
  O  O277  1  0.37534421  0.50304610  0.25493603  1
  O  O278  1  0.36436429  0.49505460  0.73811528  1
  O  O279  1  0.87241178  0.00918197  0.25313122  1
  O  O280  1  0.86681018  0.01252555  0.74985599  1
  O  O281  1  0.86034863  0.50743290  0.25386799  1
  O  O282  1  0.87764154  0.51345370  0.75691975  1
  O  O283  1  0.10839120  0.36709390  0.38082220  1
  O  O284  1  0.11136312  0.38213769  0.85888935  1
  O  O285  1  0.11318147  0.87214572  0.37105447  1
  O  O286  1  0.12339870  0.86210190  0.86717126  1
  O  O287  1  0.62819107  0.36667215  0.36377539  1
  O  O288  1  0.62152815  0.36668144  0.87428167  1
  O  O289  1  0.61918598  0.86728502  0.36802503  1
  O  O290  1  0.61513511  0.86197253  0.88455119  1
  O  O291  1  0.37858788  0.13332999  0.13309749  1
  O  O292  1  0.38232213  0.12998326  0.63158864  1
  O  O293  1  0.37562894  0.63802352  0.12182889  1
  O  O294  1  0.37330382  0.63905298  0.61914036  1
  O  O295  1  0.88397553  0.12727629  0.13199989  1
  O  O296  1  0.88589892  0.12210003  0.63115869  1
  O  O297  1  0.86663148  0.61827288  0.14622939  1
  O  O298  1  0.87495929  0.63064247  0.64030779  1
  O  O299  1  0.26206983  0.26100788  0.12518628  1
  O  O300  1  0.26079188  0.25275674  0.61798388  1
  O  O301  1  0.25577925  0.75441579  0.11806948  1
  O  O302  1  0.25516991  0.75600092  0.62437098  1
  O  O303  1  0.74862930  0.25636629  0.11546557  1
  O  O304  1  0.74780502  0.25732803  0.62104924  1
  O  O305  1  0.74230342  0.76349783  0.12056748  1
  O  O306  1  0.76190983  0.75922827  0.62279956  1
  O  O307  1  0.24088214  0.24652345  0.37853742  1
  O  O308  1  0.27042218  0.31599133  0.90909474  1
  O  O309  1  0.23685353  0.75842137  0.38591071  1
  O  O310  1  0.23980724  0.73933751  0.87998076  1
  O  O311  1  0.73874201  0.24374383  0.37245528  1
  O  O312  1  0.74409445  0.24828975  0.88876544  1
  O  O313  1  0.74244484  0.76002072  0.38770548  1
  O  O314  1  0.74177906  0.74158023  0.87827549  1
  O  O315  1  0.00561268  0.11927352  0.00545530  1
  O  O316  1  0.00577528  0.12282094  0.50798660  1
  O  O317  1  -0.00028334  0.61537109  -0.00239157  1
  O  O318  1  0.00564695  0.61595625  0.49514522  1
  O  O319  1  0.50638920  0.12110444  0.00706420  1
  O  O320  1  0.49375160  0.12004050  0.51392193  1
  O  O321  1  0.50558472  0.61513587  -0.00180263  1
  O  O322  1  0.50436257  0.61671029  0.50699050  1
  O  O323  1  0.49133819  0.38428795  0.50639141  1
  O  O324  1  0.49829632  0.38201632  0.99046976  1
  O  O325  1  0.50266121  0.87602980  0.48608365  1
  O  O326  1  0.49078576  0.87501613  0.99103049  1
  O  O327  1  0.99088268  0.38233011  0.49572464  1
  O  O328  1  0.99386483  0.38028403  0.99132969  1
  O  O329  1  0.99449220  0.87955113  0.49134576  1
  O  O330  1  0.98687173  0.88517820  0.99746112  1
  O  O331  1  0.50245924  0.50162818  0.39028271  1
  O  O332  1  0.51057935  0.49125477  0.88460914  1
  O  O333  1  0.50808886  0.98530763  0.36869510  1
  O  O334  1  0.50656738  0.98599310  0.87369244  1
  O  O335  1  0.99775594  0.48967078  0.38813256  1
  O  O336  1  0.98843325  0.49311719  0.88344582  1
  O  O337  1  0.99623069  0.99308799  0.37571930  1
  O  O338  1  1.00636050  0.99540065  0.88760836  1
  O  O339  1  0.00785210  0.00966851  0.11523625  1
  O  O340  1  0.01287248  0.00709147  0.62282573  1
  O  O341  1  0.00146528  0.49354563  0.10717038  1
  O  O342  1  0.00725827  0.49516191  0.61348289  1
  O  O343  1  0.50853454  0.00544267  0.12481156  1
  O  O344  1  0.49518929  0.00759317  0.62741702  1
  O  O345  1  0.50575010  0.49968433  0.11430627  1
  O  O346  1  0.51079154  0.50115087  0.61691077  1
  O  O347  1  0.25800687  0.37476084  0.23519519  1
  O  O348  1  0.24246540  0.38472324  0.74166352  1
  O  O349  1  0.24595271  0.88234661  0.24572248  1
  O  O350  1  0.24262349  0.87966848  0.74391409  1
  O  O351  1  0.74184145  0.38300159  0.24487291  1
  O  O352  1  0.75125089  0.37105154  0.73933417  1
  O  O353  1  0.74976631  0.87830355  0.24235741  1
  O  O354  1  0.75507533  0.88037638  0.74125748  1
  O  O355  1  0.25782546  0.12001860  0.24897651  1
  O  O356  1  0.26285872  0.11648339  0.74887531  1
  O  O357  1  0.25594415  0.62627538  0.26077403  1
  O  O358  1  0.24763514  0.61539616  0.76162416  1
  O  O359  1  0.75782528  0.12146019  0.25818026  1
  O  O360  1  0.75716285  0.10987442  0.74986143  1
  O  O361  1  0.74480442  0.61311341  0.24942399  1
  O  O362  1  0.75607416  0.62778801  0.76044165  1
  O  O363  1  0.36738560  0.13109180  0.35990108  1
  O  O364  1  0.38133825  0.12968246  0.86040437  1
  O  O365  1  0.37375541  0.62564159  0.37675943  1
  O  O366  1  0.36016991  0.63019342  0.87458303  1
  O  O367  1  0.87532041  0.12109425  0.36594068  1
  O  O368  1  0.87453047  0.12446286  0.86420965  1
  O  O369  1  0.87388012  0.62269179  0.35658795  1
  O  O370  1  0.86897115  0.61966633  0.86555261  1
  O  O371  1  0.13971288  0.37400601  0.12196667  1
  O  O372  1  0.13008498  0.38296426  0.62760869  1
  O  O373  1  0.13317564  0.88503556  0.12891722  1
  O  O374  1  0.12902660  0.88308155  0.63474859  1
  O  O375  1  0.62882769  0.37897690  0.13491553  1
  O  O376  1  0.63349627  0.38060955  0.62722181  1
  O  O377  1  0.63102885  0.88037553  0.12874805  1
  O  O378  1  0.64142746  0.86690821  0.62521020  1
  O  O379  1  0.12703842  0.24376263  0.26032041  1
  O  O380  1  0.13351336  0.26314681  0.74489486  1
  O  O381  1  0.12273523  0.75781806  0.25833155  1
  O  O382  1  0.12764112  0.75830253  0.75624770  1
  O  O383  1  0.61853007  0.25637289  0.25690172  1
  O  O384  1  0.62791362  0.24620116  0.76449387  1
  O  O385  1  0.62023429  0.75594195  0.25624918  1
  O  O386  1  0.61899235  0.74606005  0.76265770  1
  O  O387  1  0.38273884  0.24527687  0.24257376  1
  O  O388  1  0.37258424  0.23881489  0.74155481  1
  O  O389  1  0.38364157  0.75198693  0.24178930  1
  O  O390  1  0.38149869  0.75459626  0.74029216  1
  O  O391  1  0.86863444  0.23907002  0.24856220  1
  O  O392  1  0.86523670  0.22614794  0.74601960  1
  O  O393  1  0.88081734  0.73823868  0.24779739  1
  O  O394  1  0.87690277  0.73639989  0.74520030  1
  O  O395  1  0.38477241  0.49042001  0.50320050  1
  O  O396  1  0.38354153  0.49167076  0.99987865  1
  O  O397  1  0.33038138  0.98442651  0.49073298  1
  O  O398  1  0.37513529  0.98445891  1.00797946  1
  O  O399  1  0.88029588  0.49321928  0.50087760  1
  O  O400  1  0.88007684  0.49389182  0.99200578  1
  O  O401  1  0.87274119  0.98564862  0.49201462  1
  O  O402  1  0.88303869  0.99033445  1.00173267  1
  O  O403  1  0.11785260  0.00176368  0.00924575  1
  O  O404  1  0.12970314  0.01068647  0.51068082  1
  O  O405  1  0.11087980  0.49113255  -0.00680342  1
  O  O406  1  0.11799532  0.50734645  0.50930739  1
  O  O407  1  0.62492301  0.00546950  0.00766568  1
  O  O408  1  0.67085642  0.01275495  0.50819178  1
  O  O409  1  0.62067964  0.50871659  0.00423412  1
  O  O410  1  0.61896280  0.50096052  0.50819422  1
  O  O411  1  0.36740538  0.36692896  0.11470886  1
  O  O412  1  0.36958695  0.36503245  0.61834032  1
  O  O413  1  0.37015988  0.86451233  0.11953329  1
  O  O414  1  0.36433722  0.86989103  0.62514735  1
  O  O415  1  0.86564101  0.37540701  0.11929817  1
  O  O416  1  0.86721951  0.37306545  0.62010280  1
  O  O417  1  0.86727275  0.87967890  0.11476602  1
  O  O418  1  0.87582127  0.86746923  0.61833538  1
  O  O419  1  0.12704248  0.13406520  0.38064371  1
  O  O420  1  0.12542711  0.12347845  0.88680960  1
  O  O421  1  0.12482107  0.63572547  0.38831989  1
  O  O422  1  0.13327224  0.63232915  0.86961670  1
  O  O423  1  0.63412701  0.13052329  0.37618438  1
  O  O424  1  0.62724258  0.13087221  0.88356233  1
  O  O425  1  0.62369099  0.63995242  0.37763679  1
  O  O426  1  0.63193713  0.62758607  0.87899810  1
