# generated using pymatgen
data_V85Zn86O256
_symmetry_space_group_name_H-M   'P 1'
_cell_length_a   16.95277892
_cell_length_b   16.95230916
_cell_length_c   16.95296139
_cell_angle_alpha   90.01767472
_cell_angle_beta   90.08696688
_cell_angle_gamma   90.10122102
_symmetry_Int_Tables_number   1
_chemical_formula_structural   V85Zn86O256
_chemical_formula_sum   'V85 Zn86 O256'
_cell_volume   4872.07692385
_cell_formula_units_Z   1
loop_
 _symmetry_equiv_pos_site_id
 _symmetry_equiv_pos_as_xyz
  1  'x, y, z'
loop_
 _atom_site_type_symbol
 _atom_site_label
 _atom_site_symmetry_multiplicity
 _atom_site_fract_x
 _atom_site_fract_y
 _atom_site_fract_z
 _atom_site_occupancy
  V  V0  1  0.36517549  0.87630410  0.00291546  1
  V  V1  1  0.12560745  0.62708571  0.50078475  1
  V  V2  1  0.13166861  0.87798995  0.24759954  1
  V  V3  1  0.75142345  0.86952216  0.62349851  1
  V  V4  1  0.75015439  0.12325237  0.36642697  1
  V  V5  1  0.62769774  0.37584763  0.75051769  1
  V  V6  1  0.49588993  0.49934541  0.00211233  1
  V  V7  1  0.00018136  0.87747528  0.37381343  1
  V  V8  1  0.23689753  0.74870755  0.00347936  1
  V  V9  1  0.13325547  -0.00109350  0.63347565  1
  V  V10  1  0.37817991  0.25531975  0.11710937  1
  V  V11  1  0.00649702  0.36529676  0.87765465  1
  V  V12  1  0.62238055  0.63004447  -0.00012463  1
  V  V13  1  0.37894550  0.25096112  0.62205392  1
  V  V14  1  0.74911622  0.24824858  0.49763762  1
  V  V15  1  0.75751742  0.50449215  0.74801292  1
  V  V16  1  0.36337550  -0.00124914  0.87138531  1
  V  V17  1  0.37969991  0.49825945  0.37422605  1
  V  V18  1  0.13428771  -0.00150138  0.11411514  1
  V  V19  1  -0.00100798  0.51328228  -0.00132131  1
  V  V20  1  0.75485328  0.37894577  0.13026460  1
  V  V21  1  0.86881512  0.51073210  0.36062465  1
  V  V22  1  0.75507408  0.25740795  -0.00262565  1
  V  V23  1  0.50162293  0.87372463  0.36878005  1
  V  V24  1  0.24675637  0.37293238  0.11958816  1
  V  V25  1  0.86571266  0.73762901  0.13792183  1
  V  V26  1  0.75281563  0.37545848  0.62498642  1
  V  V27  1  0.00838723  0.25219432  0.24590857  1
  V  V28  1  0.75228448  0.00318115  0.75774568  1
  V  V29  1  0.24892959  0.12545438  0.37142231  1
  V  V30  1  0.74191533  0.63014624  0.87063009  1
  V  V31  1  0.87839131  0.37441661  0.49979822  1
  V  V32  1  0.37692411  0.87403981  0.50134862  1
  V  V33  1  0.62920266  0.50106185  0.13076393  1
  V  V34  1  0.63088758  0.88141369  0.24879726  1
  V  V35  1  0.87344878  0.48884864  0.87953860  1
  V  V36  1  0.75607528  0.88636745  0.12324365  1
  V  V37  1  0.37825954  0.62506651  0.24802441  1
  V  V38  1  0.93576255  -0.07167888  0.93393632  1
  V  V39  1  0.62763958  0.12127798  0.49809494  1
  V  V40  1  0.37024918  0.11982172  0.74814005  1
  V  V41  1  0.49666204  0.37522679  0.87949374  1
  V  V42  1  0.62809609  0.50385092  0.61963621  1
  V  V43  1  0.36584125  0.62111286  0.75326422  1
  V  V44  1  0.74786440  0.75171762  0.00126645  1
  V  V45  1  0.62596684  0.12581348  -0.00108558  1
  V  V46  1  0.87311182  0.74494208  0.61682104  1
  V  V47  1  0.12417694  0.13775890  -0.00929597  1
  V  V48  1  0.87050918  0.00077103  0.37299326  1
  V  V49  1  0.88154105  0.24010097  0.62540152  1
  V  V50  1  0.12502059  0.75110792  0.37375826  1
  V  V51  1  0.87579429  0.12148361  0.24682423  1
  V  V52  1  0.62708061  0.25091331  0.87434624  1
  V  V53  1  0.24205881  0.62331239  0.88104591  1
  V  V54  1  0.24172844  0.49230760  0.25137209  1
  V  V55  1  0.13002304  0.50061655  0.63187618  1
  V  V56  1  0.37652979  0.74870422  0.62724857  1
  V  V57  1  0.12472899  0.50392202  0.12025299  1
  V  V58  1  0.50514186  -0.00225325  0.49969004  1
  V  V59  1  -0.00666421  0.62796788  0.62240299  1
  V  V60  1  0.62542525  -0.00370852  0.62623226  1
  V  V61  1  0.92991084  0.67395588  0.80275444  1
  V  V62  1  0.36936645  0.75455113  0.12462219  1
  V  V63  1  0.88817266  0.12243542  0.75208579  1
  V  V64  1  0.50195332  0.62225708  0.62680559  1
  V  V65  1  0.12542472  0.25263097  0.37493318  1
  V  V66  1  0.36748732  0.49532853  0.87558742  1
  V  V67  1  0.37429011  0.00247617  0.37295306  1
  V  V68  1  0.50225439  0.24915001  0.74888106  1
  V  V69  1  0.87946719  0.25472025  0.11882908  1
  V  V70  1  0.00061972  0.11377856  0.11984397  1
  V  V71  1  0.00523463  0.37611241  0.37173535  1
  V  V72  1  0.67608766  0.67882970  0.41254207  1
  V  V73  1  0.49849072  -0.00026608  -0.00131528  1
  V  V74  1  0.25401830  0.75255723  0.50169304  1
  V  V75  1  0.25400458  0.62450580  0.37512761  1
  V  V76  1  0.25302636  0.38240632  0.63003676  1
  V  V77  1  0.50433205  0.37459082  0.37136551  1
  V  V78  1  0.12193495  0.12381447  0.50362390  1
  V  V79  1  0.50150495  0.74731872  0.76161717  1
  V  V80  1  0.25259537  0.25273329  0.49824439  1
  V  V81  1  -0.00034073  0.00157403  0.50817119  1
  V  V82  1  0.12176857  0.85946584  0.75842492  1
  V  V83  1  0.62411932  0.87049895  0.75910713  1
  V  V84  1  -0.00117447  0.49692924  0.49995593  1
  Zn  Zn85  1  0.63130127  0.37455069  0.25171617  1
  Zn  Zn86  1  0.25438426  0.87853991  0.63521462  1
  Zn  Zn87  1  0.25276806  0.25935471  -0.01480461  1
  Zn  Zn88  1  0.50987528  0.50434029  0.49330084  1
  Zn  Zn89  1  0.49892211  0.12659915  0.12528370  1
  Zn  Zn90  1  0.37980701  0.37763752  0.49925893  1
  Zn  Zn91  1  0.50243370  0.24738247  0.24837063  1
  Zn  Zn92  1  0.12722508  0.35950732  0.75976603  1
  Zn  Zn93  1  0.37787010  0.12632083  0.24505713  1
  Zn  Zn94  1  0.00009624  0.62300853  0.13268869  1
  Zn  Zn95  1  -0.00465665  0.74456194  0.25407990  1
  Zn  Zn96  1  0.11411811  0.74326764  0.87716679  1
  Zn  Zn97  1  0.62563410  0.24949980  0.36906866  1
  Zn  Zn98  1  0.25178626  -0.00101241  0.24522502  1
  Zn  Zn99  1  0.50274665  0.12500522  0.62515849  1
  Zn  Zn100  1  0.49901812  0.87147621  0.87927471  1
  Zn  Zn101  1  0.49899372  0.75423348  0.24669579  1
  Zn  Zn102  1  0.24180860  0.13119272  0.86586059  1
  Zn  Zn103  1  0.50072719  0.62679654  0.12578574  1
  Zn  Zn104  1  0.62697534  0.00498511  0.12460161  1
  Zn  Zn105  1  0.75634715  0.12504939  0.87481154  1
  Zn  Zn106  1  0.87274381  0.87412727  0.49843214  1
  Zn  Zn107  1  0.18911587  0.18789986  0.18372707  1
  Zn  Zn108  1  0.18993911  0.18835455  0.68769140  1
  Zn  Zn109  1  0.18721091  0.68619123  0.19001057  1
  Zn  Zn110  1  0.18750393  0.68758506  0.68795639  1
  Zn  Zn111  1  0.68747123  0.19125061  0.18535996  1
  Zn  Zn112  1  0.69093710  0.18502262  0.68597572  1
  Zn  Zn113  1  0.68292626  0.68970111  0.20283753  1
  Zn  Zn114  1  0.68636136  0.68891925  0.68644466  1
  Zn  Zn115  1  0.31746489  0.31248187  0.30570546  1
  Zn  Zn116  1  0.31300382  0.30997557  0.80957359  1
  Zn  Zn117  1  0.31305595  0.81342703  0.31295062  1
  Zn  Zn118  1  0.30571307  0.81228597  0.81485257  1
  Zn  Zn119  1  0.81977330  0.31191979  0.31084780  1
  Zn  Zn120  1  0.81758665  0.30969603  0.80855305  1
  Zn  Zn121  1  0.80883450  0.81417056  0.31084048  1
  Zn  Zn122  1  0.80698704  0.81353956  0.81360913  1
  Zn  Zn123  1  0.18803298  0.43700683  0.44307409  1
  Zn  Zn124  1  0.18335785  0.43798073  0.94187395  1
  Zn  Zn125  1  0.18764365  0.93788108  0.43904959  1
  Zn  Zn126  1  0.18372086  0.93586287  0.93290439  1
  Zn  Zn127  1  0.69108612  0.43795371  0.43614526  1
  Zn  Zn128  1  0.68646251  0.43980088  0.94158940  1
  Zn  Zn129  1  0.68440058  0.84798760  0.44041955  1
  Zn  Zn130  1  0.68888838  0.93667505  0.93979795  1
  Zn  Zn131  1  0.31054109  0.06947667  0.05791044  1
  Zn  Zn132  1  0.31279102  0.06465408  0.56027084  1
  Zn  Zn133  1  0.31132245  0.56241830  0.06261546  1
  Zn  Zn134  1  0.31731769  0.56418602  0.56012055  1
  Zn  Zn135  1  0.81813961  0.06257046  0.05245114  1
  Zn  Zn136  1  0.80995835  0.05824123  0.56217017  1
  Zn  Zn137  1  0.81167943  0.56354125  0.05793648  1
  Zn  Zn138  1  0.80654116  0.56970387  0.54532416  1
  Zn  Zn139  1  0.43634985  0.43528934  0.18815590  1
  Zn  Zn140  1  0.43875419  0.43793680  0.69192530  1
  Zn  Zn141  1  0.43521080  0.94105461  0.18382278  1
  Zn  Zn142  1  0.43919843  0.93542681  0.68940793  1
  Zn  Zn143  1  0.94081372  0.43597091  0.18676399  1
  Zn  Zn144  1  0.94010934  0.43543035  0.68966673  1
  Zn  Zn145  1  0.93738279  0.93471240  0.18778492  1
  Zn  Zn146  1  0.93841612  0.93565082  0.69271836  1
  Zn  Zn147  1  0.06245047  0.06137501  0.31060433  1
  Zn  Zn148  1  0.05633301  0.05395810  0.81587098  1
  Zn  Zn149  1  0.06062464  0.56392854  0.31156799  1
  Zn  Zn150  1  0.06612514  0.55042643  0.81275149  1
  Zn  Zn151  1  0.56322250  0.06138730  0.30812888  1
  Zn  Zn152  1  0.55866596  0.06217809  0.81514542  1
  Zn  Zn153  1  0.58013701  0.57367574  0.31008461  1
  Zn  Zn154  1  0.56321133  0.56073541  0.81159021  1
  Zn  Zn155  1  0.44108329  0.18662360  0.43609613  1
  Zn  Zn156  1  0.43486800  0.18650376  0.93680920  1
  Zn  Zn157  1  0.46589463  0.67663066  0.42878396  1
  Zn  Zn158  1  0.43088000  0.68563700  0.94140478  1
  Zn  Zn159  1  0.93937998  0.18765732  0.43820722  1
  Zn  Zn160  1  0.93967093  0.18272402  0.93717123  1
  Zn  Zn161  1  0.93503243  0.68798464  0.43622240  1
  Zn  Zn162  1  0.95780895  0.72851078  0.97950018  1
  Zn  Zn163  1  0.06077702  0.32311502  0.05893695  1
  Zn  Zn164  1  0.07993162  0.29428008  0.59450579  1
  Zn  Zn165  1  0.05754896  0.82130439  0.06716145  1
  Zn  Zn166  1  0.06182179  0.81517088  0.56506970  1
  Zn  Zn167  1  0.56559837  0.31455651  0.06216494  1
  Zn  Zn168  1  0.56424420  0.31683504  0.55763762  1
  Zn  Zn169  1  0.56056892  0.81495547  0.06717354  1
  Zn  Zn170  1  0.56500814  0.80383653  0.56298513  1
  O  O171  1  0.11950074  0.11525009  0.11786617  1
  O  O172  1  0.13318034  0.11203319  0.61078566  1
  O  O173  1  0.12923811  0.60806889  0.12980968  1
  O  O174  1  0.11814065  0.61952827  0.61999969  1
  O  O175  1  0.62635915  0.12514695  0.11020404  1
  O  O176  1  0.62526427  0.11456762  0.61781827  1
  O  O177  1  0.62536321  0.61839543  0.12019868  1
  O  O178  1  0.61501576  0.61619272  0.63197957  1
  O  O179  1  0.38292459  0.38268842  0.37385881  1
  O  O180  1  0.38502264  0.38404892  0.86672827  1
  O  O181  1  0.37740176  0.88807103  0.38009025  1
  O  O182  1  0.37503136  0.88232337  0.88113571  1
  O  O183  1  0.88899375  0.37594401  0.38175847  1
  O  O184  1  0.87878133  0.38565689  0.87192357  1
  O  O185  1  0.88208398  0.88426416  0.37394883  1
  O  O186  1  0.87579828  0.88672796  0.86274347  1
  O  O187  1  0.25745718  0.00876840  0.37684706  1
  O  O188  1  0.26060111  0.00616201  0.87786507  1
  O  O189  1  0.25606254  0.50256435  0.36872108  1
  O  O190  1  0.26150753  0.50458710  0.88495397  1
  O  O191  1  0.76822244  0.01080380  0.37796176  1
  O  O192  1  0.74339232  0.00142901  0.86083178  1
  O  O193  1  0.77122056  0.48952863  0.37632424  1
  O  O194  1  0.75566831  0.50623199  0.87010156  1
  O  O195  1  0.24677649  0.49338258  0.13162127  1
  O  O196  1  0.24406615  0.49487486  0.61633113  1
  O  O197  1  0.23722047  1.00516167  0.12579058  1
  O  O198  1  0.23721440  0.99591700  0.61482861  1
  O  O199  1  0.74297985  0.49008350  0.11497928  1
  O  O200  1  0.74731426  0.50014209  0.62942977  1
  O  O201  1  0.75222758  0.98897506  0.11721549  1
  O  O202  1  0.73899435  0.99506712  0.63438779  1
  O  O203  1  -0.00198697  0.36374430  0.25917288  1
  O  O204  1  0.00063355  0.38568181  0.77168575  1
  O  O205  1  0.00859862  0.87304428  0.26050686  1
  O  O206  1  0.02351169  0.88184640  0.74342607  1
  O  O207  1  0.50110086  0.37365617  0.26172638  1
  O  O208  1  0.50772349  0.36974761  0.75979629  1
  O  O209  1  0.50408711  0.88065979  0.25482802  1
  O  O210  1  0.50679934  0.86443649  0.75235794  1
  O  O211  1  0.49733517  0.12737855  0.24419524  1
  O  O212  1  0.49252986  0.13259501  0.74747995  1
  O  O213  1  0.48813334  0.62837059  0.24887362  1
  O  O214  1  0.49219129  0.62989701  0.74627731  1
  O  O215  1  0.99530779  0.13168697  0.24153430  1
  O  O216  1  0.98675101  0.11691274  0.74736703  1
  O  O217  1  1.00696243  0.63253573  0.24501816  1
  O  O218  1  0.99182789  0.61567900  0.74305998  1
  O  O219  1  0.37151532  0.24751056  0.01167533  1
  O  O220  1  0.37425051  0.24915972  0.50981499  1
  O  O221  1  0.36582313  0.75802709  0.00605261  1
  O  O222  1  0.37059696  0.75510351  0.50597318  1
  O  O223  1  0.86794975  0.24192034  0.00880659  1
  O  O224  1  0.86371831  0.25017672  0.50484067  1
  O  O225  1  0.85181846  0.74316311  0.01838220  1
  O  O226  1  0.87856282  0.75540899  0.51233646  1
  O  O227  1  0.13114222  0.24008434  0.49787031  1
  O  O228  1  0.12469363  0.23900198  1.00545818  1
  O  O229  1  0.13368160  0.74696061  0.49632220  1
  O  O230  1  0.13336144  0.75524540  1.00178197  1
  O  O231  1  0.63717831  0.24377498  0.49859309  1
  O  O232  1  0.63321038  0.24454107  0.99430175  1
  O  O233  1  0.62791052  0.75557772  0.48312777  1
  O  O234  1  0.63100779  0.73797533  1.00940418  1
  O  O235  1  0.48878529  0.25262872  0.12129258  1
  O  O236  1  0.49539458  0.25132677  0.62752009  1
  O  O237  1  0.48327744  0.74793551  0.12417646  1
  O  O238  1  0.49496852  0.74159293  0.63458167  1
  O  O239  1  0.99653971  0.24624377  0.12935077  1
  O  O240  1  0.97760362  0.24518179  0.60548374  1
  O  O241  1  0.97701060  0.74966826  0.11983839  1
  O  O242  1  0.99467182  0.73520271  0.62141724  1
  O  O243  1  0.00552799  0.25562754  0.36784279  1
  O  O244  1  -0.00579081  0.26707046  0.88087178  1
  O  O245  1  0.00661467  0.76062124  0.37780935  1
  O  O246  1  -0.00684822  0.72149093  0.86824208  1
  O  O247  1  0.50316030  0.25971053  0.37520602  1
  O  O248  1  0.50423642  0.25845899  0.87112783  1
  O  O249  1  0.48434948  0.77182998  0.36874547  1
  O  O250  1  0.49334055  0.74825519  0.86465171  1
  O  O251  1  0.24521475  0.13155325  0.48873845  1
  O  O252  1  0.23224204  0.12906110  0.99773636  1
  O  O253  1  0.24920265  0.63620605  0.49500346  1
  O  O254  1  0.25494696  0.63492745  0.99184778  1
  O  O255  1  0.74733790  0.12937085  0.48979240  1
  O  O256  1  0.74468106  0.13416004  0.99501490  1
  O  O257  1  0.73232771  0.62378503  0.47497110  1
  O  O258  1  0.74043623  0.62949611  0.99014267  1
  O  O259  1  0.24853063  0.37603885  0.01387785  1
  O  O260  1  0.25807630  0.36759660  0.50535607  1
  O  O261  1  0.25861701  0.86674476  -0.00610047  1
  O  O262  1  0.25575797  0.86312045  0.49852531  1
  O  O263  1  0.74674968  0.36272921  0.00733036  1
  O  O264  1  0.75732732  0.36587817  0.50515584  1
  O  O265  1  0.74055716  0.86543680  0.01387959  1
  O  O266  1  0.75520796  0.88750435  0.51981796  1
  O  O267  1  0.13851763  0.50047295  0.24850031  1
  O  O268  1  0.12491974  0.49241125  0.73349245  1
  O  O269  1  0.12684713  0.99512875  0.23992456  1
  O  O270  1  0.12511442  1.00522938  0.73409126  1
  O  O271  1  0.62002827  0.49629486  0.23372851  1
  O  O272  1  0.63621442  0.49446990  0.74309761  1
  O  O273  1  0.62031404  0.98817246  0.24070140  1
  O  O274  1  0.62730745  0.99427318  0.74331293  1
  O  O275  1  0.37043228  0.00300012  0.25901055  1
  O  O276  1  0.38260755  0.00795517  0.75781587  1
  O  O277  1  0.36866981  0.50660030  0.25763677  1
  O  O278  1  0.38033200  0.51016584  0.76266936  1
  O  O279  1  0.88335029  0.01368763  0.25628116  1
  O  O280  1  0.86570212  0.01444937  0.73731249  1
  O  O281  1  0.88148126  0.49709108  0.26193885  1
  O  O282  1  0.86124918  0.49676580  0.75360676  1
  O  O283  1  0.11338440  0.36865916  0.38308004  1
  O  O284  1  0.11313231  0.37846783  0.87356787  1
  O  O285  1  0.11816074  0.87320156  0.36918086  1
  O  O286  1  0.12562337  0.86491226  0.86378240  1
  O  O287  1  0.61881939  0.37507992  0.37291891  1
  O  O288  1  0.61981926  0.37164817  0.86956204  1
  O  O289  1  0.61436015  0.88829935  0.35972726  1
  O  O290  1  0.62201568  0.87834366  0.86257523  1
  O  O291  1  0.37371517  0.13893792  0.12412335  1
  O  O292  1  0.38008567  0.13175283  0.62855586  1
  O  O293  1  0.37526901  0.63046972  0.13371136  1
  O  O294  1  0.37743105  0.62749114  0.63843033  1
  O  O295  1  0.88270944  0.12998487  0.12862675  1
  O  O296  1  0.86638388  0.13437827  0.63114516  1
  O  O297  1  0.86450760  0.63564368  0.13230224  1
  O  O298  1  0.87906777  0.63062181  0.61630436  1
  O  O299  1  0.25741995  0.25851677  0.12338622  1
  O  O300  1  0.26345064  0.25697628  0.61624607  1
  O  O301  1  0.25927820  0.74377886  0.11740500  1
  O  O302  1  0.25764448  0.74999802  0.61707778  1
  O  O303  1  0.76087468  0.25497902  0.11645276  1
  O  O304  1  0.75653351  0.25432778  0.61594584  1
  O  O305  1  0.75311399  0.75511627  0.12809059  1
  O  O306  1  0.75953116  0.75707663  0.63086625  1
  O  O307  1  0.24669847  0.24575899  0.37805741  1
  O  O308  1  0.25048320  0.24547879  0.87260596  1
  O  O309  1  0.24619326  0.74520210  0.38226865  1
  O  O310  1  0.24740073  0.73919832  0.88598721  1
  O  O311  1  0.75282158  0.24247563  0.38175969  1
  O  O312  1  0.74610012  0.25177532  0.88079503  1
  O  O313  1  0.74049499  0.76302353  0.38388936  1
  O  O314  1  0.75211541  0.74113645  0.88550392  1
  O  O315  1  0.01152414  0.12818298  0.00898331  1
  O  O316  1  0.01161343  0.11531747  0.49225048  1
  O  O317  1  -0.00756461  0.61760313  0.01117984  1
  O  O318  1  0.00441129  0.61812947  0.50631090  1
  O  O319  1  0.50853388  0.11880886  -0.00086217  1
  O  O320  1  0.50750770  0.11249487  0.49979160  1
  O  O321  1  0.50634305  0.61891619  0.00105703  1
  O  O322  1  0.48051077  0.61727724  0.52553188  1
  O  O323  1  0.49920485  0.38113771  0.48724642  1
  O  O324  1  0.50729756  0.38384053  0.98682809  1
  O  O325  1  0.49794647  0.88327990  0.49358351  1
  O  O326  1  0.48962059  0.88149226  0.99830096  1
  O  O327  1  0.99555653  0.38357650  0.49489079  1
  O  O328  1  1.00078437  0.39078257  0.98546156  1
  O  O329  1  1.00004875  0.88337735  0.48937038  1
  O  O330  1  0.98443692  0.84739054  0.98439537  1
  O  O331  1  0.49413230  0.49357871  0.37275962  1
  O  O332  1  0.49334872  0.49371458  0.88060429  1
  O  O333  1  0.49211735  0.99531771  0.38203654  1
  O  O334  1  0.49000910  0.99802866  0.88577025  1
  O  O335  1  0.99687526  0.49210988  0.38173471  1
  O  O336  1  0.98923553  0.50328573  0.88273319  1
  O  O337  1  0.99404603  0.99466063  0.38164030  1
  O  O338  1  1.00444004  0.98547810  0.88738833  1
  O  O339  1  0.00758357  0.01011265  0.12953490  1
  O  O340  1  0.01049604  -0.00563194  0.61164529  1
  O  O341  1  0.00761008  0.49745672  0.11696025  1
  O  O342  1  0.00488147  0.50763566  0.61814097  1
  O  O343  1  0.49795206  0.00377758  0.10873318  1
  O  O344  1  0.51100707  -0.00253161  0.61891636  1
  O  O345  1  0.50548338  0.49940077  0.11608921  1
  O  O346  1  0.51147779  0.50462458  0.62972872  1
  O  O347  1  0.25567358  0.38484960  0.23910541  1
  O  O348  1  0.24859919  0.37258211  0.73301955  1
  O  O349  1  0.23549936  0.87876885  0.25676457  1
  O  O350  1  0.23211871  0.87143243  0.74860958  1
  O  O351  1  0.75393885  0.36823854  0.23412690  1
  O  O352  1  0.74738937  0.38213519  0.74353136  1
  O  O353  1  0.73897095  0.87755182  0.23916108  1
  O  O354  1  0.74165774  0.88121327  0.74235312  1
  O  O355  1  0.24974575  0.12439513  0.26297661  1
  O  O356  1  0.26570274  0.12700612  0.74547846  1
  O  O357  1  0.26099172  0.61739353  0.25725883  1
  O  O358  1  0.26093086  0.62976504  0.75850186  1
  O  O359  1  0.75959696  0.13134396  0.25890503  1
  O  O360  1  0.75588223  0.11690159  0.75214561  1
  O  O361  1  0.68325071  0.64020444  0.30800772  1
  O  O362  1  0.74070529  0.61822414  0.76161913  1
  O  O363  1  0.36835081  0.11545303  0.37695504  1
  O  O364  1  0.37538777  0.11666604  0.86456695  1
  O  O365  1  0.37433633  0.61902664  0.36794499  1
  O  O366  1  0.36634628  0.61698233  0.87055606  1
  O  O367  1  0.87233418  0.12216944  0.36573373  1
  O  O368  1  0.87498585  0.13034195  0.85674142  1
  O  O369  1  0.87884200  0.61026248  0.37682751  1
  O  O370  1  0.86612777  0.61748514  0.86134419  1
  O  O371  1  0.13387095  0.38715324  0.12516692  1
  O  O372  1  0.13972169  0.39160886  0.60665632  1
  O  O373  1  0.11839737  0.89033755  0.13213394  1
  O  O374  1  0.12970099  0.88559297  0.62894187  1
  O  O375  1  0.63649455  0.38302635  0.12330649  1
  O  O376  1  0.63322669  0.38117190  0.63125068  1
  O  O377  1  0.63475645  0.88176516  0.12998618  1
  O  O378  1  0.63020658  0.87879950  0.63365202  1
  O  O379  1  0.11429979  0.24241583  0.25566786  1
  O  O380  1  0.11279953  0.26417984  0.70223975  1
  O  O381  1  0.12552548  0.76003810  0.25627512  1
  O  O382  1  0.12052652  0.75532146  0.75213834  1
  O  O383  1  0.62218339  0.25550897  0.25087246  1
  O  O384  1  0.62200868  0.25434101  0.75407417  1
  O  O385  1  0.61367787  0.77599999  0.23989530  1
  O  O386  1  0.61438890  0.75849848  0.74635776  1
  O  O387  1  0.37850813  0.24662717  0.23495613  1
  O  O388  1  0.38326815  0.24443375  0.73720547  1
  O  O389  1  0.37169731  0.74358107  0.24192360  1
  O  O390  1  0.38088145  0.74328234  0.74616861  1
  O  O391  1  0.88654894  0.23899270  0.24190450  1
  O  O392  1  0.87209774  0.23751394  0.73485452  1
  O  O393  1  0.87394121  0.75203681  0.24138717  1
  O  O394  1  0.87691447  0.74194678  0.74658847  1
  O  O395  1  0.37539082  0.50046573  0.48302041  1
  O  O396  1  0.38901977  0.50561506  0.99259872  1
  O  O397  1  0.38357935  0.99504104  0.49502961  1
  O  O398  1  0.37700671  0.99455295  0.99361836  1
  O  O399  1  0.88659092  0.49605922  0.49668738  1
  O  O400  1  0.88082866  0.50397303  0.98868845  1
  O  O401  1  0.88464893  1.00046324  0.49356651  1
  O  O402  1  0.88136918  0.98808170  0.99661860  1
  O  O403  1  0.12761665  0.00388186  0.01135447  1
  O  O404  1  0.11869250  0.00514424  0.50430477  1
  O  O405  1  0.11425182  0.50281670  0.00810009  1
  O  O406  1  0.11444931  0.50921370  0.50275148  1
  O  O407  1  0.61669130  0.00831390  -0.00205700  1
  O  O408  1  0.61667155  0.00138509  0.50932395  1
  O  O409  1  0.61576592  0.50993362  0.00689037  1
  O  O410  1  0.62766621  0.49363645  0.51583802  1
  O  O411  1  0.36726914  0.36337174  0.12655173  1
  O  O412  1  0.37252144  0.37005533  0.62334735  1
  O  O413  1  0.37301553  0.86819105  0.11577539  1
  O  O414  1  0.37407700  0.86898837  0.61954781  1
  O  O415  1  0.87244057  0.36240069  0.12553202  1
  O  O416  1  0.87112064  0.36502195  0.62088219  1
  O  O417  1  0.85905540  0.86688957  0.13339208  1
  O  O418  1  0.86875654  0.86491213  0.62942019  1
  O  O419  1  0.13206314  0.12899441  0.38236555  1
  O  O420  1  0.12038350  0.12050367  0.88782237  1
  O  O421  1  0.13383601  0.63059518  0.38264944  1
  O  O422  1  0.13871747  0.62174927  0.86723705  1
  O  O423  1  0.63613121  0.12279159  0.37907716  1
  O  O424  1  0.62597439  0.13293500  0.88334563  1
  O  O425  1  0.57652885  0.63374998  0.40769530  1
  O  O426  1  0.63170152  0.61935228  0.88516507  1
