# generated using pymatgen
data_V85Zn86O256
_symmetry_space_group_name_H-M   'P 1'
_cell_length_a   16.95603203
_cell_length_b   16.95279749
_cell_length_c   16.96127184
_cell_angle_alpha   90.01453519
_cell_angle_beta   90.07113258
_cell_angle_gamma   90.03631896
_symmetry_Int_Tables_number   1
_chemical_formula_structural   V85Zn86O256
_chemical_formula_sum   'V85 Zn86 O256'
_cell_volume   4875.54962572
_cell_formula_units_Z   1
loop_
 _symmetry_equiv_pos_site_id
 _symmetry_equiv_pos_as_xyz
  1  'x, y, z'
loop_
 _atom_site_type_symbol
 _atom_site_label
 _atom_site_symmetry_multiplicity
 _atom_site_fract_x
 _atom_site_fract_y
 _atom_site_fract_z
 _atom_site_occupancy
  V  V0  1  0.62248537  0.36942826  0.74958508  1
  V  V1  1  0.87018656  0.65961728  0.71646518  1
  V  V2  1  -0.00077131  0.24483433  0.74657646  1
  V  V3  1  0.25075777  0.88024384  0.63605465  1
  V  V4  1  0.49859756  0.62489507  0.62761607  1
  V  V5  1  0.13533146  0.25185533  0.37693404  1
  V  V6  1  0.76147561  0.37072988  0.62682535  1
  V  V7  1  0.74853018  0.49787742  0.25146898  1
  V  V8  1  0.74570245  -0.00017444  0.73675219  1
  V  V9  1  0.48583573  -0.00170165  0.00230552  1
  V  V10  1  0.25342832  0.75657967  -0.00253189  1
  V  V11  1  0.37142406  0.49487482  0.87817250  1
  V  V12  1  -0.00375116  0.12381272  0.13176537  1
  V  V13  1  0.75789240  0.24618981  0.49967173  1
  V  V14  1  0.74922012  0.12355278  0.87381651  1
  V  V15  1  0.62184844  0.12283053  -0.00164202  1
  V  V16  1  0.25036161  0.49649922  0.74814076  1
  V  V17  1  0.87338453  0.01350232  0.36884026  1
  V  V18  1  0.12730017  0.49989070  0.13038614  1
  V  V19  1  0.25376110  0.00281210  0.25481472  1
  V  V20  1  0.49497314  0.36846762  0.87322629  1
  V  V21  1  0.62718212  0.75051023  0.87574216  1
  V  V22  1  0.87556547  0.12629289  0.74975684  1
  V  V23  1  0.49390834  0.87476909  0.88116636  1
  V  V24  1  0.50513835  -0.00147703  0.50876269  1
  V  V25  1  0.12657787  0.23470833  0.87450006  1
  V  V26  1  0.25466799  0.74866144  0.50119054  1
  V  V27  1  0.62323331  -0.00029110  0.12432605  1
  V  V28  1  0.63089723  0.62291558  -0.00564986  1
  V  V29  1  0.12717133  0.12378498  0.00175241  1
  V  V30  1  0.25414614  0.25422061  -0.00108083  1
  V  V31  1  0.37799038  0.13438076  0.25149582  1
  V  V32  1  0.12485446  0.00105910  0.12784204  1
  V  V33  1  0.49367979  0.49437838  0.00039284  1
  V  V34  1  0.24838956  0.61952326  0.37424109  1
  V  V35  1  0.37165282  0.14214056  0.75623067  1
  V  V36  1  0.62536542  0.49497310  0.62538165  1
  V  V37  1  0.00227648  0.49466571  0.00184247  1
  V  V38  1  0.62350048  0.49828136  0.12489088  1
  V  V39  1  0.62715096  0.74902864  0.37606109  1
  V  V40  1  0.36955190  0.61929010  0.25034878  1
  V  V41  1  0.62674713  0.23958736  0.37451472  1
  V  V42  1  0.74876001  0.37184968  0.12737380  1
  V  V43  1  0.86878649  0.50467649  0.87565447  1
  V  V44  1  0.37914015  0.87740272  0.49894728  1
  V  V45  1  0.87476924  0.36817294  0.00204682  1
  V  V46  1  0.49926087  0.13285371  0.12973734  1
  V  V47  1  0.87378497  0.24401502  0.13712823  1
  V  V48  1  0.11536022  0.63765377  -0.00865479  1
  V  V49  1  0.49448971  0.36947896  0.37682664  1
  V  V50  1  0.62143074  0.24860497  0.87218093  1
  V  V51  1  0.75111751  0.24626145  -0.00058172  1
  V  V52  1  0.00332931  0.49681302  0.50250123  1
  V  V53  1  0.13800646  0.12732922  0.50111220  1
  V  V54  1  0.12915809  0.87532203  0.24681877  1
  V  V55  1  0.75008349  0.87359673  0.11720759  1
  V  V56  1  0.87186462  -0.01279741  0.88145444  1
  V  V57  1  -0.00279923  0.12670200  0.62159821  1
  V  V58  1  0.62687116  0.87627850  0.25157703  1
  V  V59  1  0.12943696  0.00412185  0.63769294  1
  V  V60  1  0.75300272  0.01187302  0.25054382  1
  V  V61  1  0.12292630  0.49774963  0.62751942  1
  V  V62  1  0.37587019  0.75758599  0.12150759  1
  V  V63  1  -0.00005799  0.37367530  0.37189139  1
  V  V64  1  0.87309921  0.62565224  0.24795474  1
  V  V65  1  0.38188009  0.25349263  0.60797472  1
  V  V66  1  0.36498134  0.00100562  0.86331822  1
  V  V67  1  0.07209500  0.67155629  0.55250921  1
  V  V68  1  0.49866322  0.62378050  0.12431182  1
  V  V69  1  0.25349933  0.36849685  0.61161475  1
  V  V70  1  -0.00475353  -0.01274546  0.00126291  1
  V  V71  1  0.62689020  0.62126532  0.49996692  1
  V  V72  1  -0.00296941  0.87686473  0.37354166  1
  V  V73  1  0.61824000  0.36854094  0.25227568  1
  V  V74  1  0.00031686  0.37043031  0.87578288  1
  V  V75  1  0.49945243  0.74931354  0.25003876  1
  V  V76  1  0.86194752  0.87692693  0.50261007  1
  V  V77  1  0.24552381  0.62720096  0.87591106  1
  V  V78  1  0.48945264  0.49485824  0.49922883  1
  V  V79  1  0.62205168  0.88344505  0.74290246  1
  V  V80  1  0.25762663  0.38022197  0.12656382  1
  V  V81  1  0.74972673  0.62683660  0.37647421  1
  V  V82  1  0.62918552  0.12207941  0.51138603  1
  V  V83  1  0.88005662  0.75511599  0.12070057  1
  V  V84  1  0.12589716  0.74687484  0.37115112  1
  Zn  Zn85  1  0.49883378  0.74871001  0.75339164  1
  Zn  Zn86  1  0.87873267  0.37102645  0.50253874  1
  Zn  Zn87  1  0.87557817  0.49846942  0.37711039  1
  Zn  Zn88  1  0.00074440  0.24518377  0.25413468  1
  Zn  Zn89  1  0.25595922  0.87809219  0.12261270  1
  Zn  Zn90  1  0.50211992  0.87516047  0.38016184  1
  Zn  Zn91  1  0.79006025  0.72508998  0.55266666  1
  Zn  Zn92  1  0.50288128  0.12777742  0.63319489  1
  Zn  Zn93  1  0.00029620  0.74937610  0.24847479  1
  Zn  Zn94  1  0.37707771  0.62523488  0.75115826  1
  Zn  Zn95  1  0.74982541  0.74947653  -0.00226534  1
  Zn  Zn96  1  0.37877627  0.25526877  0.12144756  1
  Zn  Zn97  1  0.12821610  0.37636495  0.25012201  1
  Zn  Zn98  1  0.36799548  0.49288684  0.37385040  1
  Zn  Zn99  1  0.10361558  0.84503149  0.77045142  1
  Zn  Zn100  1  0.75249461  0.50582416  0.75522982  1
  Zn  Zn101  1  0.37945004  0.00326703  0.37631274  1
  Zn  Zn102  1  0.00292928  0.00516822  0.49554971  1
  Zn  Zn103  1  0.00049046  0.62174359  0.12873087  1
  Zn  Zn104  1  0.12586258  0.37046850  0.75008823  1
  Zn  Zn105  1  0.37919217  0.75047259  0.62698145  1
  Zn  Zn106  1  0.25784479  0.13132156  0.38087586  1
  Zn  Zn107  1  0.18866448  0.19114061  0.18924003  1
  Zn  Zn108  1  0.19122712  0.18493841  0.68919407  1
  Zn  Zn109  1  0.18805923  0.68628672  0.18282376  1
  Zn  Zn110  1  0.19742692  0.69028116  0.69116041  1
  Zn  Zn111  1  0.68360050  0.18831021  0.18766053  1
  Zn  Zn112  1  0.68991553  0.19077837  0.68673668  1
  Zn  Zn113  1  0.68753382  0.68741873  0.18548210  1
  Zn  Zn114  1  0.68588540  0.68388197  0.69911825  1
  Zn  Zn115  1  0.31212412  0.31369380  0.30707457  1
  Zn  Zn116  1  0.30830902  0.31304276  0.81308581  1
  Zn  Zn117  1  0.31366457  0.81084176  0.31333858  1
  Zn  Zn118  1  0.31672682  0.81017290  0.81260145  1
  Zn  Zn119  1  0.81084587  0.31225051  0.31720285  1
  Zn  Zn120  1  0.81267307  0.31141684  0.81100867  1
  Zn  Zn121  1  0.81155012  0.81519054  0.31046852  1
  Zn  Zn122  1  0.80406881  0.81488660  0.80982327  1
  Zn  Zn123  1  0.18232207  0.43927526  0.43980903  1
  Zn  Zn124  1  0.18372865  0.43537212  0.93986931  1
  Zn  Zn125  1  0.18888267  0.93908121  0.43977122  1
  Zn  Zn126  1  0.18985615  0.94063511  0.93901329  1
  Zn  Zn127  1  0.68627039  0.43376634  0.43859218  1
  Zn  Zn128  1  0.68516067  0.43381806  0.93960345  1
  Zn  Zn129  1  0.68834645  0.94411035  0.43501132  1
  Zn  Zn130  1  0.68246147  0.93870747  0.93439431  1
  Zn  Zn131  1  0.30981894  0.06611321  0.06522224  1
  Zn  Zn132  1  0.31842011  0.06333533  0.56811259  1
  Zn  Zn133  1  0.31039594  0.56580545  0.06054831  1
  Zn  Zn134  1  0.31101059  0.56373799  0.56149277  1
  Zn  Zn135  1  0.81163865  0.06115841  0.06311178  1
  Zn  Zn136  1  0.81601681  0.06299422  0.55785695  1
  Zn  Zn137  1  0.81264290  0.55990350  0.06280950  1
  Zn  Zn138  1  0.81330038  0.55272212  0.56238823  1
  Zn  Zn139  1  0.43608135  0.43673486  0.19056668  1
  Zn  Zn140  1  0.43568820  0.43434496  0.68908647  1
  Zn  Zn141  1  0.43930241  0.94076903  0.19091209  1
  Zn  Zn142  1  0.43852589  0.93771120  0.68847938  1
  Zn  Zn143  1  0.93678016  0.43499500  0.18958381  1
  Zn  Zn144  1  0.94195484  0.44078233  0.69313650  1
  Zn  Zn145  1  0.93827413  0.93578967  0.18869206  1
  Zn  Zn146  1  0.93415375  0.94107015  0.68388163  1
  Zn  Zn147  1  0.06531550  0.06519194  0.31500421  1
  Zn  Zn148  1  0.05159784  0.01448958  0.80290822  1
  Zn  Zn149  1  0.06085239  0.56291754  0.31355417  1
  Zn  Zn150  1  0.04835985  0.66901248  0.80381780  1
  Zn  Zn151  1  0.55976727  0.06019783  0.31647378  1
  Zn  Zn152  1  0.55399206  0.06288754  0.81118695  1
  Zn  Zn153  1  0.55904748  0.55898335  0.31216595  1
  Zn  Zn154  1  0.56315705  0.55799129  0.81287360  1
  Zn  Zn155  1  0.44470725  0.18468341  0.43766117  1
  Zn  Zn156  1  0.43467932  0.18389733  0.93770561  1
  Zn  Zn157  1  0.43879572  0.68671487  0.43857749  1
  Zn  Zn158  1  0.43715774  0.68303189  0.93775078  1
  Zn  Zn159  1  0.94245807  0.19018505  0.43827555  1
  Zn  Zn160  1  0.93940951  0.17988925  0.93909378  1
  Zn  Zn161  1  0.93359657  0.69222971  0.43128690  1
  Zn  Zn162  1  0.92861888  0.68101282  0.94662583  1
  Zn  Zn163  1  0.06550885  0.30982496  0.06610765  1
  Zn  Zn164  1  0.06642462  0.31079921  0.56119654  1
  Zn  Zn165  1  0.06353917  0.81525737  -0.05585163  1
  Zn  Zn166  1  0.05790908  0.83621606  0.56656441  1
  Zn  Zn167  1  0.56267192  0.31249838  0.05863049  1
  Zn  Zn168  1  0.56452036  0.31061198  0.55830884  1
  Zn  Zn169  1  0.56137425  0.81275518  0.06079549  1
  Zn  Zn170  1  0.60168849  0.79345657  0.58009858  1
  O  O171  1  0.11829558  0.12029335  0.12159291  1
  O  O172  1  0.12039639  0.12558462  0.61656515  1
  O  O173  1  0.12327389  0.61721257  0.11473020  1
  O  O174  1  0.13210468  0.61708809  0.61769734  1
  O  O175  1  0.61708189  0.11901129  0.12030651  1
  O  O176  1  0.62166434  0.13130378  0.61554988  1
  O  O177  1  0.61707903  0.61802964  0.12018828  1
  O  O178  1  0.61894569  0.60749112  0.62491991  1
  O  O179  1  0.38906003  0.37599746  0.36434316  1
  O  O180  1  0.38112463  0.38533541  0.87183754  1
  O  O181  1  0.37631631  0.87443706  0.38813881  1
  O  O182  1  0.38430841  0.88688966  0.87156516  1
  O  O183  1  0.88491508  0.37791833  0.37778053  1
  O  O184  1  0.88482208  0.36904033  0.88443552  1
  O  O185  1  0.88202083  0.88248512  0.37683984  1
  O  O186  1  0.86901677  0.88861193  0.87335783  1
  O  O187  1  0.25216660  0.00325942  0.36412937  1
  O  O188  1  0.26846052  0.00121802  0.88389335  1
  O  O189  1  0.24816106  0.51518585  0.38235815  1
  O  O190  1  0.25473030  0.50019575  0.86961865  1
  O  O191  1  0.76417021  -0.00125673  0.36468499  1
  O  O192  1  0.75749700  0.00589188  0.87281452  1
  O  O193  1  0.74917776  0.50949929  0.37051224  1
  O  O194  1  0.76456120  0.48619316  0.87764566  1
  O  O195  1  0.24258629  0.48834230  0.11479520  1
  O  O196  1  0.24833963  0.49170271  0.63010771  1
  O  O197  1  0.24554055  0.99816874  0.13640674  1
  O  O198  1  0.24741442  0.98638026  0.61908939  1
  O  O199  1  0.74311230  0.49106254  0.12986161  1
  O  O200  1  0.74137997  0.48977202  0.62792514  1
  O  O201  1  0.74479162  0.99237267  0.13071096  1
  O  O202  1  0.75494403  1.00550562  0.63816422  1
  O  O203  1  0.00323767  0.37458780  0.26204703  1
  O  O204  1  0.00137546  0.36325205  0.75906847  1
  O  O205  1  0.00877554  0.87403570  0.25948546  1
  O  O206  1  0.02003197  0.91617153  0.74695138  1
  O  O207  1  0.51219198  0.37942944  0.25646827  1
  O  O208  1  0.50964763  0.38200152  0.76188873  1
  O  O209  1  0.51311140  0.87127476  0.25177878  1
  O  O210  1  0.50674626  0.87736212  0.76216715  1
  O  O211  1  0.49283051  0.11780167  0.23983101  1
  O  O212  1  0.48108972  0.11871055  0.74570689  1
  O  O213  1  0.49477566  0.63022152  0.24340475  1
  O  O214  1  0.49967277  0.62181335  0.74111275  1
  O  O215  1  1.00402642  0.12398795  0.23606320  1
  O  O216  1  0.99250352  0.12684502  0.74398816  1
  O  O217  1  0.98554091  0.62519844  0.24893651  1
  O  O218  1  0.95920818  0.62208501  0.74662499  1
  O  O219  1  0.35791953  0.24186952  0.00058094  1
  O  O220  1  0.37504081  0.24729607  0.50986735  1
  O  O221  1  0.36783903  0.74081209  0.01118726  1
  O  O222  1  0.37037466  0.75766818  0.50351268  1
  O  O223  1  0.86958420  0.25115807  0.00742588  1
  O  O224  1  0.86249055  0.25028373  0.49531145  1
  O  O225  1  0.86652234  0.74596168  0.01663436  1
  O  O226  1  0.87289632  0.76957904  0.48900096  1
  O  O227  1  0.12267694  0.24042544  0.49027997  1
  O  O228  1  0.12948332  0.24212057  0.99505611  1
  O  O229  1  0.12918874  0.74416893  0.49524382  1
  O  O230  1  0.13640619  0.73904875  1.00815296  1
  O  O231  1  0.63360723  0.24176122  0.49357936  1
  O  O232  1  0.63133655  0.24305672  0.99311585  1
  O  O233  1  0.61618358  0.73867436  0.48028144  1
  O  O234  1  0.62342734  0.73965308  0.99516714  1
  O  O235  1  0.49894213  0.23732657  0.11694204  1
  O  O236  1  0.48549646  0.25429661  0.62139693  1
  O  O237  1  0.49460080  0.74401257  0.12914043  1
  O  O238  1  0.50760930  0.73241765  0.62379743  1
  O  O239  1  0.99094931  0.24255566  0.12769757  1
  O  O240  1  1.00684221  0.24435636  0.63930890  1
  O  O241  1  0.98224294  0.74715606  0.12901842  1
  O  O242  1  1.01654215  0.73481065  0.60416415  1
  O  O243  1  0.00867179  0.25864530  0.37369764  1
  O  O244  1  0.00495107  0.25075798  0.86692609  1
  O  O245  1  0.00900143  0.75748277  0.37055337  1
  O  O246  1  0.01898547  0.72255015  0.89991910  1
  O  O247  1  0.51239068  0.25946974  0.38155278  1
  O  O248  1  0.50260789  0.26260264  0.88472871  1
  O  O249  1  0.50718242  0.75072472  0.36566381  1
  O  O250  1  0.50514285  0.75854512  0.87948699  1
  O  O251  1  0.24184097  0.12268057  0.50103936  1
  O  O252  1  0.23390539  0.13352048  1.00898043  1
  O  O253  1  0.25648118  0.64011081  0.49181458  1
  O  O254  1  0.24141312  0.63182841  0.99259432  1
  O  O255  1  0.74318050  0.13326343  0.50435472  1
  O  O256  1  0.74164371  0.12772651  0.99511342  1
  O  O257  1  0.74529103  0.62337109  0.49119380  1
  O  O258  1  0.73370579  0.62317812  1.00643214  1
  O  O259  1  0.24297306  0.36563463  0.01200315  1
  O  O260  1  0.25124591  0.38117029  0.51350472  1
  O  O261  1  0.24706714  0.86039509  0.00321182  1
  O  O262  1  0.25577025  0.86473152  0.50419484  1
  O  O263  1  0.75254308  0.36533121  0.00866013  1
  O  O264  1  0.75217997  0.36860916  0.50958845  1
  O  O265  1  0.74045545  0.87567830  0.01462849  1
  O  O266  1  0.76181911  0.88027497  0.49540336  1
  O  O267  1  0.12021009  0.50273859  0.23363979  1
  O  O268  1  0.13342972  0.49633616  0.73443643  1
  O  O269  1  0.13372934  0.99550740  0.24890234  1
  O  O270  1  0.14200778  1.02571626  0.73460447  1
  O  O271  1  0.62916171  0.49239750  0.24355305  1
  O  O272  1  0.63129202  0.48948232  0.74505413  1
  O  O273  1  0.63042391  0.99284637  0.24673581  1
  O  O274  1  0.63094318  0.99134848  0.76095321  1
  O  O275  1  0.36897405  0.00827843  0.25255701  1
  O  O276  1  0.37279925  0.00273247  0.76086448  1
  O  O277  1  0.37897800  0.51520555  0.25284541  1
  O  O278  1  0.36707295  0.50043926  0.75824632  1
  O  O279  1  0.86744843  -0.00372759  0.25966266  1
  O  O280  1  0.86521170  0.00830213  0.76090516  1
  O  O281  1  0.86662521  0.50733687  0.25020875  1
  O  O282  1  0.87262697  0.48742524  0.77159657  1
  O  O283  1  0.11969650  0.36955259  0.37353195  1
  O  O284  1  0.11028506  0.36681148  0.87638862  1
  O  O285  1  0.12078671  0.86692091  0.36821164  1
  O  O286  1  0.11633254  0.88778212  0.87621897  1
  O  O287  1  0.61790104  0.36844529  0.36804365  1
  O  O288  1  0.61739442  0.36965195  0.86812385  1
  O  O289  1  0.62810700  0.86601168  0.36809476  1
  O  O290  1  0.61162718  0.86984138  0.87275958  1
  O  O291  1  0.38371521  0.12640423  0.13196194  1
  O  O292  1  0.37544415  0.14292297  0.63213480  1
  O  O293  1  0.37915325  0.63165390  0.13210353  1
  O  O294  1  0.38566430  0.62495717  0.62539500  1
  O  O295  1  0.88235697  0.13343575  0.11939348  1
  O  O296  1  0.88867911  0.11834161  0.63275441  1
  O  O297  1  0.87153440  0.63348459  0.13268749  1
  O  O298  1  0.86200161  0.64592607  0.61303901  1
  O  O299  1  0.24939220  0.26286805  0.11757770  1
  O  O300  1  0.25805104  0.26403398  0.62805308  1
  O  O301  1  0.26023321  0.75088482  0.11747410  1
  O  O302  1  0.25219239  0.76041979  0.61601711  1
  O  O303  1  0.75595343  0.25210003  0.12097483  1
  O  O304  1  0.74557486  0.26097336  0.61461398  1
  O  O305  1  0.75556537  0.75850333  0.12554564  1
  O  O306  1  0.70562566  0.75377091  0.61515354  1
  O  O307  1  0.23961980  0.25206974  0.37251314  1
  O  O308  1  0.23628250  0.25868053  0.88452753  1
  O  O309  1  0.24247390  0.74606589  0.38246445  1
  O  O310  1  0.25890645  0.73832981  0.88362655  1
  O  O311  1  0.73862357  0.25673285  0.38653650  1
  O  O312  1  0.74322720  0.24309563  0.87942954  1
  O  O313  1  0.74188470  0.73628446  0.36572381  1
  O  O314  1  0.73266681  0.75749200  0.88005947  1
  O  O315  1  0.00952116  0.11991845  0.01239363  1
  O  O316  1  0.00789246  0.12673189  0.50885828  1
  O  O317  1  0.00331537  0.60953960  0.00906834  1
  O  O318  1  0.00466872  0.61956836  0.49267466  1
  O  O319  1  0.50396401  0.11737373  0.00678202  1
  O  O320  1  0.51054915  0.11781381  0.50515467  1
  O  O321  1  0.50755635  0.61288530  0.00502435  1
  O  O322  1  0.50744828  0.61488941  0.50566537  1
  O  O323  1  0.50698226  0.38388227  0.48940915  1
  O  O324  1  0.50586727  0.38714073  0.99110397  1
  O  O325  1  0.49125573  0.88072008  0.50242505  1
  O  O326  1  0.50220113  0.88633109  0.99441660  1
  O  O327  1  1.00054523  0.38014593  0.49217611  1
  O  O328  1  0.99558524  0.37426831  0.99631659  1
  O  O329  1  0.99674381  0.88261361  0.48379254  1
  O  O330  1  1.00005920  0.88847701  1.00913918  1
  O  O331  1  0.49962740  0.49132606  0.38393547  1
  O  O332  1  0.49179385  0.49239726  0.88208800  1
  O  O333  1  0.49916814  0.99499379  0.38877182  1
  O  O334  1  0.49122527  0.99385560  0.88516115  1
  O  O335  1  1.00251966  0.49164321  0.38337167  1
  O  O336  1  0.98612366  0.48514089  0.89090571  1
  O  O337  1  0.99042816  0.99456705  0.37093340  1
  O  O338  1  0.97951418  1.01151213  0.88933517  1
  O  O339  1  0.00174845  0.00604632  0.12052220  1
  O  O340  1  0.01195402  0.01327158  0.61832243  1
  O  O341  1  0.00587991  0.49432839  0.11580620  1
  O  O342  1  0.01049563  0.49415643  0.61903312  1
  O  O343  1  0.50401551  0.00683179  0.11853661  1
  O  O344  1  0.49202385  0.00487065  0.61202208  1
  O  O345  1  0.50347745  0.50122582  0.11752600  1
  O  O346  1  0.50509435  0.50200818  0.61852487  1
  O  O347  1  0.24726104  0.37494447  0.23194472  1
  O  O348  1  0.24719073  0.38554286  0.74409960  1
  O  O349  1  0.24569763  0.88277586  0.25095653  1
  O  O350  1  0.24947568  0.86777654  0.73595940  1
  O  O351  1  0.74025715  0.37886891  0.24689422  1
  O  O352  1  0.74219101  0.37259274  0.74174417  1
  O  O353  1  0.73912450  0.88098456  0.24217921  1
  O  O354  1  0.73114483  0.88561085  0.75434900  1
  O  O355  1  0.25945901  0.11892556  0.25096733  1
  O  O356  1  0.27171297  0.12855498  0.74665004  1
  O  O357  1  0.25894048  0.63358655  0.26015173  1
  O  O358  1  0.25340345  0.61211290  0.75764128  1
  O  O359  1  0.74612890  0.11092661  0.24278037  1
  O  O360  1  0.75539945  0.12052310  0.75411218  1
  O  O361  1  0.75606816  0.61861231  0.25437878  1
  O  O362  1  0.77208489  0.62396007  0.74695894  1
  O  O363  1  0.37624157  0.12530352  0.36656429  1
  O  O364  1  0.37995457  0.11512027  0.86395328  1
  O  O365  1  0.36647307  0.62621228  0.36730701  1
  O  O366  1  0.36537204  0.61108501  0.87606098  1
  O  O367  1  0.88268780  0.11195123  0.37465462  1
  O  O368  1  0.86601149  0.12027015  0.86866638  1
  O  O369  1  0.86621188  0.62294393  0.36681573  1
  O  O370  1  0.86834994  0.60325353  0.88904743  1
  O  O371  1  0.13282775  0.38329596  0.12602568  1
  O  O372  1  0.13787135  0.37883689  0.62598175  1
  O  O373  1  0.12777824  0.88328260  0.14243951  1
  O  O374  1  0.13886153  0.88784440  0.62321882  1
  O  O375  1  0.62798154  0.37628904  0.13309601  1
  O  O376  1  0.62782477  0.38110212  0.63156869  1
  O  O377  1  0.62943472  0.87963852  0.13247655  1
  O  O378  1  0.60764998  0.88729515  0.64502824  1
  O  O379  1  0.12160384  0.25225588  0.26067112  1
  O  O380  1  0.11888818  0.24762723  0.75911129  1
  O  O381  1  0.12569181  0.75779632  0.25491911  1
  O  O382  1  0.11636375  0.73828278  0.74801055  1
  O  O383  1  0.62965379  0.25823596  0.25972513  1
  O  O384  1  0.62616720  0.26124562  0.75549957  1
  O  O385  1  0.62055980  0.75533424  0.25624996  1
  O  O386  1  0.61851038  0.76278020  0.76061773  1
  O  O387  1  0.37308819  0.23791058  0.24337948  1
  O  O388  1  0.37710793  0.24506370  0.75094102  1
  O  O389  1  0.38140322  0.74203801  0.24397913  1
  O  O390  1  0.38199770  0.74460802  0.74536153  1
  O  O391  1  0.87479129  0.25264687  0.24012152  1
  O  O392  1  0.88266936  0.23469416  0.75551570  1
  O  O393  1  0.87251215  0.74180174  0.24174969  1
  O  O394  1  0.87102218  0.75779200  0.73879914  1
  O  O395  1  0.38661922  0.50250480  0.49647742  1
  O  O396  1  0.38350338  0.50383698  0.99297749  1
  O  O397  1  0.38113153  0.99394589  0.49792661  1
  O  O398  1  0.38332972  1.00844914  0.99461495  1
  O  O399  1  0.89042291  0.49721333  0.49929890  1
  O  O400  1  0.87955597  0.48702765  0.99898498  1
  O  O401  1  0.87707883  0.99433161  0.48394464  1
  O  O402  1  0.87821204  1.00198079  0.98993882  1
  O  O403  1  0.11826660  0.00704665  0.00916631  1
  O  O404  1  0.12451920  0.01091485  0.50501817  1
  O  O405  1  0.11579382  0.50602902  0.00565582  1
  O  O406  1  0.11396083  0.50066854  0.51082051  1
  O  O407  1  0.61582927  0.00620788  0.00559821  1
  O  O408  1  0.62001238  0.01104210  0.49590958  1
  O  O409  1  0.61774001  0.50417269  0.00468693  1
  O  O410  1  0.61960870  0.50294205  0.50867435  1
  O  O411  1  0.36305057  0.37533342  0.12556621  1
  O  O412  1  0.36546706  0.36406867  0.62833212  1
  O  O413  1  0.37705979  0.86142855  0.13229809  1
  O  O414  1  0.36542227  0.87481282  0.61673751  1
  O  O415  1  0.86922467  0.36494747  0.12113408  1
  O  O416  1  0.86426492  0.37972585  0.62704463  1
  O  O417  1  0.86585575  0.86187400  0.13312297  1
  O  O418  1  0.88174465  0.88391293  0.60130933  1
  O  O419  1  0.12835222  0.13350761  0.38375262  1
  O  O420  1  0.11750531  0.13263869  0.88568647  1
  O  O421  1  0.13187226  0.63836075  0.36689603  1
  O  O422  1  0.13864011  0.61451280  0.88194754  1
  O  O423  1  0.62044819  0.13632868  0.38088680  1
  O  O424  1  0.62700465  0.12983097  0.87770983  1
  O  O425  1  0.63126156  0.62834232  0.37618901  1
  O  O426  1  0.61761909  0.63401048  0.88296088  1
