# generated using pymatgen
data_V85Zn86O256
_symmetry_space_group_name_H-M   'P 1'
_cell_length_a   16.96918834
_cell_length_b   16.95687700
_cell_length_c   16.95530082
_cell_angle_alpha   90.01830964
_cell_angle_beta   90.02221481
_cell_angle_gamma   89.92380232
_symmetry_Int_Tables_number   1
_chemical_formula_structural   V85Zn86O256
_chemical_formula_sum   'V85 Zn86 O256'
_cell_volume   4878.78860350
_cell_formula_units_Z   1
loop_
 _symmetry_equiv_pos_site_id
 _symmetry_equiv_pos_as_xyz
  1  'x, y, z'
loop_
 _atom_site_type_symbol
 _atom_site_label
 _atom_site_symmetry_multiplicity
 _atom_site_fract_x
 _atom_site_fract_y
 _atom_site_fract_z
 _atom_site_occupancy
  V  V0  1  0.37448596  0.75220187  0.63246008  1
  V  V1  1  0.57565127  0.30412152  0.92290767  1
  V  V2  1  0.62811015  0.12959940  0.50107931  1
  V  V3  1  0.24664362  0.25191516  0.50456030  1
  V  V4  1  0.24826466  0.49669605  0.74959728  1
  V  V5  1  0.49938267  0.12932282  0.12311051  1
  V  V6  1  0.74404119  0.86897065  0.11600103  1
  V  V7  1  -0.00561526  0.62227996  0.12421590  1
  V  V8  1  0.62730883  0.50046201  0.62453155  1
  V  V9  1  0.23320000  0.87775156  0.63083663  1
  V  V10  1  0.24998763  0.75336294  0.50452011  1
  V  V11  1  0.75744413  0.63044403  0.89035357  1
  V  V12  1  0.63071021  0.75288675  0.88820357  1
  V  V13  1  0.50165202  0.75578184  0.75228445  1
  V  V14  1  0.00337100  0.11712337  0.62301821  1
  V  V15  1  0.62437588  0.38786826  0.24674218  1
  V  V16  1  0.63054846  0.25295388  0.37690388  1
  V  V17  1  0.24433667  0.25595344  0.02091417  1
  V  V18  1  0.24965236  -0.00540924  0.24422613  1
  V  V19  1  0.36963540  0.87498755  0.00635578  1
  V  V20  1  0.49622326  0.24978607  0.25383677  1
  V  V21  1  0.00094336  0.62481278  0.62788620  1
  V  V22  1  0.12414389  0.11479322  0.49903729  1
  V  V23  1  0.63086136  0.63043179  0.49691082  1
  V  V24  1  0.86173423  0.75123558  0.62130623  1
  V  V25  1  0.87813331  -0.00559209  0.87397075  1
  V  V26  1  0.75163982  0.37065860  0.61541167  1
  V  V27  1  0.49959269  0.00104548  0.49951946  1
  V  V28  1  0.13799152  0.39017275  0.24331081  1
  V  V29  1  0.12055440  0.25127007  0.37331854  1
  V  V30  1  -0.00012184  0.75181104  0.24328347  1
  V  V31  1  0.87385744  0.13538491  0.24356927  1
  V  V32  1  0.50115455  0.74926863  0.24683651  1
  V  V33  1  0.39702064  0.60476904  0.77013878  1
  V  V34  1  0.75228805  0.12844439  0.37605200  1
  V  V35  1  0.13053230  0.37056500  0.74897260  1
  V  V36  1  0.62278358  0.60950463  0.00449050  1
  V  V37  1  0.50154492  0.62770157  0.62327895  1
  V  V38  1  0.50332535  0.25356994  0.75122574  1
  V  V39  1  0.50007768  0.37559568  0.38227511  1
  V  V40  1  0.62599535  0.12362202  -0.00461075  1
  V  V41  1  0.74475558  -0.00400627  0.24716115  1
  V  V42  1  -0.00076306  0.39051571  0.37662319  1
  V  V43  1  0.87574563  0.12589457  0.74848989  1
  V  V44  1  0.76561200  0.50909606  0.25316830  1
  V  V45  1  -0.00075232  0.13258422  0.11890009  1
  V  V46  1  0.37270060  0.12447341  0.75265766  1
  V  V47  1  0.75508040  0.49787314  0.75159453  1
  V  V48  1  0.87363039  0.24804420  0.61132407  1
  V  V49  1  0.13121492  0.75112421  0.37038958  1
  V  V50  1  0.12289016  0.49231688  0.62124577  1
  V  V51  1  0.50086615  0.12293555  0.62597660  1
  V  V52  1  0.37361924  0.50278092  0.37910106  1
  V  V53  1  0.23647781  -0.00245574  0.74795228  1
  V  V54  1  0.63396323  0.87619879  0.74384245  1
  V  V55  1  0.00020317  -0.00746665  -0.00132399  1
  V  V56  1  0.63106780  0.75348100  0.37389412  1
  V  V57  1  0.74989235  0.13213252  0.87449716  1
  V  V58  1  0.37268551  0.12714910  0.24558457  1
  V  V59  1  0.25531459  0.62348597  0.37711685  1
  V  V60  1  0.50369424  0.87596229  0.36914198  1
  V  V61  1  0.12492053  0.00190898  0.12015177  1
  V  V62  1  0.87727749  0.62667870  0.75149158  1
  V  V63  1  0.00137139  0.24909456  0.74719999  1
  V  V64  1  0.87988225  0.38891842  0.49593747  1
  V  V65  1  0.49843791  0.00131420  0.00156348  1
  V  V66  1  0.62993525  0.36858889  0.74895939  1
  V  V67  1  0.24789294  0.62876584  0.86968367  1
  V  V68  1  0.88049853  0.49593294  0.87829365  1
  V  V69  1  0.87978963  -0.00028400  0.37248431  1
  V  V70  1  0.23608680  0.12748766  0.88239398  1
  V  V71  1  0.12369654  0.62517024  -0.00240012  1
  V  V72  1  0.88183588  0.36481667  0.01340603  1
  V  V73  1  0.12522993  0.62163859  0.50292733  1
  V  V74  1  0.50256794  0.61215562  0.12683462  1
  V  V75  1  0.37068242  0.25120352  0.62666944  1
  V  V76  1  0.12870736  0.87046827  0.24023932  1
  V  V77  1  0.37007372  0.75211022  0.12935919  1
  V  V78  1  0.00787892  0.49682776  0.00401040  1
  V  V79  1  0.36941057  0.37626149  0.50820301  1
  V  V80  1  0.86230443  0.87185123  0.49757571  1
  V  V81  1  0.11777696  0.76355456  0.86745887  1
  V  V82  1  0.37424440  -0.00073863  0.87407226  1
  V  V83  1  0.50106171  0.87501873  0.87742944  1
  V  V84  1  0.37296587  -0.00028843  0.37546217  1
  Zn  Zn85  1  0.79414069  0.68835094  0.43358564  1
  Zn  Zn86  1  0.00121979  0.36977078  0.87525164  1
  Zn  Zn87  1  0.36263002  0.37490960  0.01027046  1
  Zn  Zn88  1  0.00223276  -0.00828855  0.50162116  1
  Zn  Zn89  1  0.33137226  0.58189912  0.21205155  1
  Zn  Zn90  1  -0.00006671  0.76569745  0.74702157  1
  Zn  Zn91  1  0.24758575  0.75442126  0.00126449  1
  Zn  Zn92  1  0.50074820  0.49931201  0.50451351  1
  Zn  Zn93  1  0.75098713  0.00151612  0.74493192  1
  Zn  Zn94  1  0.86698657  0.74703149  0.11779163  1
  Zn  Zn95  1  -0.00237409  0.25699831  0.24733055  1
  Zn  Zn96  1  0.63331935  -0.00707051  0.61781195  1
  Zn  Zn97  1  0.41184789  0.47374418  -0.10501296  1
  Zn  Zn98  1  0.37453685  0.87749767  0.50461612  1
  Zn  Zn99  1  0.74917954  0.37042534  0.12885619  1
  Zn  Zn100  1  0.24794125  0.12457514  0.37535310  1
  Zn  Zn101  1  0.87337318  0.86757088  -0.00417689  1
  Zn  Zn102  1  0.87613637  0.62811126  0.26808176  1
  Zn  Zn103  1  0.62296114  -0.00116798  0.12866224  1
  Zn  Zn104  1  0.00192878  0.87481809  0.37353102  1
  Zn  Zn105  1  0.75841741  0.24644889  0.00824391  1
  Zn  Zn106  1  0.12277047  0.24704229  0.88111559  1
  Zn  Zn107  1  0.18075940  0.18376216  0.19337578  1
  Zn  Zn108  1  0.18593385  0.18225725  0.68640568  1
  Zn  Zn109  1  0.19312519  0.66527032  0.17594755  1
  Zn  Zn110  1  0.18802694  0.68638859  0.69097758  1
  Zn  Zn111  1  0.68546615  0.19321806  0.18407101  1
  Zn  Zn112  1  0.69001043  0.18663315  0.68417986  1
  Zn  Zn113  1  0.68242117  0.68654175  0.19075529  1
  Zn  Zn114  1  0.68778521  0.68645289  0.69538704  1
  Zn  Zn115  1  0.31029582  0.31310291  0.31872200  1
  Zn  Zn116  1  0.31347298  0.31477711  0.81956577  1
  Zn  Zn117  1  0.31495429  0.81343161  0.31173503  1
  Zn  Zn118  1  0.31124937  0.81195571  0.81361367  1
  Zn  Zn119  1  0.81167428  0.31712339  0.31496436  1
  Zn  Zn120  1  0.81574480  0.31129075  0.81277239  1
  Zn  Zn121  1  0.81686233  0.81693581  0.30235733  1
  Zn  Zn122  1  0.81522213  0.80970691  0.81151411  1
  Zn  Zn123  1  0.18736226  0.43688954  0.43575098  1
  Zn  Zn124  1  0.19044960  0.43430810  0.93348686  1
  Zn  Zn125  1  0.18950697  0.93392486  0.43379178  1
  Zn  Zn126  1  0.19092012  0.94200857  0.94086509  1
  Zn  Zn127  1  0.68982194  0.44349874  0.43601177  1
  Zn  Zn128  1  0.70044921  0.43858832  0.94213788  1
  Zn  Zn129  1  0.68671494  0.94091182  0.43297845  1
  Zn  Zn130  1  0.68962488  0.94422179  0.93378827  1
  Zn  Zn131  1  0.31067935  0.06648244  0.06319141  1
  Zn  Zn132  1  0.30868771  0.06229883  0.56508973  1
  Zn  Zn133  1  0.30533259  0.55583064  0.04981954  1
  Zn  Zn134  1  0.31139906  0.56281187  0.57002700  1
  Zn  Zn135  1  0.81461385  0.06065841  0.06233483  1
  Zn  Zn136  1  0.81143148  0.05735856  0.56007521  1
  Zn  Zn137  1  0.81263399  0.55187107  0.07058132  1
  Zn  Zn138  1  0.81360949  0.56120988  0.56555667  1
  Zn  Zn139  1  0.42566584  0.43366239  0.19324436  1
  Zn  Zn140  1  0.44096158  0.43536356  0.68953848  1
  Zn  Zn141  1  0.43892772  0.93799613  0.18786526  1
  Zn  Zn142  1  0.43769147  0.93838267  0.68793275  1
  Zn  Zn143  1  0.94621573  0.44094791  0.19078025  1
  Zn  Zn144  1  0.94065103  0.43707199  0.68477009  1
  Zn  Zn145  1  0.93422836  0.93814871  0.18419967  1
  Zn  Zn146  1  0.92863698  0.93665239  0.68072817  1
  Zn  Zn147  1  0.06147935  0.06478098  0.30713090  1
  Zn  Zn148  1  0.05749037  -0.05890476  0.81266210  1
  Zn  Zn149  1  0.06496934  0.56585191  0.31205709  1
  Zn  Zn150  1  0.06250200  0.56308673  0.81204252  1
  Zn  Zn151  1  0.56279421  0.06439877  0.31429851  1
  Zn  Zn152  1  0.56274322  0.06232519  0.81351309  1
  Zn  Zn153  1  0.55660283  0.56671582  0.31650797  1
  Zn  Zn154  1  0.57622965  0.56631252  0.81101088  1
  Zn  Zn155  1  0.43637118  0.18717653  0.43703711  1
  Zn  Zn156  1  0.42522880  0.19177206  0.94003154  1
  Zn  Zn157  1  0.43953953  0.69144471  0.44051032  1
  Zn  Zn158  1  0.44151291  0.68760035  0.94476298  1
  Zn  Zn159  1  0.94016318  0.18953977  0.43516496  1
  Zn  Zn160  1  0.94395816  0.18129235  0.93401248  1
  Zn  Zn161  1  0.95389496  0.68956818  0.43709510  1
  Zn  Zn162  1  0.93936694  0.69211979  0.94026968  1
  Zn  Zn163  1  0.07176915  0.31175346  0.06359000  1
  Zn  Zn164  1  0.06037066  0.31065312  0.55964349  1
  Zn  Zn165  1  0.06328363  0.81098154  0.06044498  1
  Zn  Zn166  1  0.05442692  0.81110404  0.56100264  1
  Zn  Zn167  1  0.51927924  0.34230738  0.09211570  1
  Zn  Zn168  1  0.56165934  0.30976136  0.56444427  1
  Zn  Zn169  1  0.56398252  0.81397185  0.06605191  1
  Zn  Zn170  1  0.56214769  0.81315536  0.55814815  1
  O  O171  1  0.10879488  0.11395948  0.13420911  1
  O  O172  1  0.11443993  0.12930727  0.61272927  1
  O  O173  1  0.10803388  0.63707417  0.10290699  1
  O  O174  1  0.12000879  0.61975032  0.62200142  1
  O  O175  1  0.61821943  0.12287622  0.11153688  1
  O  O176  1  0.61853321  0.12668969  0.61523359  1
  O  O177  1  0.61428881  0.62888037  0.11646337  1
  O  O178  1  0.61906861  0.62316716  0.62202597  1
  O  O179  1  0.37918712  0.38106749  0.38946282  1
  O  O180  1  0.37774241  0.36799339  0.89097781  1
  O  O181  1  0.38035299  0.88764839  0.37745206  1
  O  O182  1  0.38188559  0.87918773  0.88167072  1
  O  O183  1  0.88897343  0.37208400  0.38163413  1
  O  O184  1  0.88010654  0.38285171  0.88074072  1
  O  O185  1  0.87734636  0.88376318  0.37612029  1
  O  O186  1  0.86593652  0.89086651  0.87384694  1
  O  O187  1  0.25841228  0.00176276  0.36724884  1
  O  O188  1  0.25638664  0.00946018  0.86949475  1
  O  O189  1  0.25947693  0.51189311  0.38544054  1
  O  O190  1  0.24432252  0.50965324  0.85981489  1
  O  O191  1  0.75776562  0.00727745  0.36367655  1
  O  O192  1  0.75838429  0.01375941  0.86953285  1
  O  O193  1  0.74526350  0.49546517  0.35245192  1
  O  O194  1  0.76570266  0.50678392  0.87284126  1
  O  O195  1  0.24613545  0.56527630  0.14122576  1
  O  O196  1  0.23484749  0.50795295  0.63859768  1
  O  O197  1  0.23941491  1.00793014  0.13331129  1
  O  O198  1  0.25455527  0.98941718  0.63534676  1
  O  O199  1  0.75190765  0.48717433  0.14437745  1
  O  O200  1  0.74602336  0.49172827  0.63212157  1
  O  O201  1  0.74784795  0.99826981  0.13591689  1
  O  O202  1  0.74437795  1.00693017  0.63140134  1
  O  O203  1  0.00723509  0.37507954  0.26348425  1
  O  O204  1  0.00593557  0.36230065  0.74721936  1
  O  O205  1  0.00839786  0.86828128  0.24812670  1
  O  O206  1  -0.00486341  0.87821851  0.74727014  1
  O  O207  1  0.50704695  0.36707567  0.26300116  1
  O  O208  1  0.50770448  0.36121377  0.74817548  1
  O  O209  1  0.49789728  0.87148722  0.26259537  1
  O  O210  1  0.50687729  0.87192677  0.75846427  1
  O  O211  1  0.49374998  0.12979055  0.24611844  1
  O  O212  1  0.49435835  0.13355619  0.74786903  1
  O  O213  1  0.50382096  0.63500277  0.23866004  1
  O  O214  1  0.50637825  0.63989659  0.73716453  1
  O  O215  1  0.98982478  0.12698094  0.23927139  1
  O  O216  1  0.99130035  0.13736461  0.73758817  1
  O  O217  1  1.00277052  0.63207439  0.23999340  1
  O  O218  1  0.99309267  0.62696918  0.74337678  1
  O  O219  1  0.34815180  0.24658220  -0.00010478  1
  O  O220  1  0.36666768  0.25443315  0.50437941  1
  O  O221  1  0.37577933  0.75943961  0.00889567  1
  O  O222  1  0.36441447  0.74997555  0.51199530  1
  O  O223  1  0.88412985  0.26362952  -0.00564652  1
  O  O224  1  0.87812492  0.25724615  0.50885321  1
  O  O225  1  0.87489167  0.75444936  0.00324713  1
  O  O226  1  0.87209870  0.75507536  0.50367139  1
  O  O227  1  0.13014385  0.24394337  0.49200213  1
  O  O228  1  0.13793995  0.24575094  0.99717712  1
  O  O229  1  0.13599279  0.74526949  0.49657145  1
  O  O230  1  0.12625214  0.74567335  0.98686881  1
  O  O231  1  0.62051004  0.23777704  0.49296241  1
  O  O232  1  0.62628480  0.24393314  0.98961294  1
  O  O233  1  0.62167897  0.74323512  0.48992364  1
  O  O234  1  0.62258876  0.74451214  0.98998900  1
  O  O235  1  0.50772920  0.23418157  0.13999294  1
  O  O236  1  0.49233113  0.24246934  0.63344890  1
  O  O237  1  0.49631139  0.74928090  0.13388119  1
  O  O238  1  0.49258562  0.74685282  0.62881840  1
  O  O239  1  1.00606536  0.23539609  0.12639699  1
  O  O240  1  0.99135342  0.24340132  0.62750651  1
  O  O241  1  0.99984546  0.74496846  0.13294513  1
  O  O242  1  0.99301446  0.73718256  0.62675096  1
  O  O243  1  0.00827485  0.25797938  0.37276256  1
  O  O244  1  0.00463589  0.24698425  0.86189928  1
  O  O245  1  0.01479386  0.75110811  0.35881464  1
  O  O246  1  0.01534232  0.74740563  0.87104125  1
  O  O247  1  0.50931626  0.25344780  0.37276529  1
  O  O248  1  0.50541799  0.24537149  0.87050203  1
  O  O249  1  0.50241646  0.75871133  0.36963256  1
  O  O250  1  0.50984089  0.75454274  0.87166967  1
  O  O251  1  0.24111802  0.13008843  0.49861463  1
  O  O252  1  0.25060534  0.12861583  0.98674321  1
  O  O253  1  0.24324939  0.63453421  0.50091622  1
  O  O254  1  0.23990958  0.62995964  0.98256073  1
  O  O255  1  0.74271297  0.12067377  0.48418736  1
  O  O256  1  0.74150324  0.12422142  0.99468561  1
  O  O257  1  0.73563723  0.62218681  0.50658928  1
  O  O258  1  0.74652157  0.61646522  0.99407318  1
  O  O259  1  0.24163841  0.36156160  0.00634908  1
  O  O260  1  0.25737399  0.36483061  0.49810344  1
  O  O261  1  0.26559067  0.87461869  -0.00342506  1
  O  O262  1  0.25294620  0.86931695  0.50975690  1
  O  O263  1  0.77073692  0.37377490  0.00403195  1
  O  O264  1  0.75692659  0.37979593  0.50981680  1
  O  O265  1  0.74918628  0.88354116  0.01325744  1
  O  O266  1  0.76249083  0.88004062  0.49232082  1
  O  O267  1  0.12827917  0.48958092  0.25683599  1
  O  O268  1  0.12741557  0.49034421  0.74364027  1
  O  O269  1  0.13176861  0.99296311  0.24318547  1
  O  O270  1  0.13790655  1.00171441  0.75474590  1
  O  O271  1  0.61995026  0.48762853  0.25740978  1
  O  O272  1  0.63505807  0.49038373  0.74536764  1
  O  O273  1  0.64117969  1.00918782  0.25083692  1
  O  O274  1  0.62310801  0.98454459  0.75204932  1
  O  O275  1  0.36794646  0.00524405  0.25475947  1
  O  O276  1  0.37205411  0.00848801  0.75572891  1
  O  O277  1  0.37948729  0.49888471  0.27112103  1
  O  O278  1  0.36041013  0.50550989  0.73397667  1
  O  O279  1  0.86537759  0.01044125  0.25517701  1
  O  O280  1  0.87530731  0.01425755  0.75416082  1
  O  O281  1  0.86955879  0.50480663  0.25167898  1
  O  O282  1  0.87421563  0.50408746  0.75766676  1
  O  O283  1  0.11523541  0.36993311  0.37335517  1
  O  O284  1  0.12088301  0.37052452  0.86162187  1
  O  O285  1  0.12641161  0.86850893  0.36089343  1
  O  O286  1  0.12747942  0.86736413  0.87741613  1
  O  O287  1  0.61997194  0.36779849  0.37407660  1
  O  O288  1  0.64051545  0.36602184  0.86864971  1
  O  O289  1  0.61397263  0.86812713  0.38095706  1
  O  O290  1  0.62219578  0.86929708  0.87031811  1
  O  O291  1  0.38200205  0.12160449  0.13868591  1
  O  O292  1  0.37933894  0.12843060  0.63623010  1
  O  O293  1  0.39384021  0.63757914  0.12448418  1
  O  O294  1  0.38496260  0.63268302  0.63548223  1
  O  O295  1  0.88696144  0.11982395  0.13223547  1
  O  O296  1  0.87866937  0.13270068  0.62814478  1
  O  O297  1  0.88714452  0.62520412  0.12347765  1
  O  O298  1  0.88319110  0.62860646  0.62916761  1
  O  O299  1  0.24406767  0.24158008  0.11899936  1
  O  O300  1  0.25537709  0.24309464  0.61331377  1
  O  O301  1  0.26689339  0.74471635  0.12357644  1
  O  O302  1  0.25634305  0.75532860  0.62431180  1
  O  O303  1  0.74952537  0.25672837  0.12096480  1
  O  O304  1  0.76095431  0.25940888  0.62772287  1
  O  O305  1  0.74606938  0.76656969  0.13365398  1
  O  O306  1  0.76277756  0.74129620  0.62926017  1
  O  O307  1  0.24293134  0.24580107  0.38827683  1
  O  O308  1  0.24426673  0.23307520  0.86693400  1
  O  O309  1  0.25027916  0.75037073  0.38923318  1
  O  O310  1  0.23801722  0.74491610  0.87379963  1
  O  O311  1  0.73854246  0.24391431  0.37115085  1
  O  O312  1  0.76013941  0.23575307  0.88176493  1
  O  O313  1  0.73547246  0.75919821  0.36418216  1
  O  O314  1  0.74374689  0.73945625  0.87103170  1
  O  O315  1  -0.00485283  0.11457728  0.01400751  1
  O  O316  1  0.00782172  0.12443456  0.50544082  1
  O  O317  1  0.00501817  0.61527691  0.00152934  1
  O  O318  1  0.01911378  0.63015742  0.50979051  1
  O  O319  1  0.50209356  0.12425190  0.00641912  1
  O  O320  1  0.50608102  0.11994199  0.50397506  1
  O  O321  1  0.50979223  0.62590662  0.01404090  1
  O  O322  1  0.50786521  0.62718570  0.51296462  1
  O  O323  1  0.49148850  0.37413868  0.49793184  1
  O  O324  1  0.52710219  0.36938358  0.97983009  1
  O  O325  1  0.49540470  0.88323597  0.49077768  1
  O  O326  1  0.49376758  0.88165902  0.99547366  1
  O  O327  1  0.99416089  0.37272118  0.48678276  1
  O  O328  1  0.99781154  0.37989418  0.99869987  1
  O  O329  1  0.98990475  0.87509321  0.49221173  1
  O  O330  1  0.99582739  0.88880070  1.00780317  1
  O  O331  1  0.49219857  0.49494365  0.38429576  1
  O  O332  1  0.47005648  0.53569478  0.82728548  1
  O  O333  1  0.49393271  0.99505768  0.37810868  1
  O  O334  1  0.49254908  0.99608968  0.88137509  1
  O  O335  1  1.00531296  0.48911261  0.37722175  1
  O  O336  1  0.99122421  0.49912905  0.88036273  1
  O  O337  1  0.98783229  1.00134794  0.37104566  1
  O  O338  1  0.99218109  1.00377825  0.88629033  1
  O  O339  1  0.00615671  0.00670993  0.12075941  1
  O  O340  1  -0.00805888  0.01460469  0.61987358  1
  O  O341  1  0.00146725  0.50849894  0.11480106  1
  O  O342  1  0.00939424  0.51340726  0.62937052  1
  O  O343  1  0.50192990  0.01199527  0.12209754  1
  O  O344  1  0.50341352  0.00582376  0.61770789  1
  O  O345  1  0.49691971  0.51480431  0.13687899  1
  O  O346  1  0.50851357  0.51047635  0.62790785  1
  O  O347  1  0.23745081  0.37312211  0.25751675  1
  O  O348  1  0.23960971  0.38088500  0.75191463  1
  O  O349  1  0.24499875  0.88661868  0.25167006  1
  O  O350  1  0.25595441  0.88543726  0.74277390  1
  O  O351  1  0.73455755  0.37759176  0.25303049  1
  O  O352  1  0.75018400  0.37819992  0.74031528  1
  O  O353  1  0.75157766  0.89267300  0.24234940  1
  O  O354  1  0.73567731  0.87537845  0.75416629  1
  O  O355  1  0.25742890  0.11636944  0.25384659  1
  O  O356  1  0.25693015  0.11651959  0.75395008  1
  O  O357  1  0.25471199  0.64601988  0.27683583  1
  O  O358  1  0.25782223  0.61916586  0.75844550  1
  O  O359  1  0.75487842  0.12009368  0.25752275  1
  O  O360  1  0.75889315  0.12890578  0.75701637  1
  O  O361  1  0.75409458  0.61304287  0.24346396  1
  O  O362  1  0.75679905  0.61620970  0.76182775  1
  O  O363  1  0.37678473  0.11368435  0.36532400  1
  O  O364  1  0.36993838  0.12056408  0.86369854  1
  O  O365  1  0.36962019  0.61433607  0.39112435  1
  O  O366  1  0.36442130  0.63797786  0.86913787  1
  O  O367  1  0.86811972  0.12051489  0.37006720  1
  O  O368  1  0.87148801  0.11829826  0.86576861  1
  O  O369  1  0.87608661  0.63474738  0.38097770  1
  O  O370  1  0.87156986  0.61894841  0.87255971  1
  O  O371  1  0.12011086  0.37396477  0.14541903  1
  O  O372  1  0.11700409  0.38523930  0.63004139  1
  O  O373  1  0.12349328  0.88250743  0.13426147  1
  O  O374  1  0.13482282  0.86812438  0.62216571  1
  O  O375  1  0.61726005  0.37298564  0.14554550  1
  O  O376  1  0.63431334  0.37752572  0.62765183  1
  O  O377  1  0.63772018  0.88169564  0.12363489  1
  O  O378  1  0.61808064  0.87299604  0.64041311  1
  O  O379  1  0.12376194  0.25402174  0.26507669  1
  O  O380  1  0.11823369  0.25667215  0.74397222  1
  O  O381  1  0.12443230  0.75578380  0.24700413  1
  O  O382  1  0.12376398  0.74812034  0.76410556  1
  O  O383  1  0.61382757  0.25315217  0.26124401  1
  O  O384  1  0.61614080  0.25493913  0.74492217  1
  O  O385  1  0.61114646  0.74840565  0.26004153  1
  O  O386  1  0.62119764  0.76066632  0.75949050  1
  O  O387  1  0.38717108  0.24138923  0.26403756  1
  O  O388  1  0.38060733  0.24337672  0.74634474  1
  O  O389  1  0.38744874  0.75664333  0.24330057  1
  O  O390  1  0.38375821  0.74275544  0.74718664  1
  O  O391  1  0.87555582  0.23834344  0.25681613  1
  O  O392  1  0.88196541  0.24307065  0.74116068  1
  O  O393  1  0.88616722  0.74766639  0.24229828  1
  O  O394  1  0.87762647  0.74282345  0.74200302  1
  O  O395  1  0.37523226  0.49165780  0.50136726  1
  O  O396  1  0.37386838  0.49121653  0.99832445  1
  O  O397  1  0.37980638  1.00252874  0.49171665  1
  O  O398  1  0.37934502  0.99532485  0.99658207  1
  O  O399  1  0.87665323  0.48786457  0.50593093  1
  O  O400  1  0.88655639  0.48963398  0.99498416  1
  O  O401  1  0.87730967  0.99381841  0.48764948  1
  O  O402  1  0.88219400  0.99915471  0.99018265  1
  O  O403  1  0.11930280  -0.00383646  0.01265958  1
  O  O404  1  0.12339979  0.01114189  0.49042245  1
  O  O405  1  0.11489703  0.50792555  -0.01114271  1
  O  O406  1  0.13343276  0.50858045  0.51087786  1
  O  O407  1  0.61548083  0.00856615  -0.00015553  1
  O  O408  1  0.61803954  0.01225480  0.49646272  1
  O  O409  1  0.62588904  0.51053965  -0.00976202  1
  O  O410  1  0.62284767  0.50836724  0.50782367  1
  O  O411  1  0.41025153  0.36101009  0.11445378  1
  O  O412  1  0.37944573  0.36795998  0.61526399  1
  O  O413  1  0.38290014  0.86719324  0.11665795  1
  O  O414  1  0.37300978  0.86154647  0.62688764  1
  O  O415  1  0.88462566  0.37578497  0.11442207  1
  O  O416  1  0.87123040  0.36849936  0.61753222  1
  O  O417  1  0.85731844  0.87732807  0.12423569  1
  O  O418  1  0.87509390  0.86267735  0.61094936  1
  O  O419  1  0.12345139  0.13321465  0.38056671  1
  O  O420  1  0.13925610  0.12151341  0.87227358  1
  O  O421  1  0.13381703  0.63066047  0.38530921  1
  O  O422  1  0.12912613  0.63343327  0.87934596  1
  O  O423  1  0.63157224  0.13311693  0.38018089  1
  O  O424  1  0.63298535  0.12043137  0.88573606  1
  O  O425  1  0.61689255  0.63732448  0.38631970  1
  O  O426  1  0.63584259  0.63319234  0.88298479  1
