# generated using pymatgen
data_V85Zn86O256
_symmetry_space_group_name_H-M   'P 1'
_cell_length_a   16.91753613
_cell_length_b   16.91975816
_cell_length_c   16.91716336
_cell_angle_alpha   89.97866380
_cell_angle_beta   90.00851761
_cell_angle_gamma   89.94541806
_symmetry_Int_Tables_number   1
_chemical_formula_structural   V85Zn86O256
_chemical_formula_sum   'V85 Zn86 O256'
_cell_volume   4842.37674433
_cell_formula_units_Z   1
loop_
 _symmetry_equiv_pos_site_id
 _symmetry_equiv_pos_as_xyz
  1  'x, y, z'
loop_
 _atom_site_type_symbol
 _atom_site_label
 _atom_site_symmetry_multiplicity
 _atom_site_fract_x
 _atom_site_fract_y
 _atom_site_fract_z
 _atom_site_occupancy
  V  V0  1  0.13928908  0.24689529  0.86992633  1
  V  V1  1  0.62385796  0.12603734  0.50097010  1
  V  V2  1  0.75268719  0.00327254  0.76007107  1
  V  V3  1  0.87612498  0.13390636  0.75826776  1
  V  V4  1  0.13702001  0.49853184  0.62714737  1
  V  V5  1  0.87694655  0.00243929  0.37596263  1
  V  V6  1  0.00375574  0.37248582  0.36459005  1
  V  V7  1  0.50315038  0.36893245  0.87714487  1
  V  V8  1  0.87242532  0.62485702  0.25383035  1
  V  V9  1  -0.00047425  0.36561045  0.86341045  1
  V  V10  1  0.49724616  0.62474922  0.62399020  1
  V  V11  1  0.12872561  0.12611750  0.49810243  1
  V  V12  1  0.50176262  -0.00198570  -0.00010881  1
  V  V13  1  0.24877630  0.25738000  0.50423088  1
  V  V14  1  0.50685084  0.86774959  0.37679120  1
  V  V15  1  0.00027451  0.87802027  0.37534512  1
  V  V16  1  0.49180126  0.62659494  0.12460772  1
  V  V17  1  0.12877073  0.74814803  0.37362475  1
  V  V18  1  0.63116392  0.12445208  -0.01535758  1
  V  V19  1  0.13948168  0.37807824  0.74607312  1
  V  V20  1  0.00136193  0.00136964  0.50127056  1
  V  V21  1  0.87565221  0.37847542  0.49321726  1
  V  V22  1  0.13987886  0.13270673  0.00094017  1
  V  V23  1  0.62180716  0.63591833  0.49501131  1
  V  V24  1  0.38167700  0.12417958  0.24957369  1
  V  V25  1  -0.00722495  0.62801356  0.12246148  1
  V  V26  1  0.87306340  0.74169842  0.62833684  1
  V  V27  1  0.25182631  0.87122520  0.12355040  1
  V  V28  1  0.87294937  0.50823787  0.86672503  1
  V  V29  1  0.37373780  0.37811416  0.50343643  1
  V  V30  1  0.88292199  0.86598800  0.00133307  1
  V  V31  1  0.75125726  0.87549981  0.62728842  1
  V  V32  1  0.50248317  0.87026414  0.87710889  1
  V  V33  1  0.37311122  0.24759718  0.11116856  1
  V  V34  1  0.62088737  0.25993136  0.37394827  1
  V  V35  1  0.49739705  0.12792422  0.62688623  1
  V  V36  1  0.25381046  -0.00332242  0.24761430  1
  V  V37  1  0.62544297  0.00142877  0.62714317  1
  V  V38  1  0.75069766  0.25090324  0.49965055  1
  V  V39  1  0.37155724  0.49790850  0.86904642  1
  V  V40  1  0.13117867  -0.00510719  0.62568582  1
  V  V41  1  0.00107546  0.00795407  -0.01032517  1
  V  V42  1  0.12415232  0.87295387  0.74942875  1
  V  V43  1  0.74603193  0.62976018  0.37305342  1
  V  V44  1  0.75142245  0.37560152  0.62383019  1
  V  V45  1  -0.00666107  0.75272604  0.24581781  1
  V  V46  1  -0.00434657  0.50118844  0.49811322  1
  V  V47  1  0.35613048  0.50009297  0.37109119  1
  V  V48  1  0.24857060  0.74798517  0.50063682  1
  V  V49  1  0.87495759  0.87513590  0.50269144  1
  V  V50  1  0.49649621  0.49507589  0.00604028  1
  V  V51  1  -0.00516853  0.74749189  0.75306187  1
  V  V52  1  0.12673058  0.49709271  0.14454413  1
  V  V53  1  0.87542665  0.37270600  -0.00119495  1
  V  V54  1  0.24702001  0.62010056  0.86806492  1
  V  V55  1  0.49818574  0.25882314  0.25127245  1
  V  V56  1  0.62494224  0.36829755  0.75305390  1
  V  V57  1  0.49846989  0.74688507  0.75478583  1
  V  V58  1  0.12457038  0.87766608  0.24938352  1
  V  V59  1  0.74687147  0.37041384  0.12590395  1
  V  V60  1  0.50115768  0.49685676  0.48578722  1
  V  V61  1  0.12465334  0.62419622  0.49857137  1
  V  V62  1  0.88153881  0.12903754  0.24527853  1
  V  V63  1  0.37690746  0.86855439  0.00510249  1
  V  V64  1  0.36982950  0.87520038  0.50345626  1
  V  V65  1  0.36863257  0.12665499  0.75538843  1
  V  V66  1  0.75267134  0.49711278  0.25397536  1
  V  V67  1  0.62899421  -0.00333683  0.12315219  1
  V  V68  1  0.24888344  -0.00123188  0.75642460  1
  V  V69  1  0.00281095  0.49795622  -0.00178540  1
  V  V70  1  0.74692441  0.24634845  -0.01216658  1
  V  V71  1  0.74861891  -0.00044320  0.24935904  1
  V  V72  1  0.74910273  0.12653451  0.37535746  1
  V  V73  1  0.62629128  0.62837067  -0.00680453  1
  V  V74  1  0.00000039  0.13208004  0.62793526  1
  V  V75  1  0.25247780  0.74605003  0.00233050  1
  V  V76  1  0.88820756  0.24853898  0.12580543  1
  V  V77  1  0.36722398  0.75406941  0.62948697  1
  V  V78  1  0.11992186  0.00423864  0.12291685  1
  V  V79  1  0.37668693  -0.00180432  0.37531312  1
  V  V80  1  0.62708308  0.86944016  0.75446638  1
  V  V81  1  0.36189879  0.63024373  0.25373850  1
  V  V82  1  0.12044865  0.75428657  0.87770933  1
  V  V83  1  0.62106762  0.49977647  0.62460249  1
  V  V84  1  0.50654677  0.74607172  0.25055557  1
  Zn  Zn85  1  0.76119336  0.86638634  0.12877796  1
  Zn  Zn86  1  0.25365387  0.13012946  0.37516820  1
  Zn  Zn87  1  0.12479391  0.62395700  0.00189340  1
  Zn  Zn88  1  0.12935234  0.26137393  0.36147755  1
  Zn  Zn89  1  0.35919391  0.37017542  -0.00519040  1
  Zn  Zn90  1  0.50590443  0.12373793  0.12355655  1
  Zn  Zn91  1  0.36869723  0.00194518  0.87924759  1
  Zn  Zn92  1  0.74487110  0.64376023  0.85999109  1
  Zn  Zn93  1  0.74603232  0.75422849  0.49514740  1
  Zn  Zn94  1  0.62336461  0.49756177  0.12482479  1
  Zn  Zn95  1  0.61762011  0.38000151  0.25070144  1
  Zn  Zn96  1  0.49885656  -0.00081063  0.50172526  1
  Zn  Zn97  1  0.62951140  0.86810555  0.25296045  1
  Zn  Zn98  1  0.36882871  0.61931878  0.74647574  1
  Zn  Zn99  1  0.50218603  0.24683024  0.75389185  1
  Zn  Zn100  1  0.37070837  0.25768929  0.62867209  1
  Zn  Zn101  1  -0.00391758  0.62064268  0.62977042  1
  Zn  Zn102  1  0.75456850  0.50463215  0.74668286  1
  Zn  Zn103  1  0.23846806  0.37089651  0.13002626  1
  Zn  Zn104  1  0.88193234  0.25422599  0.62758804  1
  Zn  Zn105  1  0.75267872  0.74930843  0.00406455  1
  Zn  Zn106  1  0.87738771  -0.00001915  0.87550944  1
  Zn  Zn107  1  0.19546888  0.18652140  0.18656239  1
  Zn  Zn108  1  0.18830226  0.18837613  0.68671608  1
  Zn  Zn109  1  0.18023078  0.68588778  0.18347361  1
  Zn  Zn110  1  0.18444760  0.68712186  0.68613137  1
  Zn  Zn111  1  0.68781163  0.18642508  0.18358750  1
  Zn  Zn112  1  0.69122904  0.18808508  0.68977960  1
  Zn  Zn113  1  0.68383431  0.68558202  0.17911116  1
  Zn  Zn114  1  0.68714754  0.68711035  0.68571983  1
  Zn  Zn115  1  0.30824058  0.31517636  0.31324803  1
  Zn  Zn116  1  0.31549242  0.31294907  0.81181222  1
  Zn  Zn117  1  0.31507181  0.80893054  0.31332857  1
  Zn  Zn118  1  0.30915852  0.81511701  0.81589899  1
  Zn  Zn119  1  0.81557722  0.31198849  0.31246692  1
  Zn  Zn120  1  0.81220427  0.31720868  0.81046619  1
  Zn  Zn121  1  0.81231346  0.81179207  0.31341172  1
  Zn  Zn122  1  0.81739869  0.81435941  0.82262576  1
  Zn  Zn123  1  0.18432904  0.43693271  0.43692466  1
  Zn  Zn124  1  0.18825267  0.43436397  0.94195888  1
  Zn  Zn125  1  0.19004440  0.93764635  0.43747924  1
  Zn  Zn126  1  0.18538074  0.93582386  0.93686657  1
  Zn  Zn127  1  0.68945909  0.44321689  0.43574151  1
  Zn  Zn128  1  0.68655471  0.43927311  0.93992951  1
  Zn  Zn129  1  0.68751096  0.93949900  0.43911270  1
  Zn  Zn130  1  0.69176707  0.92846066  0.93875094  1
  Zn  Zn131  1  0.31415916  0.06108125  0.06298959  1
  Zn  Zn132  1  0.31086186  0.06397135  0.56662478  1
  Zn  Zn133  1  0.31093978  0.55892383  0.06149148  1
  Zn  Zn134  1  0.31242861  0.56606063  0.55842770  1
  Zn  Zn135  1  0.81236318  0.06308737  0.06260430  1
  Zn  Zn136  1  0.81319174  0.06352915  0.56827428  1
  Zn  Zn137  1  0.81253531  0.55945744  0.06317190  1
  Zn  Zn138  1  0.80886748  0.56249514  0.55915294  1
  Zn  Zn139  1  0.39856987  0.42156212  0.20229476  1
  Zn  Zn140  1  0.43874690  0.43701265  0.68681663  1
  Zn  Zn141  1  0.44159408  0.93208255  0.18637963  1
  Zn  Zn142  1  0.43617960  0.93915064  0.68821754  1
  Zn  Zn143  1  0.93355279  0.44097212  0.18449897  1
  Zn  Zn144  1  0.94237104  0.43808353  0.68427507  1
  Zn  Zn145  1  0.93953168  0.94423705  0.18423803  1
  Zn  Zn146  1  0.94120844  0.93800514  0.69025591  1
  Zn  Zn147  1  0.08377022  0.09875179  0.29024418  1
  Zn  Zn148  1  0.06369999  0.06828429  0.81119348  1
  Zn  Zn149  1  0.05598684  0.56366256  0.31860908  1
  Zn  Zn150  1  0.06241887  0.56298977  0.81225497  1
  Zn  Zn151  1  0.56279456  0.06160074  0.31466756  1
  Zn  Zn152  1  0.55938725  0.05823694  0.81196309  1
  Zn  Zn153  1  0.56447040  0.56372468  0.30857018  1
  Zn  Zn154  1  0.56051202  0.55699343  0.81303531  1
  Zn  Zn155  1  0.43748278  0.19014504  0.43840436  1
  Zn  Zn156  1  0.44474014  0.18177548  0.93333584  1
  Zn  Zn157  1  0.43471317  0.68574048  0.43433240  1
  Zn  Zn158  1  0.43511864  0.68348980  0.93684032  1
  Zn  Zn159  1  0.93901884  0.19128920  0.43723873  1
  Zn  Zn160  1  0.94303055  0.18764743  0.94164820  1
  Zn  Zn161  1  0.93673160  0.68863610  0.43649793  1
  Zn  Zn162  1  0.93815386  0.68705144  0.93452406  1
  Zn  Zn163  1  0.06830671  0.31626386  0.05889741  1
  Zn  Zn164  1  0.06547743  0.31381658  0.56047334  1
  Zn  Zn165  1  0.05977468  0.81612055  0.06099445  1
  Zn  Zn166  1  0.06008350  0.81253188  0.56683980  1
  Zn  Zn167  1  0.56165395  0.30866967  0.06409044  1
  Zn  Zn168  1  0.55867211  0.31386702  0.56108976  1
  Zn  Zn169  1  0.56488836  0.80756193  0.06969931  1
  Zn  Zn170  1  0.55703011  0.81440407  0.56769351  1
  O  O171  1  0.13455496  0.11891046  0.10866581  1
  O  O172  1  0.11927318  0.11843229  0.61748416  1
  O  O173  1  0.10914692  0.61566371  0.12393713  1
  O  O174  1  0.12172022  0.62031339  0.61412825  1
  O  O175  1  0.62603759  0.11012158  0.11875839  1
  O  O176  1  0.61927467  0.12122244  0.62285573  1
  O  O177  1  0.60826704  0.61753595  0.11677307  1
  O  O178  1  0.61791396  0.61713282  0.61567101  1
  O  O179  1  0.37228108  0.39369455  0.38506992  1
  O  O180  1  0.38247338  0.38012001  0.87796174  1
  O  O181  1  0.38294238  0.87947198  0.38218178  1
  O  O182  1  0.38555821  0.87632291  0.88502043  1
  O  O183  1  0.88084504  0.37247060  0.38772761  1
  O  O184  1  0.88633632  0.37874378  0.87787286  1
  O  O185  1  0.87962468  0.88045067  0.38300377  1
  O  O186  1  0.87939781  0.88412095  0.89411156  1
  O  O187  1  0.26435909  -0.00422823  0.36776006  1
  O  O188  1  0.24914789  -0.00412900  0.86175120  1
  O  O189  1  0.25771347  0.50516221  0.37753129  1
  O  O190  1  0.25649442  0.50895954  0.88040026  1
  O  O191  1  0.75587025  0.00632326  0.36971504  1
  O  O192  1  0.75002312  -0.00293576  0.86267305  1
  O  O193  1  0.74832551  0.51322503  0.36602101  1
  O  O194  1  0.76847841  0.49289203  0.87542935  1
  O  O195  1  0.22659798  0.50953172  0.12296873  1
  O  O196  1  0.23667826  0.50612361  0.62006410  1
  O  O197  1  0.24394426  0.99175464  0.12855054  1
  O  O198  1  0.23742655  1.00289459  0.63478246  1
  O  O199  1  0.75025728  0.48600426  0.13081136  1
  O  O200  1  0.74038889  0.48989554  0.62115456  1
  O  O201  1  0.74485987  0.99785081  0.13403964  1
  O  O202  1  0.74474277  0.99387338  0.63528482  1
  O  O203  1  -0.01296684  0.38207474  0.26716627  1
  O  O204  1  0.00603439  0.37532504  0.76091362  1
  O  O205  1  0.00470758  0.87071356  0.25278820  1
  O  O206  1  0.01370835  0.86558204  0.74630112  1
  O  O207  1  0.49589994  0.36196557  0.24831097  1
  O  O208  1  0.50745832  0.37278057  0.75668311  1
  O  O209  1  0.50001278  0.86424525  0.25876919  1
  O  O210  1  0.50494273  0.87030246  0.75813824  1
  O  O211  1  0.49203504  0.12651043  0.24894677  1
  O  O212  1  0.49479298  0.12547280  0.74310260  1
  O  O213  1  0.49481827  0.62987179  0.24317273  1
  O  O214  1  0.49885487  0.63252511  0.74452974  1
  O  O215  1  0.97812390  0.11019199  0.25058000  1
  O  O216  1  0.98729597  0.12017014  0.74136905  1
  O  O217  1  0.99099173  0.63228805  0.24704169  1
  O  O218  1  1.00547995  0.64096147  0.74704677  1
  O  O219  1  0.37899629  0.23854490  0.00938531  1
  O  O220  1  0.36940402  0.26177797  0.49910037  1
  O  O221  1  0.36584999  0.75668418  -0.00417908  1
  O  O222  1  0.36697044  0.75416285  0.50552461  1
  O  O223  1  0.86854836  0.25239505  0.00643498  1
  O  O224  1  0.86743545  0.25775717  0.50419642  1
  O  O225  1  0.88741946  0.76404860  0.00362245  1
  O  O226  1  0.87471103  0.75957109  0.50810109  1
  O  O227  1  0.13168602  0.24225007  0.49526460  1
  O  O228  1  0.12486660  0.23892408  0.99114348  1
  O  O229  1  0.12930993  0.74651015  0.49627611  1
  O  O230  1  0.12918007  0.74948345  0.99248564  1
  O  O231  1  0.62880047  0.24625165  0.49257133  1
  O  O232  1  0.63419865  0.23617988  1.00694785  1
  O  O233  1  0.62288691  0.73901909  0.50765010  1
  O  O234  1  0.61702431  0.73060232  1.00134761  1
  O  O235  1  0.49418789  0.24145777  0.13440962  1
  O  O236  1  0.49807514  0.23791894  0.62606225  1
  O  O237  1  0.49656344  0.73942275  0.13512950  1
  O  O238  1  0.48840024  0.74625988  0.63520536  1
  O  O239  1  0.98738065  0.25567289  0.11706527  1
  O  O240  1  1.00223806  0.23632864  0.61980358  1
  O  O241  1  1.00788453  0.74142713  0.13517560  1
  O  O242  1  0.98975253  0.74821260  0.63253853  1
  O  O243  1  0.00210859  0.26819719  0.38054565  1
  O  O244  1  0.00951664  0.26339068  0.87977189  1
  O  O245  1  0.00908245  0.75776401  0.36922954  1
  O  O246  1  0.00839365  0.74775314  0.86737663  1
  O  O247  1  0.51037401  0.24313201  0.36542087  1
  O  O248  1  0.49978196  0.26423416  0.87488035  1
  O  O249  1  0.49610040  0.75782252  0.36839894  1
  O  O250  1  0.49409354  0.75389891  0.86242420  1
  O  O251  1  0.24493098  0.13206074  0.49951760  1
  O  O252  1  0.23787338  0.11537241  0.99266629  1
  O  O253  1  0.24167370  0.63967274  0.50022620  1
  O  O254  1  0.24808614  0.63215153  0.99245505  1
  O  O255  1  0.74513065  0.13085337  0.49733554  1
  O  O256  1  0.74375773  0.13309350  1.00133248  1
  O  O257  1  0.73981044  0.62674054  0.49145376  1
  O  O258  1  0.73267193  0.61868376  1.00293645  1
  O  O259  1  0.24807681  0.37700025  0.01499223  1
  O  O260  1  0.25679844  0.36890664  0.49652247  1
  O  O261  1  0.25850813  0.86838602  0.00189797  1
  O  O262  1  0.26118223  0.86459780  0.49631956  1
  O  O263  1  0.75393333  0.36901889  0.00797866  1
  O  O264  1  0.75650799  0.37347643  0.50396918  1
  O  O265  1  0.76966132  0.87956248  0.00530596  1
  O  O266  1  0.75613521  0.87504375  0.50685540  1
  O  O267  1  0.11986179  0.50614584  0.24295942  1
  O  O268  1  0.12013934  0.48754954  0.74307966  1
  O  O269  1  0.13233247  1.00096047  0.24080626  1
  O  O270  1  0.12833471  0.99487410  0.74546307  1
  O  O271  1  0.63663777  0.49812456  0.24636105  1
  O  O272  1  0.61921258  0.49072792  0.73426383  1
  O  O273  1  0.63266868  0.99913421  0.24394854  1
  O  O274  1  0.63058997  0.99088537  0.74572969  1
  O  O275  1  0.37636870  0.00201554  0.25609348  1
  O  O276  1  0.36457649  0.00401209  0.75068240  1
  O  O277  1  0.38208425  0.51550119  0.26665574  1
  O  O278  1  0.38030426  0.50036942  0.76373687  1
  O  O279  1  0.86571620  0.00701300  0.25426669  1
  O  O280  1  0.86878656  0.00715677  0.75212672  1
  O  O281  1  0.86189163  0.51002400  0.24660577  1
  O  O282  1  0.87790748  0.49625203  0.76300431  1
  O  O283  1  0.11038175  0.37704380  0.37300205  1
  O  O284  1  0.11843831  0.36957532  0.86529358  1
  O  O285  1  0.11975249  0.87097183  0.36889851  1
  O  O286  1  0.12823852  0.86163159  0.86827809  1
  O  O287  1  0.63007024  0.36332803  0.37303268  1
  O  O288  1  0.61687628  0.38661572  0.86346648  1
  O  O289  1  0.61078871  0.88114186  0.37570670  1
  O  O290  1  0.61252759  0.87614069  0.86880325  1
  O  O291  1  0.38039523  0.12944205  0.13165107  1
  O  O292  1  0.38343213  0.12446376  0.63483814  1
  O  O293  1  0.38274257  0.61577286  0.13895871  1
  O  O294  1  0.37973524  0.63341179  0.62646960  1
  O  O295  1  0.86866158  0.13313460  0.13746896  1
  O  O296  1  0.88447992  0.12710263  0.63327738  1
  O  O297  1  0.88497973  0.62002644  0.13513110  1
  O  O298  1  0.87259831  0.63840251  0.62033596  1
  O  O299  1  0.26995874  0.24748876  0.12756180  1
  O  O300  1  0.25194376  0.24674201  0.60993419  1
  O  O301  1  0.24048532  0.75478037  0.11036733  1
  O  O302  1  0.26004019  0.74826684  0.61893064  1
  O  O303  1  0.75727829  0.25988516  0.12204016  1
  O  O304  1  0.74856261  0.26333728  0.61839544  1
  O  O305  1  0.74516243  0.75409130  0.11780932  1
  O  O306  1  0.75636349  0.75919161  0.62299169  1
  O  O307  1  0.24818768  0.24908386  0.38495745  1
  O  O308  1  0.23759350  0.25574586  0.87696148  1
  O  O309  1  0.23557269  0.75602271  0.38190736  1
  O  O310  1  0.24316908  0.74417222  0.88505303  1
  O  O311  1  0.74293221  0.24461438  0.37943504  1
  O  O312  1  0.75259166  0.25853136  0.88881076  1
  O  O313  1  0.75138373  0.73682674  0.37602441  1
  O  O314  1  0.75519811  0.75109617  0.89007778  1
  O  O315  1  0.01551222  0.11417032  -0.00255773  1
  O  O316  1  0.00668767  0.11966730  0.50556535  1
  O  O317  1  -0.00255348  0.61773979  0.00799225  1
  O  O318  1  0.00498729  0.61872649  0.50153223  1
  O  O319  1  0.50998862  0.11257000  0.00040358  1
  O  O320  1  0.50479613  0.12292753  0.50843779  1
  O  O321  1  0.50220655  0.61703262  0.00542455  1
  O  O322  1  0.50464947  0.61962388  0.50364369  1
  O  O323  1  0.49185037  0.38633735  0.50041707  1
  O  O324  1  0.50316390  0.38106446  0.99257549  1
  O  O325  1  0.48902972  0.87456389  0.49393488  1
  O  O326  1  0.49642125  0.87497810  0.99584096  1
  O  O327  1  0.99297371  0.38200032  0.49689160  1
  O  O328  1  0.99655681  0.38134568  0.98886978  1
  O  O329  1  0.99457031  0.88120767  0.49698045  1
  O  O330  1  0.99380479  0.89287065  1.00498960  1
  O  O331  1  0.49810591  0.50496838  0.38429362  1
  O  O332  1  0.49154049  0.49168494  0.88416904  1
  O  O333  1  0.48979813  0.99200131  0.37762196  1
  O  O334  1  0.49918733  0.98892367  0.88643482  1
  O  O335  1  1.00145217  0.49039262  0.38977304  1
  O  O336  1  0.99127011  0.49335696  0.87906269  1
  O  O337  1  0.99229378  0.99398507  0.38367925  1
  O  O338  1  1.00578689  1.00143848  0.88705181  1
  O  O339  1  0.01590096  0.00228353  0.11686234  1
  O  O340  1  0.00958036  0.00896808  0.62040363  1
  O  O341  1  0.00496253  0.50600442  0.11772353  1
  O  O342  1  0.00914704  0.50172707  0.61458179  1
  O  O343  1  0.50772195  -0.00255694  0.11365070  1
  O  O344  1  0.50648874  0.01048862  0.62538974  1
  O  O345  1  0.49420684  0.50229853  0.11257096  1
  O  O346  1  0.50457203  0.50613153  0.61530681  1
  O  O347  1  0.28925701  0.38670437  0.23124192  1
  O  O348  1  0.23835033  0.37739355  0.75126949  1
  O  O349  1  0.24560438  0.87659615  0.24481430  1
  O  O350  1  0.23692649  0.88122185  0.75147285  1
  O  O351  1  0.75134052  0.38158382  0.24499319  1
  O  O352  1  0.74386918  0.38149741  0.74045775  1
  O  O353  1  0.74945034  0.88669172  0.25181672  1
  O  O354  1  0.74292383  0.88020701  0.74780513  1
  O  O355  1  0.26814946  0.11347796  0.25212844  1
  O  O356  1  0.25785140  0.11590356  0.74518104  1
  O  O357  1  0.26325414  0.63597787  0.24610377  1
  O  O358  1  0.24965477  0.63150730  0.76356644  1
  O  O359  1  0.75506164  0.11592592  0.25524992  1
  O  O360  1  0.76538445  0.11707122  0.74333231  1
  O  O361  1  0.75361355  0.62024660  0.25315821  1
  O  O362  1  0.73907409  0.61570532  0.75165336  1
  O  O363  1  0.37677781  0.11478566  0.36954666  1
  O  O364  1  0.38225630  0.11942323  0.86006042  1
  O  O365  1  0.37357626  0.61695958  0.36489388  1
  O  O366  1  0.36579888  0.61634988  0.87219605  1
  O  O367  1  0.86848021  0.12363612  0.36770940  1
  O  O368  1  0.88293126  0.12442364  0.86122726  1
  O  O369  1  0.86902461  0.62880644  0.36149102  1
  O  O370  1  0.87198504  0.61018732  0.87960555  1
  O  O371  1  0.11875733  0.39115832  0.13006321  1
  O  O372  1  0.12088605  0.38036096  0.63894668  1
  O  O373  1  0.13064587  0.88358435  0.13067739  1
  O  O374  1  0.12235679  0.88459452  0.63255329  1
  O  O375  1  0.63307585  0.37464610  0.12925208  1
  O  O376  1  0.63036677  0.38165552  0.62703698  1
  O  O377  1  0.62634309  0.88672159  0.12828733  1
  O  O378  1  0.62891770  0.88162965  0.63277644  1
  O  O379  1  0.12121224  0.20486836  0.26485473  1
  O  O380  1  0.12933466  0.25993587  0.76025506  1
  O  O381  1  0.11606415  0.75401287  0.25773513  1
  O  O382  1  0.12051537  0.75682539  0.75522619  1
  O  O383  1  0.61691649  0.24910370  0.25661973  1
  O  O384  1  0.62539655  0.26407582  0.74568525  1
  O  O385  1  0.61155327  0.74869368  0.24908698  1
  O  O386  1  0.61407161  0.76301625  0.74140243  1
  O  O387  1  0.38341318  0.23891494  0.24755503  1
  O  O388  1  0.37698956  0.24208182  0.74655967  1
  O  O389  1  0.38467868  0.73596025  0.25666070  1
  O  O390  1  0.37927175  0.75164163  0.74368588  1
  O  O391  1  0.87160487  0.23712537  0.24351936  1
  O  O392  1  0.86965492  0.23791801  0.74685634  1
  O  O393  1  0.88726181  0.74637957  0.25260466  1
  O  O394  1  0.88396077  0.76129231  0.74158523  1
  O  O395  1  0.38037486  0.50093632  0.48884135  1
  O  O396  1  0.38157728  0.49806495  0.98998965  1
  O  O397  1  0.37340394  0.99197017  0.49450798  1
  O  O398  1  0.38498362  0.99204116  0.99921087  1
  O  O399  1  0.88296619  0.49171055  0.50601134  1
  O  O400  1  0.88411891  0.49265763  0.99296671  1
  O  O401  1  0.87895331  0.99498028  0.49724866  1
  O  O402  1  0.89213078  1.00999105  0.99811985  1
  O  O403  1  0.11997819  0.00670125  0.00281347  1
  O  O404  1  0.12354287  0.00194291  0.50986684  1
  O  O405  1  0.10942807  0.50287752  -0.00270944  1
  O  O406  1  0.11948891  0.50786668  0.50523956  1
  O  O407  1  0.62243826  0.00169438  0.00484758  1
  O  O408  1  0.62354852  0.00738289  0.50949293  1
  O  O409  1  0.61385124  0.50675170  0.00289999  1
  O  O410  1  0.61767594  0.50490250  0.50723769  1
  O  O411  1  0.39114445  0.35195560  0.11016879  1
  O  O412  1  0.37734388  0.37824137  0.61010032  1
  O  O413  1  0.37012621  0.87673421  0.11272196  1
  O  O414  1  0.38079405  0.86704688  0.61518929  1
  O  O415  1  0.86902365  0.36812960  0.11820819  1
  O  O416  1  0.86778130  0.37445490  0.61822229  1
  O  O417  1  0.87789635  0.88717766  0.10844452  1
  O  O418  1  0.87048823  0.87146569  0.61980590  1
  O  O419  1  0.13232088  0.10821528  0.39503170  1
  O  O420  1  0.12310957  0.14141149  0.87877312  1
  O  O421  1  0.11803980  0.63458111  0.38824367  1
  O  O422  1  0.13042527  0.63397776  0.87743496  1
  O  O423  1  0.63118686  0.13038768  0.38186602  1
  O  O424  1  0.62325257  0.11957448  0.88495263  1
  O  O425  1  0.63123422  0.62174637  0.38471737  1
  O  O426  1  0.62312490  0.61674190  0.88966117  1
