# generated using pymatgen
data_V85Zn86O256
_symmetry_space_group_name_H-M   'P 1'
_cell_length_a   16.92124341
_cell_length_b   16.90942663
_cell_length_c   16.91592711
_cell_angle_alpha   90.00164199
_cell_angle_beta   89.94171010
_cell_angle_gamma   90.04123626
_symmetry_Int_Tables_number   1
_chemical_formula_structural   V85Zn86O256
_chemical_formula_sum   'V85 Zn86 O256'
_cell_volume   4840.12549227
_cell_formula_units_Z   1
loop_
 _symmetry_equiv_pos_site_id
 _symmetry_equiv_pos_as_xyz
  1  'x, y, z'
loop_
 _atom_site_type_symbol
 _atom_site_label
 _atom_site_symmetry_multiplicity
 _atom_site_fract_x
 _atom_site_fract_y
 _atom_site_fract_z
 _atom_site_occupancy
  V  V0  1  0.87435890  0.74560451  0.62522753  1
  V  V1  1  0.25074264  0.49705282  0.24244489  1
  V  V2  1  0.25101937  0.48735610  0.75363587  1
  V  V3  1  -0.00038363  0.38050377  0.86837423  1
  V  V4  1  0.62134847  0.00067401  0.62459048  1
  V  V5  1  0.37387988  0.00097478  0.37539343  1
  V  V6  1  0.32659695  0.18183001  0.19378617  1
  V  V7  1  0.87575302  0.63812883  0.24727156  1
  V  V8  1  0.24461846  0.87965400  0.62253011  1
  V  V9  1  0.62421927  0.50200767  0.12388010  1
  V  V10  1  -0.00911112  0.12142973  0.12836221  1
  V  V11  1  0.87444960  0.87610532  0.49736078  1
  V  V12  1  0.13092171  0.25858415  0.87969205  1
  V  V13  1  0.12306901  0.12252842  0.51881531  1
  V  V14  1  -0.00345706  0.63630774  0.12695348  1
  V  V15  1  0.25482855  0.62616339  0.86353209  1
  V  V16  1  -0.00688540  0.50055555  -0.00179078  1
  V  V17  1  0.12182707  0.75559064  0.87362300  1
  V  V18  1  0.36426861  0.36281312  0.01203702  1
  V  V19  1  0.87888198  0.00325514  0.36661203  1
  V  V20  1  0.86974966  0.37260455  -0.00486280  1
  V  V21  1  0.49892866  -0.00442175  0.00371004  1
  V  V22  1  0.12290532  -0.00306751  0.12549095  1
  V  V23  1  0.25290632  0.25818898  0.50147741  1
  V  V24  1  0.86908056  0.24971032  0.12142806  1
  V  V25  1  0.25376667  -0.00379171  0.24949523  1
  V  V26  1  0.75165413  0.74923284  0.00701855  1
  V  V27  1  0.87728806  0.37722476  0.50142102  1
  V  V28  1  0.12457353  0.37572186  0.24193766  1
  V  V29  1  0.37664266  0.75202898  0.11743047  1
  V  V30  1  0.50727629  0.11947487  0.13231389  1
  V  V31  1  0.36938770  0.86729867  0.49989842  1
  V  V32  1  0.62856322  0.12348424  0.00498903  1
  V  V33  1  0.00128484  -0.00190915  -0.00456111  1
  V  V34  1  0.25146700  0.12618993  0.88226467  1
  V  V35  1  0.12521625  0.62409160  -0.00153577  1
  V  V36  1  0.12092067  0.74729216  0.39008991  1
  V  V37  1  0.12119995  0.86088507  0.24880657  1
  V  V38  1  0.87746135  0.87182848  0.00267845  1
  V  V39  1  0.88125554  0.12488680  0.73976221  1
  V  V40  1  0.37671012  0.49892420  0.38768042  1
  V  V41  1  -0.00933939  0.24666836  0.25273611  1
  V  V42  1  0.74834407  0.73912993  0.49543425  1
  V  V43  1  0.74653028  0.87245919  0.62287038  1
  V  V44  1  0.00178964  0.37763906  0.37371659  1
  V  V45  1  0.49536188  0.73921778  0.74842867  1
  V  V46  1  0.24896299  0.12524261  0.37881481  1
  V  V47  1  0.38038480  0.25631444  0.62339677  1
  V  V48  1  0.62821571  0.74385958  0.37295025  1
  V  V49  1  0.37690267  0.12329711  0.74635009  1
  V  V50  1  0.25335079  0.75038771  -0.00306044  1
  V  V51  1  0.50083934  0.24910410  0.24814256  1
  V  V52  1  0.00154262  0.00210559  0.51037291  1
  V  V53  1  0.87819171  -0.00494817  0.87290171  1
  V  V54  1  0.74955807  0.00043430  0.74960555  1
  V  V55  1  0.49641953  0.37736694  0.38569876  1
  V  V56  1  0.75909646  0.62183081  0.87469998  1
  V  V57  1  0.49030892  0.87292056  0.87853349  1
  V  V58  1  0.74871939  0.88406196  0.12397523  1
  V  V59  1  0.61806242  0.49870206  0.62188644  1
  V  V60  1  0.62478867  0.88469626  0.24723506  1
  V  V61  1  0.87210275  0.50826786  0.37497331  1
  V  V62  1  0.62636874  0.24945564  0.88100851  1
  V  V63  1  -0.00076030  0.75330306  0.75292316  1
  V  V64  1  0.75706233  0.49709361  0.75084799  1
  V  V65  1  0.62657271  0.74892598  0.87529481  1
  V  V66  1  0.00779689  0.25031452  0.74390332  1
  V  V67  1  0.62213722  0.87406252  0.74939580  1
  V  V68  1  0.49968096  0.75244330  0.25004332  1
  V  V69  1  0.75131056  0.50608833  0.25268648  1
  V  V70  1  0.38009772  0.49962457  0.87487581  1
  V  V71  1  0.24751180  0.63101859  0.38484664  1
  V  V72  1  0.75394828  0.12492310  0.37077855  1
  V  V73  1  0.62486907  0.37678373  0.25105211  1
  V  V74  1  0.12191336  0.88407456  0.74865519  1
  V  V75  1  0.50442116  0.24459187  0.74815731  1
  V  V76  1  0.75206263  0.24942392  0.50143626  1
  V  V77  1  0.62082551  0.12510529  0.50403256  1
  V  V78  1  0.37275467  0.62418625  0.24800541  1
  V  V79  1  0.12576641  0.50072114  0.63147185  1
  V  V80  1  0.00947034  0.50997842  0.49857720  1
  V  V81  1  0.36930628  0.74446926  0.62744971  1
  V  V82  1  0.75411266  0.13045611  0.87836054  1
  V  V83  1  0.25363977  0.87439468  0.11739025  1
  V  V84  1  0.49567627  0.00179626  0.50661895  1
  Zn  Zn85  1  0.75022345  0.37440592  0.62678773  1
  Zn  Zn86  1  0.25047934  0.37558947  0.62424889  1
  Zn  Zn87  1  0.88319714  0.24776355  0.62205675  1
  Zn  Zn88  1  0.88113371  0.62003681  0.75196507  1
  Zn  Zn89  1  0.12786080  0.12897293  0.00161105  1
  Zn  Zn90  1  -0.00168542  0.87242791  0.37038556  1
  Zn  Zn91  1  0.49835850  0.37094056  0.88038005  1
  Zn  Zn92  1  0.49118842  0.61654224  0.61847566  1
  Zn  Zn93  1  0.01126301  0.63128253  0.62121097  1
  Zn  Zn94  1  0.62328384  0.25079920  0.37804475  1
  Zn  Zn95  1  0.24716851  0.00351127  0.74896088  1
  Zn  Zn96  1  0.61817829  0.61684663  0.49384395  1
  Zn  Zn97  1  0.50102152  0.62417549  0.12209059  1
  Zn  Zn98  1  0.37347186  -0.00176849  0.87519003  1
  Zn  Zn99  1  0.62428008  0.62199003  -0.00063159  1
  Zn  Zn100  1  0.49966665  0.49708869  -0.00014246  1
  Zn  Zn101  1  0.62694823  0.37332256  0.75201519  1
  Zn  Zn102  1  0.74862723  0.37181608  0.12172821  1
  Zn  Zn103  1  0.50018615  0.87626123  0.37626599  1
  Zn  Zn104  1  0.12593563  0.49729103  0.12098923  1
  Zn  Zn105  1  0.75081731  0.00716517  0.24535717  1
  Zn  Zn106  1  0.12274434  0.24893098  0.37819187  1
  Zn  Zn107  1  0.16365700  0.18520040  0.19073348  1
  Zn  Zn108  1  0.19283543  0.19245979  0.69404080  1
  Zn  Zn109  1  0.18775830  0.68381496  0.18587808  1
  Zn  Zn110  1  0.18708931  0.68830941  0.68374552  1
  Zn  Zn111  1  0.68536985  0.18929390  0.18856592  1
  Zn  Zn112  1  0.69075287  0.18675950  0.68686818  1
  Zn  Zn113  1  0.68917478  0.68857387  0.18733726  1
  Zn  Zn114  1  0.68620258  0.68184488  0.68773088  1
  Zn  Zn115  1  0.30823529  0.31977548  0.31917904  1
  Zn  Zn116  1  0.31721116  0.31208003  0.81765361  1
  Zn  Zn117  1  0.31018185  0.81189517  0.31153675  1
  Zn  Zn118  1  0.30972002  0.81328733  0.80696033  1
  Zn  Zn119  1  0.81214219  0.31651347  0.31445673  1
  Zn  Zn120  1  0.81675148  0.31137360  0.81100610  1
  Zn  Zn121  1  0.80929535  0.81646108  0.31317017  1
  Zn  Zn122  1  0.81194110  0.81215339  0.81340157  1
  Zn  Zn123  1  0.18626842  0.44123113  0.43293182  1
  Zn  Zn124  1  0.18961355  0.43700176  0.94077401  1
  Zn  Zn125  1  0.18464210  0.93709902  0.43912240  1
  Zn  Zn126  1  0.18779708  0.93914194  0.93472335  1
  Zn  Zn127  1  0.68845740  0.43743326  0.43683581  1
  Zn  Zn128  1  0.68974927  0.43742883  0.93662189  1
  Zn  Zn129  1  0.68735990  0.93502999  0.43418965  1
  Zn  Zn130  1  0.68507107  0.93984226  0.93749211  1
  Zn  Zn131  1  0.31514591  0.05690297  0.05599667  1
  Zn  Zn132  1  0.31160033  0.06383763  0.56626254  1
  Zn  Zn133  1  0.31363445  0.56116391  0.05795951  1
  Zn  Zn134  1  0.30724344  0.56387136  0.56543131  1
  Zn  Zn135  1  0.81368361  0.06231976  0.06031074  1
  Zn  Zn136  1  0.81164790  0.06016481  0.55893803  1
  Zn  Zn137  1  0.81268545  0.56067436  0.06429295  1
  Zn  Zn138  1  0.81016836  0.56091453  0.56499394  1
  Zn  Zn139  1  0.43701159  0.43480062  0.18818426  1
  Zn  Zn140  1  0.43830630  0.43136237  0.69579711  1
  Zn  Zn141  1  0.43653565  0.93794172  0.18624566  1
  Zn  Zn142  1  0.43507172  0.93414435  0.68814035  1
  Zn  Zn143  1  0.93810755  0.44053449  0.18354332  1
  Zn  Zn144  1  0.94048653  0.43776092  0.68596997  1
  Zn  Zn145  1  0.93548863  0.93149687  0.18658321  1
  Zn  Zn146  1  0.93702180  0.93298305  0.68698088  1
  Zn  Zn147  1  0.06374420  0.05989967  0.31398238  1
  Zn  Zn148  1  0.06265445  0.06870747  0.81506860  1
  Zn  Zn149  1  0.06295010  0.56580741  0.30942129  1
  Zn  Zn150  1  0.06402103  0.56553117  0.81115500  1
  Zn  Zn151  1  0.56224118  0.06395649  0.31957857  1
  Zn  Zn152  1  0.56135662  0.06309043  0.81544282  1
  Zn  Zn153  1  0.55800508  0.56280388  0.31193106  1
  Zn  Zn154  1  0.56760827  0.56077919  0.80987879  1
  Zn  Zn155  1  0.43589908  0.18702710  0.43674932  1
  Zn  Zn156  1  0.43842340  0.18673878  0.94086930  1
  Zn  Zn157  1  0.43887824  0.68546153  0.43831500  1
  Zn  Zn158  1  0.44014440  0.68132888  0.93782348  1
  Zn  Zn159  1  0.93938147  0.18534279  0.43912064  1
  Zn  Zn160  1  0.94157606  0.18816006  0.93517262  1
  Zn  Zn161  1  0.93767981  0.68880071  0.43515454  1
  Zn  Zn162  1  0.93864679  0.68983377  0.93827508  1
  Zn  Zn163  1  0.05704276  0.31224135  0.06029890  1
  Zn  Zn164  1  0.06755531  0.31747743  0.56248184  1
  Zn  Zn165  1  0.06340093  0.81371398  0.05913970  1
  Zn  Zn166  1  0.06006452  0.81775771  0.56363767  1
  Zn  Zn167  1  0.55503467  0.31157557  0.06312657  1
  Zn  Zn168  1  0.56431683  0.31235405  0.56705242  1
  Zn  Zn169  1  0.56587771  0.81259201  0.06347057  1
  Zn  Zn170  1  0.55763103  0.80854046  0.55991583  1
  O  O171  1  0.11111457  0.11513366  0.12013674  1
  O  O172  1  0.13196708  0.12461807  0.61688113  1
  O  O173  1  0.11433769  0.62444250  0.11771953  1
  O  O174  1  0.12863202  0.60991633  0.62286764  1
  O  O175  1  0.61878331  0.12600638  0.11885960  1
  O  O176  1  0.63288313  0.11672238  0.61206636  1
  O  O177  1  0.62480295  0.61627378  0.12481988  1
  O  O178  1  0.62359389  0.60912586  0.62460280  1
  O  O179  1  0.38064044  0.39052824  0.37229481  1
  O  O180  1  0.37670416  0.38351005  0.88404079  1
  O  O181  1  0.37157421  0.88171339  0.38296546  1
  O  O182  1  0.38737693  0.87229977  0.87263897  1
  O  O183  1  0.88173865  0.38612916  0.38296370  1
  O  O184  1  0.88706070  0.36799048  0.88369102  1
  O  O185  1  0.87629664  0.88275164  0.38077861  1
  O  O186  1  0.86793755  0.88892225  0.88097979  1
  O  O187  1  0.25176529  0.00486972  0.36697610  1
  O  O188  1  0.25310327  0.00912091  0.87162200  1
  O  O189  1  0.25706658  0.51032522  0.36577706  1
  O  O190  1  0.25343722  0.50737252  0.86897628  1
  O  O191  1  0.75899441  0.00809667  0.37631933  1
  O  O192  1  0.75571958  0.00847017  0.86848994  1
  O  O193  1  0.76031992  0.49822157  0.36697741  1
  O  O194  1  0.74391265  0.51083722  0.86561052  1
  O  O195  1  0.24651718  0.50948959  0.13854490  1
  O  O196  1  0.24490821  0.49818890  0.63484396  1
  O  O197  1  0.24793949  0.99250589  0.12918831  1
  O  O198  1  0.25476718  0.98586918  0.63011581  1
  O  O199  1  0.74093664  0.49564495  0.13302272  1
  O  O200  1  0.74233574  0.49772399  0.63380318  1
  O  O201  1  0.75246203  0.98971476  0.12629165  1
  O  O202  1  0.74425288  0.99244730  0.62961947  1
  O  O203  1  0.00336466  0.37179817  0.25584123  1
  O  O204  1  -0.00536439  0.36839865  0.76094490  1
  O  O205  1  0.01565820  0.88151150  0.25187526  1
  O  O206  1  0.00644976  0.86289268  0.74610164  1
  O  O207  1  0.50604345  0.36780021  0.25666128  1
  O  O208  1  0.50484071  0.35840483  0.75880490  1
  O  O209  1  0.50673774  0.86918148  0.25004093  1
  O  O210  1  0.50656881  0.86838530  0.75910615  1
  O  O211  1  0.50615858  0.13080534  0.24379443  1
  O  O212  1  0.49267648  0.13448739  0.75521833  1
  O  O213  1  0.48715534  0.63324003  0.24857654  1
  O  O214  1  0.50384062  0.63703469  0.74628861  1
  O  O215  1  1.00479922  0.13383333  0.24197011  1
  O  O216  1  0.99188310  0.13551132  0.75464635  1
  O  O217  1  0.99318021  0.62074617  0.23467993  1
  O  O218  1  0.99938515  0.63787692  0.74568860  1
  O  O219  1  0.37719387  0.26262493  -0.00086958  1
  O  O220  1  0.36505959  0.23975438  0.51101967  1
  O  O221  1  0.37313683  0.74610963  0.01139993  1
  O  O222  1  0.37767460  0.76253384  0.50589030  1
  O  O223  1  0.88476436  0.25854872  0.00941051  1
  O  O224  1  0.87146581  0.25793699  0.50099579  1
  O  O225  1  0.86753884  0.76451480  -0.00897681  1
  O  O226  1  0.86778947  0.75423693  0.50406231  1
  O  O227  1  0.13105272  0.23817811  0.49999516  1
  O  O228  1  0.11692010  0.24757268  0.98488279  1
  O  O229  1  0.12456030  0.75275706  0.48880488  1
  O  O230  1  0.13027313  0.74609560  0.99101400  1
  O  O231  1  0.63332901  0.24234937  0.50020594  1
  O  O232  1  0.62002120  0.23634153  0.99451141  1
  O  O233  1  0.63276737  0.75314549  0.49027871  1
  O  O234  1  0.63378160  0.74871951  0.99149669  1
  O  O235  1  0.50201208  0.23962272  0.14026863  1
  O  O236  1  0.49398270  0.24965726  0.63391796  1
  O  O237  1  0.49357058  0.75082806  0.13395521  1
  O  O238  1  0.48985335  0.75320836  0.63504595  1
  O  O239  1  0.99250370  0.24123912  0.13204732  1
  O  O240  1  1.00299172  0.25810333  0.63864899  1
  O  O241  1  1.00082402  0.73556469  0.11727198  1
  O  O242  1  0.99131472  0.74965926  0.62965603  1
  O  O243  1  -0.00186998  0.25733373  0.36878361  1
  O  O244  1  0.00963764  0.25731613  0.86692536  1
  O  O245  1  0.01614976  0.75016713  0.37590881  1
  O  O246  1  0.00982879  0.74772457  0.86717913  1
  O  O247  1  0.49873508  0.25465810  0.36441183  1
  O  O248  1  0.51204017  0.24550893  0.86978189  1
  O  O249  1  0.50252396  0.75400005  0.36180831  1
  O  O250  1  0.50710196  0.75356737  0.86992328  1
  O  O251  1  0.23921163  0.12835804  0.49561059  1
  O  O252  1  0.24986530  0.12169383  0.98778964  1
  O  O253  1  0.25016941  0.62330016  0.48319980  1
  O  O254  1  0.24308487  0.63146858  0.99215247  1
  O  O255  1  0.74525222  0.13138248  0.49279190  1
  O  O256  1  0.74252123  0.11901650  0.99073331  1
  O  O257  1  0.74548413  0.63655665  0.50197168  1
  O  O258  1  0.75065425  0.63252741  0.99427478  1
  O  O259  1  0.26342082  0.37678354  0.00057639  1
  O  O260  1  0.24535678  0.36088340  0.49519407  1
  O  O261  1  0.24551853  0.86947408  0.01047356  1
  O  O262  1  0.25738882  0.88013914  0.50791052  1
  O  O263  1  0.76559196  0.37807466  0.00092727  1
  O  O264  1  0.75948801  0.36622184  0.49779951  1
  O  O265  1  0.75417785  0.87127322  0.00513453  1
  O  O266  1  0.75530670  0.86827012  0.50515678  1
  O  O267  1  0.13216586  0.49337190  0.24925585  1
  O  O268  1  0.13188603  0.50221861  0.73983525  1
  O  O269  1  0.13725213  0.99402168  0.24457132  1
  O  O270  1  0.11954770  0.98699560  0.75697483  1
  O  O271  1  0.63240456  0.49642371  0.24775257  1
  O  O272  1  0.63649414  0.49659872  0.74141102  1
  O  O273  1  0.62681427  0.98761283  0.25869678  1
  O  O274  1  0.62827000  0.99578414  0.74490909  1
  O  O275  1  0.36181389  -0.00627508  0.25673336  1
  O  O276  1  0.37721748  0.00945039  0.75358924  1
  O  O277  1  0.36911363  0.50800072  0.25523595  1
  O  O278  1  0.36628091  0.49571111  0.76311560  1
  O  O279  1  0.87313698  -0.00459074  0.26272657  1
  O  O280  1  0.87296082  0.00421569  0.75591322  1
  O  O281  1  0.86861915  0.50441101  0.25609788  1
  O  O282  1  0.86300194  0.50253351  0.74271857  1
  O  O283  1  0.11627380  0.37390334  0.36586415  1
  O  O284  1  0.11817803  0.36497266  0.87901903  1
  O  O285  1  0.12907305  0.86069160  0.36840763  1
  O  O286  1  0.13143010  0.86227126  0.86710152  1
  O  O287  1  0.61754225  0.37674763  0.36530527  1
  O  O288  1  0.62852525  0.35844637  0.87745123  1
  O  O289  1  0.62311556  0.86414837  0.36550902  1
  O  O290  1  0.62133690  0.86396685  0.86971014  1
  O  O291  1  0.38195933  0.12299906  0.12914971  1
  O  O292  1  0.36800408  0.13506266  0.63995737  1
  O  O293  1  0.37469666  0.63287661  0.13220594  1
  O  O294  1  0.37150327  0.63939658  0.62210218  1
  O  O295  1  0.88343924  0.13098096  0.12219688  1
  O  O296  1  0.87153370  0.12338083  0.63645013  1
  O  O297  1  0.88707056  0.62208408  0.13126488  1
  O  O298  1  0.87449304  0.63803337  0.62574094  1
  O  O299  1  0.25989825  0.23248340  0.14165673  1
  O  O300  1  0.25677248  0.25376243  0.61889851  1
  O  O301  1  0.25667126  0.75516444  0.11879695  1
  O  O302  1  0.25835248  0.76315751  0.63242816  1
  O  O303  1  0.76500043  0.25078795  0.13180388  1
  O  O304  1  0.75524469  0.25108248  0.61260396  1
  O  O305  1  0.74671019  0.75823891  0.11124548  1
  O  O306  1  0.75386078  0.75368057  0.61904366  1
  O  O307  1  0.25005108  0.24157105  0.38288766  1
  O  O308  1  0.23652720  0.24571112  0.87018526  1
  O  O309  1  0.24273395  0.73776157  0.37139381  1
  O  O310  1  0.24655546  0.74412883  0.87814203  1
  O  O311  1  0.75089389  0.24446002  0.38546621  1
  O  O312  1  0.74656182  0.23629239  0.86996036  1
  O  O313  1  0.74105733  0.75412696  0.38360133  1
  O  O314  1  0.74320824  0.74616734  0.88274978  1
  O  O315  1  -0.00116124  0.11261358  0.00727568  1
  O  O316  1  0.01582722  0.12111775  0.49903600  1
  O  O317  1  0.00229808  0.61930083  0.00602537  1
  O  O318  1  -0.00539005  0.61340451  0.50192690  1
  O  O319  1  0.50691643  0.11871235  0.01121114  1
  O  O320  1  0.50915304  0.11623967  0.49587458  1
  O  O321  1  0.50568380  0.61738096  0.00444053  1
  O  O322  1  0.50599009  0.63127746  0.50620637  1
  O  O323  1  0.50490480  0.36595531  0.48427602  1
  O  O324  1  0.49021112  0.37863974  0.99844883  1
  O  O325  1  0.48935972  0.88297134  0.49762411  1
  O  O326  1  0.51004344  0.88258250  0.99125987  1
  O  O327  1  0.99487088  0.38334507  0.49300188  1
  O  O328  1  0.99397954  0.38380731  0.99192220  1
  O  O329  1  0.99346141  0.88365879  0.49502847  1
  O  O330  1  0.99136510  0.88660972  1.00574018  1
  O  O331  1  0.48530085  0.49423035  0.37079453  1
  O  O332  1  0.49297871  0.49829155  0.87215130  1
  O  O333  1  0.49108782  0.99827291  0.38521075  1
  O  O334  1  0.50120234  0.98876198  0.88190752  1
  O  O335  1  0.99648133  0.49714860  0.38091138  1
  O  O336  1  1.00619112  0.49142944  0.88102141  1
  O  O337  1  0.99295487  1.00000323  0.38291892  1
  O  O338  1  0.99124733  1.00459424  0.88415582  1
  O  O339  1  0.00030796  0.00548348  0.12034390  1
  O  O340  1  -0.00690379  -0.00313348  0.61021154  1
  O  O341  1  0.00370414  0.50839725  0.11375769  1
  O  O342  1  0.01128702  0.50278700  0.61907253  1
  O  O343  1  0.49817776  0.00855714  0.11968297  1
  O  O344  1  0.50356141  -0.00441209  0.61401403  1
  O  O345  1  0.51491565  0.50099941  0.13159989  1
  O  O346  1  0.51342543  0.49750931  0.63571556  1
  O  O347  1  0.23859882  0.38487545  0.25556594  1
  O  O348  1  0.24980108  0.38468734  0.75274954  1
  O  O349  1  0.24257845  0.88017049  0.24067083  1
  O  O350  1  0.23922927  0.87921199  0.74398977  1
  O  O351  1  0.74204361  0.38529693  0.25019989  1
  O  O352  1  0.75006934  0.38180958  0.74970128  1
  O  O353  1  0.74250575  0.87667565  0.24049678  1
  O  O354  1  0.74234342  0.87995331  0.74442804  1
  O  O355  1  0.25555561  0.12145621  0.25247944  1
  O  O356  1  0.25805384  0.12380222  0.76119822  1
  O  O357  1  0.25936032  0.62143833  0.25637129  1
  O  O358  1  0.24462611  0.61849861  0.76117607  1
  O  O359  1  0.74280542  0.12540250  0.26603023  1
  O  O360  1  0.75925075  0.11833369  0.75644776  1
  O  O361  1  0.75986603  0.61408297  0.24292892  1
  O  O362  1  0.75359729  0.61868768  0.75837587  1
  O  O363  1  0.36025975  0.11477874  0.38111442  1
  O  O364  1  0.36823701  0.12763663  0.86660358  1
  O  O365  1  0.36566172  0.62069936  0.36850937  1
  O  O366  1  0.36452380  0.61646565  0.87917325  1
  O  O367  1  0.86661491  0.11624374  0.38138051  1
  O  O368  1  0.86989854  0.11612596  0.86989356  1
  O  O369  1  0.88259514  0.61426662  0.36502595  1
  O  O370  1  0.86304783  0.63121882  0.87295088  1
  O  O371  1  0.11733925  0.37486256  0.13735201  1
  O  O372  1  0.13102459  0.39348631  0.62047224  1
  O  O373  1  0.13204112  0.87731295  0.13144435  1
  O  O374  1  0.13251206  0.87083835  0.63480693  1
  O  O375  1  0.62598035  0.37867417  0.13660500  1
  O  O376  1  0.62928699  0.38428366  0.62896314  1
  O  O377  1  0.63452080  0.87136055  0.13528531  1
  O  O378  1  0.62723765  0.87953855  0.62929100  1
  O  O379  1  0.10988221  0.25911234  0.25563885  1
  O  O380  1  0.11788365  0.24632162  0.76395717  1
  O  O381  1  0.13136245  0.75803077  0.25486979  1
  O  O382  1  0.11817137  0.75654072  0.75549396  1
  O  O383  1  0.61856094  0.25950702  0.25519106  1
  O  O384  1  0.62071102  0.24570574  0.75758302  1
  O  O385  1  0.61772485  0.75606142  0.25348438  1
  O  O386  1  0.61950836  0.75476931  0.75557380  1
  O  O387  1  0.37907029  0.24887266  0.25354399  1
  O  O388  1  0.38325817  0.24415764  0.74557166  1
  O  O389  1  0.38024098  0.74506982  0.24232192  1
  O  O390  1  0.38406773  0.75484468  0.74121505  1
  O  O391  1  0.88543506  0.25819864  0.24360469  1
  O  O392  1  0.88401178  0.24049035  0.74649206  1
  O  O393  1  0.87038021  0.73747706  0.25627309  1
  O  O394  1  0.88154967  0.75166952  0.74247386  1
  O  O395  1  0.36849092  0.50326263  0.48632351  1
  O  O396  1  0.37542113  0.49520437  0.98786975  1
  O  O397  1  0.37997399  0.99472980  0.49747862  1
  O  O398  1  0.39288247  1.00137394  0.99408013  1
  O  O399  1  0.87972045  0.49588405  0.49317762  1
  O  O400  1  0.88584903  0.49227087  1.00277717  1
  O  O401  1  0.88155322  0.99553419  0.49193270  1
  O  O402  1  0.88017411  0.99163399  0.99247347  1
  O  O403  1  0.11621606  -0.00153968  0.00648848  1
  O  O404  1  0.11809414  0.01400495  0.49652974  1
  O  O405  1  0.11610371  0.50748576  -0.00048451  1
  O  O406  1  0.11763573  0.49871334  0.50646856  1
  O  O407  1  0.61473052  0.01380571  -0.00647360  1
  O  O408  1  0.61660243  0.00404320  0.50291910  1
  O  O409  1  0.62632948  0.49864545  0.01102657  1
  O  O410  1  0.63252198  0.49885839  0.51621762  1
  O  O411  1  0.37521202  0.37917569  0.11237306  1
  O  O412  1  0.37243562  0.36131979  0.62901866  1
  O  O413  1  0.36476132  0.86512353  0.13006426  1
  O  O414  1  0.36775118  0.86758134  0.61831945  1
  O  O415  1  0.87693114  0.36685003  0.11559134  1
  O  O416  1  0.87507511  0.37621742  0.61024267  1
  O  O417  1  0.86511677  0.87541646  0.11456268  1
  O  O418  1  0.86819352  0.86372185  0.61878556  1
  O  O419  1  0.13865728  0.12659198  0.37482612  1
  O  O420  1  0.13322657  0.13522844  0.87882861  1
  O  O421  1  0.13554733  0.63658398  0.36884710  1
  O  O422  1  0.13201653  0.63602492  0.87950508  1
  O  O423  1  0.63322310  0.12630391  0.38881248  1
  O  O424  1  0.63396959  0.13193420  0.88086599  1
  O  O425  1  0.62100318  0.63877889  0.37158225  1
  O  O426  1  0.63426459  0.63699664  0.87390553  1
