# generated using pymatgen
data_V85Zn86O256
_symmetry_space_group_name_H-M   'P 1'
_cell_length_a   16.94841349
_cell_length_b   16.95430400
_cell_length_c   16.95969842
_cell_angle_alpha   89.98283004
_cell_angle_beta   89.95235358
_cell_angle_gamma   89.95713301
_symmetry_Int_Tables_number   1
_chemical_formula_structural   V85Zn86O256
_chemical_formula_sum   'V85 Zn86 O256'
_cell_volume   4873.34156382
_cell_formula_units_Z   1
loop_
 _symmetry_equiv_pos_site_id
 _symmetry_equiv_pos_as_xyz
  1  'x, y, z'
loop_
 _atom_site_type_symbol
 _atom_site_label
 _atom_site_symmetry_multiplicity
 _atom_site_fract_x
 _atom_site_fract_y
 _atom_site_fract_z
 _atom_site_occupancy
  V  V0  1  -0.00022302  -0.00148878  -0.00084448  1
  V  V1  1  0.13317478  0.38691600  0.25027745  1
  V  V2  1  0.24618635  0.76807263  0.00439128  1
  V  V3  1  0.87778662  0.62166150  0.24521716  1
  V  V4  1  0.00052842  0.12112476  0.62462137  1
  V  V5  1  0.74866314  0.49444563  0.75074276  1
  V  V6  1  0.12905681  -0.00411194  0.62521973  1
  V  V7  1  0.87795043  -0.00040739  0.37465860  1
  V  V8  1  -0.00155753  0.26120452  0.25097470  1
  V  V9  1  0.87299187  0.26760174  0.12255369  1
  V  V10  1  0.25571969  0.00218735  0.75367131  1
  V  V11  1  0.75330928  0.74427549  0.50120059  1
  V  V12  1  0.88215663  0.74479253  0.12310728  1
  V  V13  1  0.13078070  0.74690045  0.37316759  1
  V  V14  1  0.23618521  0.63364440  0.88764992  1
  V  V15  1  0.62155572  0.61852532  0.50265374  1
  V  V16  1  0.87926384  0.37342354  0.48399578  1
  V  V17  1  0.49848367  0.88108159  0.89731955  1
  V  V18  1  -0.00297668  0.12546292  0.12268552  1
  V  V19  1  0.37313954  0.50345793  0.87434113  1
  V  V20  1  0.49926207  0.87097589  0.37739110  1
  V  V21  1  0.75695004  0.27144972  -0.00288354  1
  V  V22  1  0.37761541  0.13749112  0.24798293  1
  V  V23  1  0.12619123  -0.00111268  0.12327449  1
  V  V24  1  0.49550807  0.63087664  0.62655802  1
  V  V25  1  0.62777853  0.87351060  0.25262871  1
  V  V26  1  0.00064132  0.25288957  0.75245648  1
  V  V27  1  0.50557791  0.62327959  0.12248771  1
  V  V28  1  0.74995845  0.12638291  0.87955600  1
  V  V29  1  0.75237280  0.61860101  0.37239499  1
  V  V30  1  0.87918329  0.61562053  0.74971809  1
  V  V31  1  0.62043824  0.49490184  0.62845728  1
  V  V32  1  0.87588196  0.12198753  0.74828057  1
  V  V33  1  0.37721335  0.49539707  0.38912242  1
  V  V34  1  0.49865269  0.00148306  0.49678551  1
  V  V35  1  0.37352640  0.63390592  0.75180840  1
  V  V36  1  0.00678871  0.86630219  0.87504150  1
  V  V37  1  0.37137022  0.00344350  0.37550330  1
  V  V38  1  0.62497310  0.74287807  0.37652517  1
  V  V39  1  0.00744790  0.74270379  0.74971179  1
  V  V40  1  0.51927005  0.26264669  0.25527505  1
  V  V41  1  0.88147001  0.74229770  0.62592153  1
  V  V42  1  0.12659269  0.12384152  0.49753659  1
  V  V43  1  0.24813219  0.26333510  0.51249437  1
  V  V44  1  0.25838607  0.86427543  0.62732939  1
  V  V45  1  0.74642193  0.48316722  0.24451674  1
  V  V46  1  0.75281233  0.74806902  -0.00201712  1
  V  V47  1  0.00433101  0.74364170  0.24505075  1
  V  V48  1  0.24923633  0.00394865  0.24476010  1
  V  V49  1  0.49321210  0.13105350  0.62179459  1
  V  V50  1  0.12098507  0.62581758  0.51525781  1
  V  V51  1  0.87568246  0.12857017  0.24732252  1
  V  V52  1  0.13079437  0.51561930  0.11591319  1
  V  V53  1  0.00687055  0.49567034  0.49946746  1
  V  V54  1  0.61977321  0.87717694  0.75183314  1
  V  V55  1  0.74966454  0.87239909  0.62531169  1
  V  V56  1  0.37911551  0.00428648  0.88578024  1
  V  V57  1  0.12555132  0.87651078  0.24645631  1
  V  V58  1  0.12031381  0.25772464  0.37392401  1
  V  V59  1  0.87684979  -0.00294433  0.87553019  1
  V  V60  1  0.12859516  0.87052848  0.75145687  1
  V  V61  1  0.37627125  0.37592369  -0.00100260  1
  V  V62  1  0.24943146  0.25111816  0.00183833  1
  V  V63  1  0.87757356  0.87230830  0.50048230  1
  V  V64  1  0.50828785  0.25742079  0.74683958  1
  V  V65  1  0.25867694  0.74097236  0.49712376  1
  V  V66  1  0.87801973  0.87274493  -0.00095010  1
  V  V67  1  0.75269774  0.62385056  0.87416199  1
  V  V68  1  0.37186691  0.13421025  0.74858633  1
  V  V69  1  0.49578886  0.74330722  0.25081320  1
  V  V70  1  0.23831607  0.50169658  0.74688462  1
  V  V71  1  -0.00697188  0.50830501  0.00725516  1
  V  V72  1  0.75179033  0.87156499  0.12674459  1
  V  V73  1  0.12822812  0.12572741  -0.00736201  1
  V  V74  1  0.62186948  0.74944980  0.87421513  1
  V  V75  1  0.74905625  0.00003504  0.74936547  1
  V  V76  1  0.73964698  0.12486507  0.37097786  1
  V  V77  1  0.62523004  0.47363971  0.12295429  1
  V  V78  1  0.12995001  0.25429831  0.87412086  1
  V  V79  1  0.37483929  0.86982279  0.50009020  1
  V  V80  1  0.36993399  0.60854873  0.24462773  1
  V  V81  1  0.75002201  0.24955092  0.49456559  1
  V  V82  1  0.75691504  0.37410509  0.62699799  1
  V  V83  1  0.62313401  0.00022961  0.62293177  1
  V  V84  1  0.62414565  0.12565422  0.49439760  1
  Zn  Zn85  1  0.25301103  0.38109510  0.12799307  1
  Zn  Zn86  1  0.37946009  0.77735631  0.10629616  1
  Zn  Zn87  1  0.61071700  0.12020524  -0.00043202  1
  Zn  Zn88  1  0.49215807  0.75586263  0.75000416  1
  Zn  Zn89  1  0.63000864  0.25592413  0.87120940  1
  Zn  Zn90  1  0.87722144  0.24927119  0.62108007  1
  Zn  Zn91  1  0.86831409  0.48117925  0.89290594  1
  Zn  Zn92  1  0.13351773  0.37583333  0.73995615  1
  Zn  Zn93  1  -0.00404318  0.37477668  0.88796806  1
  Zn  Zn94  1  0.50429335  0.37905173  0.86876457  1
  Zn  Zn95  1  0.00099135  0.87276339  0.37620930  1
  Zn  Zn96  1  0.39103333  0.36065893  0.51946083  1
  Zn  Zn97  1  0.37945482  0.24915981  0.12167857  1
  Zn  Zn98  1  0.00372085  -0.00439110  0.49943103  1
  Zn  Zn99  1  0.62481247  0.62081055  -0.00001824  1
  Zn  Zn100  1  0.60051391  -0.00075647  0.10321932  1
  Zn  Zn101  1  0.24928994  0.61750150  0.36897934  1
  Zn  Zn102  1  0.75364186  -0.00178778  0.24932142  1
  Zn  Zn103  1  0.50135270  0.49818121  -0.00270601  1
  Zn  Zn104  1  0.24811995  0.13006042  0.37644420  1
  Zn  Zn105  1  0.88208366  0.49112884  0.36598988  1
  Zn  Zn106  1  0.51581528  0.37812536  0.38579648  1
  Zn  Zn107  1  0.18641660  0.18894340  0.18515016  1
  Zn  Zn108  1  0.18596405  0.18451899  0.68861096  1
  Zn  Zn109  1  0.19482139  0.69219540  0.18041469  1
  Zn  Zn110  1  0.19237110  0.68344819  0.68996440  1
  Zn  Zn111  1  0.68801749  0.18513391  0.17643395  1
  Zn  Zn112  1  0.68802990  0.18678359  0.68225291  1
  Zn  Zn113  1  0.68931391  0.68478304  0.18844787  1
  Zn  Zn114  1  0.68775216  0.68597994  0.68904865  1
  Zn  Zn115  1  0.30745796  0.31943990  0.32657444  1
  Zn  Zn116  1  0.31140895  0.31717133  0.81185284  1
  Zn  Zn117  1  0.32482829  0.82506110  0.28361791  1
  Zn  Zn118  1  0.31506179  0.81429361  0.82382181  1
  Zn  Zn119  1  0.69270229  0.31247006  0.31572759  1
  Zn  Zn120  1  0.82015766  0.31302181  0.81131001  1
  Zn  Zn121  1  0.81624831  0.80670313  0.31425019  1
  Zn  Zn122  1  0.81448590  0.80977672  0.80983313  1
  Zn  Zn123  1  0.18887606  0.44284826  0.43264457  1
  Zn  Zn124  1  0.18431728  0.43846173  0.93605158  1
  Zn  Zn125  1  0.18975527  0.93242409  0.43589446  1
  Zn  Zn126  1  0.18906893  0.93890146  0.93411711  1
  Zn  Zn127  1  0.69190331  0.44087334  0.44251129  1
  Zn  Zn128  1  0.68045879  0.43548844  0.93353453  1
  Zn  Zn129  1  0.68982583  0.93615272  0.43493475  1
  Zn  Zn130  1  0.68788281  0.93893448  0.93949339  1
  Zn  Zn131  1  0.30983255  0.06769206  0.06524046  1
  Zn  Zn132  1  0.31008762  0.06226750  0.56398731  1
  Zn  Zn133  1  0.31301721  0.56322030  0.06282802  1
  Zn  Zn134  1  0.32598786  0.52630707  0.58252097  1
  Zn  Zn135  1  0.78262421  0.07410727  0.07861372  1
  Zn  Zn136  1  0.81275097  0.06005222  0.55931514  1
  Zn  Zn137  1  0.80623733  0.55939071  0.06633115  1
  Zn  Zn138  1  0.82085151  0.55599709  0.56265725  1
  Zn  Zn139  1  0.44183091  0.43129969  0.18484212  1
  Zn  Zn140  1  0.43171762  0.44014849  0.68700183  1
  Zn  Zn141  1  0.43714058  0.94122433  0.18440205  1
  Zn  Zn142  1  0.43640361  0.94115827  0.68717850  1
  Zn  Zn143  1  0.94504092  0.44323228  0.18426995  1
  Zn  Zn144  1  0.96977689  0.42457340  0.66349937  1
  Zn  Zn145  1  0.93931922  0.93522201  0.18746661  1
  Zn  Zn146  1  0.93961699  0.93311316  0.68680185  1
  Zn  Zn147  1  0.05977367  0.06617418  0.31247760  1
  Zn  Zn148  1  0.06492246  0.05953052  0.81310134  1
  Zn  Zn149  1  0.06119842  0.56243052  0.31511015  1
  Zn  Zn150  1  0.05851079  0.56221575  0.82653442  1
  Zn  Zn151  1  0.54822028  0.04967753  0.28259845  1
  Zn  Zn152  1  0.56043218  0.06737451  0.81563487  1
  Zn  Zn153  1  0.56274068  0.55004806  0.30928681  1
  Zn  Zn154  1  0.56139863  0.56195747  0.81079532  1
  Zn  Zn155  1  0.43465732  0.19485198  0.43354521  1
  Zn  Zn156  1  0.43664107  0.18629890  0.93323009  1
  Zn  Zn157  1  0.43648395  0.67487048  0.43537725  1
  Zn  Zn158  1  0.43421072  0.68930775  0.94030084  1
  Zn  Zn159  1  0.93781305  0.18706419  0.43450883  1
  Zn  Zn160  1  0.93626492  0.19015081  0.93750784  1
  Zn  Zn161  1  0.94164741  0.68403118  0.43100885  1
  Zn  Zn162  1  0.94239132  0.68057673  0.93643885  1
  Zn  Zn163  1  0.06198484  0.31898165  0.06532814  1
  Zn  Zn164  1  0.06742589  0.31289703  0.56392144  1
  Zn  Zn165  1  0.07020233  0.80796545  0.06312971  1
  Zn  Zn166  1  0.06496903  0.80881574  0.56328415  1
  Zn  Zn167  1  0.54840211  0.28209656  0.05206631  1
  Zn  Zn168  1  0.57102299  0.31190107  0.56272609  1
  Zn  Zn169  1  0.56745737  0.80652744  0.06647843  1
  Zn  Zn170  1  0.56264856  0.80800238  0.56232394  1
  O  O171  1  0.11711710  0.11972432  0.11523162  1
  O  O172  1  0.11798077  0.11587305  0.61952209  1
  O  O173  1  0.12723055  0.61285044  0.13420466  1
  O  O174  1  0.11986945  0.63500748  0.61279318  1
  O  O175  1  0.66802615  0.10075284  0.10706459  1
  O  O176  1  0.61809271  0.11688046  0.61593953  1
  O  O177  1  0.61347019  0.62994813  0.12234850  1
  O  O178  1  0.62222767  0.61893020  0.61987225  1
  O  O179  1  0.37244705  0.38740120  0.39115681  1
  O  O180  1  0.37648235  0.38737528  0.87858650  1
  O  O181  1  0.38079620  0.88185901  0.37823659  1
  O  O182  1  0.38834452  0.89138100  0.86969598  1
  O  O183  1  0.87427385  0.37017358  0.38534274  1
  O  O184  1  0.88105549  0.36940731  0.88301935  1
  O  O185  1  0.87604167  0.88081013  0.38125758  1
  O  O186  1  0.88227143  0.87823858  0.87759005  1
  O  O187  1  0.25959513  0.00118236  0.37105266  1
  O  O188  1  0.26376207  -0.00665266  0.86148065  1
  O  O189  1  0.26678202  0.50259431  0.37446122  1
  O  O190  1  0.25625680  0.51352353  0.87408884  1
  O  O191  1  0.76447069  0.00571354  0.37656947  1
  O  O192  1  0.75708516  0.00555184  0.86644335  1
  O  O193  1  0.75463109  0.50990671  0.36576150  1
  O  O194  1  0.75251676  0.50715783  0.86902467  1
  O  O195  1  0.23644757  0.49884220  0.12172673  1
  O  O196  1  0.23424161  0.52431521  0.64962570  1
  O  O197  1  0.24280375  1.00475747  0.13693338  1
  O  O198  1  0.24789551  0.98786811  0.63335350  1
  O  O199  1  0.73424320  0.49807323  0.13072657  1
  O  O200  1  0.74789654  0.49364818  0.63292480  1
  O  O201  1  0.76659081  0.97473979  0.13282550  1
  O  O202  1  0.74409692  0.99324235  0.62958020  1
  O  O203  1  0.00820246  0.36451857  0.24594037  1
  O  O204  1  -0.01856662  0.35358880  0.75603663  1
  O  O205  1  0.01102079  0.86863043  0.25325886  1
  O  O206  1  0.00603146  0.86622859  0.75642279  1
  O  O207  1  0.50176297  0.36442749  0.25786435  1
  O  O208  1  0.49117310  0.35909173  0.74145782  1
  O  O209  1  0.51230724  0.86043705  0.26145839  1
  O  O210  1  0.51182205  0.87604728  0.74986901  1
  O  O211  1  0.48099813  0.14300796  0.26200695  1
  O  O212  1  0.49274428  0.13183902  0.73972475  1
  O  O213  1  0.49779577  0.62648443  0.24250789  1
  O  O214  1  0.49192642  0.62998054  0.74562107  1
  O  O215  1  0.99430801  0.13438413  0.24267926  1
  O  O216  1  0.99474908  0.12655448  0.74420185  1
  O  O217  1  0.99076987  0.63218480  0.25252009  1
  O  O218  1  0.99173095  0.63222537  0.75891985  1
  O  O219  1  0.36235427  0.25622097  -0.00371577  1
  O  O220  1  0.35300276  0.24943434  0.49844518  1
  O  O221  1  0.36214857  0.75351882  -0.00265307  1
  O  O222  1  0.36451962  0.74890344  0.49321479  1
  O  O223  1  0.87136762  0.24670362  0.01419025  1
  O  O224  1  0.86795912  0.25224543  0.50038766  1
  O  O225  1  0.87339010  0.75241177  0.00338434  1
  O  O226  1  0.87368803  0.75068069  0.50643122  1
  O  O227  1  0.12423137  0.24334965  0.49312917  1
  O  O228  1  0.12763951  0.24508181  0.99356123  1
  O  O229  1  0.13064817  0.74223921  0.49185962  1
  O  O230  1  0.14409902  0.75253896  1.00067208  1
  O  O231  1  0.64246526  0.23869004  0.50540918  1
  O  O232  1  0.65437739  0.24908935  1.00130826  1
  O  O233  1  0.63431382  0.73801428  0.49737762  1
  O  O234  1  0.63324505  0.75030099  0.98720812  1
  O  O235  1  0.49257226  0.25379337  0.15336239  1
  O  O236  1  0.50373587  0.23802126  0.63146273  1
  O  O237  1  0.49613243  0.74284027  0.13353309  1
  O  O238  1  0.50763623  0.73581588  0.63180968  1
  O  O239  1  0.99153025  0.24518229  0.12829968  1
  O  O240  1  0.99952028  0.23311769  0.63279584  1
  O  O241  1  0.99838307  0.75322890  0.13698295  1
  O  O242  1  0.99027337  0.75455822  0.63524959  1
  O  O243  1  0.01028789  0.24392615  0.36441532  1
  O  O244  1  0.01177032  0.24405867  0.86818769  1
  O  O245  1  0.00845184  0.75101073  0.36093338  1
  O  O246  1  -0.00649008  0.75962308  0.86573994  1
  O  O247  1  0.49698427  0.25531097  0.35969023  1
  O  O248  1  0.49845004  0.24992430  0.85214274  1
  O  O249  1  0.50777249  0.74825099  0.37165347  1
  O  O250  1  0.50763961  0.76112069  0.87398758  1
  O  O251  1  0.23603361  0.13001816  0.50239860  1
  O  O252  1  0.23857198  0.13531631  1.00290516  1
  O  O253  1  0.23490350  0.63193995  0.49687817  1
  O  O254  1  0.25479065  0.62945297  0.98881639  1
  O  O255  1  0.74789566  0.12929467  0.49142430  1
  O  O256  1  0.76776388  0.12790706  0.97985810  1
  O  O257  1  0.74853670  0.62687583  0.49219107  1
  O  O258  1  0.74846532  0.63003009  0.99055809  1
  O  O259  1  0.25821566  0.36891729  -0.00239870  1
  O  O260  1  0.23556880  0.36292994  0.50164821  1
  O  O261  1  0.25132779  0.86854462  -0.00379619  1
  O  O262  1  0.25626153  0.86458098  0.50698966  1
  O  O263  1  0.75615301  0.36932879  -0.00424790  1
  O  O264  1  0.76017225  0.36594027  0.50459988  1
  O  O265  1  0.75699654  0.86731534  0.00566234  1
  O  O266  1  0.75765513  0.86578232  0.50445592  1
  O  O267  1  0.11798538  0.48951012  0.24414442  1
  O  O268  1  0.13667110  0.50262188  0.76591588  1
  O  O269  1  0.12809591  0.99704554  0.24591442  1
  O  O270  1  0.13620159  0.99378888  0.74579753  1
  O  O271  1  0.63330896  0.49921619  0.23301148  1
  O  O272  1  0.64151809  0.50710468  0.74320208  1
  O  O273  1  0.63922106  0.97623974  0.27066096  1
  O  O274  1  0.62870509  0.99468164  0.74553009  1
  O  O275  1  0.36431273  0.01492494  0.25887647  1
  O  O276  1  0.37038609  0.00934480  0.75403513  1
  O  O277  1  0.37718605  0.50694511  0.24912265  1
  O  O278  1  0.36438232  0.51191741  0.76029222  1
  O  O279  1  0.87691916  0.00565019  0.25868375  1
  O  O280  1  0.87113690  0.00547298  0.75222746  1
  O  O281  1  0.86978599  0.50642662  0.24713766  1
  O  O282  1  0.86773835  0.51237691  0.74687927  1
  O  O283  1  0.12366668  0.37083858  0.36215188  1
  O  O284  1  0.11777828  0.36622941  0.86765514  1
  O  O285  1  0.12193912  0.86275072  0.37129295  1
  O  O286  1  0.11525764  0.88035668  0.86553057  1
  O  O287  1  0.63008479  0.38374191  0.37291941  1
  O  O288  1  0.61744719  0.36887209  0.87272175  1
  O  O289  1  0.62186538  0.86146444  0.37466667  1
  O  O290  1  0.61807621  0.87037311  0.86828866  1
  O  O291  1  0.36882939  0.12951961  0.14396577  1
  O  O292  1  0.38484807  0.11829820  0.63222176  1
  O  O293  1  0.38885568  0.61939446  0.13488691  1
  O  O294  1  0.38644931  0.61593900  0.63692741  1
  O  O295  1  0.87600557  0.12224244  0.13702483  1
  O  O296  1  0.88325261  0.12027990  0.63056044  1
  O  O297  1  0.86698535  0.63191426  0.13728515  1
  O  O298  1  0.86658828  0.63654550  0.63357427  1
  O  O299  1  0.24788800  0.25471764  0.11111622  1
  O  O300  1  0.23563151  0.25159905  0.61125312  1
  O  O301  1  0.25898350  0.75066928  0.10922872  1
  O  O302  1  0.24669742  0.75848808  0.61632687  1
  O  O303  1  0.76654399  0.25092843  0.11292930  1
  O  O304  1  0.75493668  0.25662147  0.61807367  1
  O  O305  1  0.75729139  0.75516009  0.11877533  1
  O  O306  1  0.75681076  0.75487409  0.62148626  1
  O  O307  1  0.23306938  0.24903963  0.38598700  1
  O  O308  1  0.23708356  0.25395249  0.88151599  1
  O  O309  1  0.24407619  0.74883880  0.38256674  1
  O  O310  1  0.25309604  0.74098685  0.88543816  1
  O  O311  1  0.75174173  0.23680271  0.38252903  1
  O  O312  1  0.75610867  0.24435951  0.88375292  1
  O  O313  1  0.74577566  0.73685451  0.37957312  1
  O  O314  1  0.74435293  0.74370677  0.87732067  1
  O  O315  1  0.00433592  0.11835887  0.00457222  1
  O  O316  1  0.00930753  0.12262737  0.50785886  1
  O  O317  1  0.00498921  0.61016957  -0.00251462  1
  O  O318  1  0.01695052  0.62435463  0.49303424  1
  O  O319  1  0.51394871  0.17767733  0.01100267  1
  O  O320  1  0.50222935  0.12368974  0.50381581  1
  O  O321  1  0.50259967  0.62303550  0.00825342  1
  O  O322  1  0.51260120  0.62942625  0.51051159  1
  O  O323  1  0.50077489  0.36529821  0.49853239  1
  O  O324  1  0.48460710  0.36976209  0.99620835  1
  O  O325  1  0.49498834  0.87790989  0.49584613  1
  O  O326  1  0.50199948  0.87216425  0.99659217  1
  O  O327  1  0.99503484  0.38711371  0.49860846  1
  O  O328  1  1.01039745  0.39605807  1.00268110  1
  O  O329  1  0.99153920  0.87380379  0.49953640  1
  O  O330  1  0.99904824  0.87578601  0.99145319  1
  O  O331  1  0.48319481  0.49463767  0.36660904  1
  O  O332  1  0.48944649  0.49986122  0.87520115  1
  O  O333  1  0.48798229  0.99444233  0.37629892  1
  O  O334  1  0.48912226  0.99454698  0.87208618  1
  O  O335  1  0.99485506  0.50859106  0.39104283  1
  O  O336  1  0.99134466  0.49847372  0.89058604  1
  O  O337  1  0.98926316  0.99875364  0.37750701  1
  O  O338  1  0.99564374  0.98849977  0.87774230  1
  O  O339  1  0.00477218  0.00490765  0.11816995  1
  O  O340  1  0.00717261  0.00694859  0.62562790  1
  O  O341  1  0.01478401  0.50153026  0.11683487  1
  O  O342  1  -0.01930231  0.51718250  0.59558219  1
  O  O343  1  0.51768661  0.01148173  0.17509169  1
  O  O344  1  0.50488606  0.00812845  0.61596262  1
  O  O345  1  0.51375689  0.50372524  0.12381420  1
  O  O346  1  0.51743996  0.50958535  0.63796525  1
  O  O347  1  0.23562566  0.37248530  0.25047212  1
  O  O348  1  0.24974790  0.39566290  0.75287806  1
  O  O349  1  0.23177119  0.89040029  0.26182027  1
  O  O350  1  0.24943017  0.87694765  0.74369086  1
  O  O351  1  0.75776432  0.38522911  0.25163179  1
  O  O352  1  0.75996437  0.38423445  0.74076763  1
  O  O353  1  0.74448924  0.86346514  0.24340355  1
  O  O354  1  0.73965183  0.87948944  0.74682110  1
  O  O355  1  0.25017847  0.11796987  0.25531749  1
  O  O356  1  0.25827016  0.11335912  0.74234465  1
  O  O357  1  0.26889090  0.63049942  0.24700003  1
  O  O358  1  0.25617067  0.62421545  0.76496747  1
  O  O359  1  0.75907875  0.12278070  0.25634609  1
  O  O360  1  0.75778779  0.12064304  0.75503628  1
  O  O361  1  0.75633820  0.61958748  0.25696643  1
  O  O362  1  0.75696929  0.61971813  0.75709647  1
  O  O363  1  0.36893398  0.11813973  0.37054992  1
  O  O364  1  0.38100547  0.11272570  0.86327505  1
  O  O365  1  0.37653500  0.61373881  0.35817573  1
  O  O366  1  0.37277106  0.61828240  0.86881106  1
  O  O367  1  0.87126522  0.11819300  0.36459619  1
  O  O368  1  0.87498418  0.11693699  0.86376260  1
  O  O369  1  0.86683984  0.62652880  0.36185428  1
  O  O370  1  0.86293504  0.62584402  0.86656999  1
  O  O371  1  0.12846995  0.38123332  0.13927816  1
  O  O372  1  0.08042535  0.38866136  0.64167891  1
  O  O373  1  0.11997875  0.88660091  0.13484609  1
  O  O374  1  0.13422301  0.87831175  0.63061864  1
  O  O375  1  0.61657059  0.37713003  0.11645296  1
  O  O376  1  0.64419262  0.38453902  0.62037584  1
  O  O377  1  0.63440403  0.87435436  0.13506349  1
  O  O378  1  0.62973324  0.87906092  0.63118966  1
  O  O379  1  0.11829098  0.25728858  0.25570151  1
  O  O380  1  0.11814290  0.24968715  0.75690127  1
  O  O381  1  0.12407962  0.75729394  0.25212438  1
  O  O382  1  0.11412710  0.75306175  0.74468831  1
  O  O383  1  0.62391377  0.24676135  0.24749925  1
  O  O384  1  0.61109628  0.24565639  0.74506039  1
  O  O385  1  0.61879936  0.75240809  0.25648127  1
  O  O386  1  0.62671590  0.75880149  0.76152251  1
  O  O387  1  0.35858769  0.23926817  0.25626678  1
  O  O388  1  0.37631509  0.23811140  0.75204795  1
  O  O389  1  0.39241792  0.73155091  0.26152946  1
  O  O390  1  0.37354698  0.73885613  0.75549788  1
  O  O391  1  0.88371664  0.24188895  0.23567593  1
  O  O392  1  0.87994928  0.23252872  0.74577481  1
  O  O393  1  0.88573474  0.74339207  0.24440352  1
  O  O394  1  0.88265846  0.74170381  0.74275437  1
  O  O395  1  0.38191688  0.52587556  0.48377442  1
  O  O396  1  0.37686118  0.49300597  0.99239133  1
  O  O397  1  0.37861780  0.99513851  0.49237282  1
  O  O398  1  0.36975693  1.01142913  0.98478824  1
  O  O399  1  0.87751649  0.48868336  0.48927216  1
  O  O400  1  0.88679351  0.50562380  1.00866093  1
  O  O401  1  0.87796608  0.99108353  0.49313606  1
  O  O402  1  0.88317637  0.98894113  0.99320687  1
  O  O403  1  0.12126306  0.00740582  0.00228140  1
  O  O404  1  0.12583965  0.00511621  0.50479615  1
  O  O405  1  0.12256454  0.50371637  0.01175079  1
  O  O406  1  0.11653152  0.51271635  0.49585837  1
  O  O407  1  0.61700156  0.00386266  -0.00729353  1
  O  O408  1  0.61842431  0.00430120  0.50165601  1
  O  O409  1  0.62405596  0.50080047  0.01286523  1
  O  O410  1  0.63589522  0.51238417  0.51407595  1
  O  O411  1  0.37090518  0.37226011  0.11506901  1
  O  O412  1  0.35831330  0.41815231  0.60869926  1
  O  O413  1  0.36559274  0.86226203  0.17775237  1
  O  O414  1  0.36776492  0.87827508  0.61617906  1
  O  O415  1  0.87980379  0.36495017  0.12761984  1
  O  O416  1  0.86892736  0.37294675  0.61425918  1
  O  O417  1  0.87348548  0.86228570  0.12019215  1
  O  O418  1  0.86907255  0.86506363  0.62116557  1
  O  O419  1  0.12419068  0.13140520  0.38402210  1
  O  O420  1  0.12068123  0.12917872  0.88720118  1
  O  O421  1  0.12998340  0.63771071  0.37068988  1
  O  O422  1  0.13841393  0.62916570  0.87704440  1
  O  O423  1  0.63691710  0.11313948  0.37563041  1
  O  O424  1  0.63705051  0.13294535  0.87386479  1
  O  O425  1  0.63120657  0.62226821  0.38280959  1
  O  O426  1  0.63426093  0.63313498  0.87350025  1
