# generated using pymatgen
data_V85Zn86O256
_symmetry_space_group_name_H-M   'P 1'
_cell_length_a   16.93197399
_cell_length_b   16.93334950
_cell_length_c   16.93088885
_cell_angle_alpha   89.94347227
_cell_angle_beta   90.01778367
_cell_angle_gamma   90.00336529
_symmetry_Int_Tables_number   1
_chemical_formula_structural   V85Zn86O256
_chemical_formula_sum   'V85 Zn86 O256'
_cell_volume   4854.33775743
_cell_formula_units_Z   1
loop_
 _symmetry_equiv_pos_site_id
 _symmetry_equiv_pos_as_xyz
  1  'x, y, z'
loop_
 _atom_site_type_symbol
 _atom_site_label
 _atom_site_symmetry_multiplicity
 _atom_site_fract_x
 _atom_site_fract_y
 _atom_site_fract_z
 _atom_site_occupancy
  V  V0  1  0.50272721  0.25111989  0.72596877  1
  V  V1  1  0.38583812  0.13208589  0.25101970  1
  V  V2  1  0.49793354  0.36337735  0.38157448  1
  V  V3  1  0.25069868  0.63277009  0.38394500  1
  V  V4  1  0.50231249  0.62613420  0.11979186  1
  V  V5  1  0.00058915  0.75264737  0.25950296  1
  V  V6  1  0.25972452  0.25407811  0.50462551  1
  V  V7  1  0.75412048  0.01099615  0.74921242  1
  V  V8  1  0.74879598  0.25082933  0.49339568  1
  V  V9  1  0.75217673  0.61713688  0.37942947  1
  V  V10  1  0.87084650  0.62406007  0.75050354  1
  V  V11  1  0.25010520  0.87456314  0.12369791  1
  V  V12  1  -0.00513145  -0.00785766  0.49012560  1
  V  V13  1  0.49917566  0.87445530  0.37476364  1
  V  V14  1  0.12175776  0.49781431  0.62404004  1
  V  V15  1  0.87421696  0.37834486  0.49900331  1
  V  V16  1  0.73321192  0.49473819  0.74886112  1
  V  V17  1  0.00523333  0.86725810  0.86883389  1
  V  V18  1  0.49874282  0.00387036  0.50401965  1
  V  V19  1  0.50542048  0.00985637  -0.00333319  1
  V  V20  1  0.24939481  0.50563845  0.75235030  1
  V  V21  1  0.37906979  0.37495752  -0.00403031  1
  V  V22  1  0.62546994  0.50338879  0.12012317  1
  V  V23  1  0.73770823  0.37555995  0.62921175  1
  V  V24  1  0.00386349  0.62614936  0.12545011  1
  V  V25  1  0.74776980  0.74824081  0.50453854  1
  V  V26  1  0.37496104  0.75243274  0.12297458  1
  V  V27  1  0.75102194  0.49591970  0.25420788  1
  V  V28  1  0.87112359  0.49764005  0.87432811  1
  V  V29  1  0.75631829  -0.00409514  0.25995441  1
  V  V30  1  0.87401730  0.75046771  0.12490273  1
  V  V31  1  0.62165349  0.13059710  0.49416311  1
  V  V32  1  0.24954819  0.12895583  0.37424915  1
  V  V33  1  0.26069570  0.37340395  0.62133609  1
  V  V34  1  0.37473794  0.00162859  0.37423370  1
  V  V35  1  0.62799779  0.00802520  0.12164432  1
  V  V36  1  0.12471845  0.36642059  0.75337569  1
  V  V37  1  0.00353134  0.36303502  0.87414430  1
  V  V38  1  0.74368826  0.74625817  -0.00061084  1
  V  V39  1  0.12295181  0.87661911  0.25518579  1
  V  V40  1  0.11619216  0.12819732  0.50699716  1
  V  V41  1  0.38009356  0.12834613  0.73529981  1
  V  V42  1  0.12398152  0.00164973  0.11833235  1
  V  V43  1  0.38351044  0.25142273  0.12649254  1
  V  V44  1  0.50365422  0.50938052  -0.00531855  1
  V  V45  1  0.49861618  0.88411422  0.87194766  1
  V  V46  1  0.00018686  0.11521756  0.12033699  1
  V  V47  1  0.87502804  0.61932755  0.25210777  1
  V  V48  1  0.87854751  0.12108265  0.26277597  1
  V  V49  1  0.25337756  0.50105059  0.25210145  1
  V  V50  1  -0.00367649  0.62335370  0.62618499  1
  V  V51  1  0.49912334  0.75301116  0.74327926  1
  V  V52  1  0.38335257  0.49698487  0.38767180  1
  V  V53  1  0.74839422  0.37343723  0.12479814  1
  V  V54  1  0.62285704  0.00308720  0.62521901  1
  V  V55  1  0.37321262  0.50279001  0.87197935  1
  V  V56  1  0.61460787  0.24514008  0.87832605  1
  V  V57  1  0.25702987  -0.00180507  0.75646993  1
  V  V58  1  0.88336746  0.00470860  0.87173440  1
  V  V59  1  0.37613195  0.62488706  0.24815899  1
  V  V60  1  0.88304587  0.87805261  0.00029140  1
  V  V61  1  0.25510796  0.13764039  0.87462817  1
  V  V62  1  0.00071209  0.49896342  -0.00067884  1
  V  V63  1  0.62538026  0.87462135  0.24851063  1
  V  V64  1  0.61657362  0.74602432  0.87968020  1
  V  V65  1  0.61474945  0.36229585  0.25078693  1
  V  V66  1  0.87628402  0.24777705  0.12577172  1
  V  V67  1  -0.00458258  0.50267682  0.49106330  1
  V  V68  1  0.12559720  0.37631013  0.25162987  1
  V  V69  1  0.50634538  0.61137155  0.61996756  1
  V  V70  1  0.37379920  0.74996114  0.61381231  1
  V  V71  1  0.25090833  0.37429693  0.12454003  1
  V  V72  1  0.75808921  0.87618466  0.62688257  1
  V  V73  1  0.11657832  0.00036539  0.62938940  1
  V  V74  1  0.13030793  0.62887668  -0.01412005  1
  V  V75  1  0.24732303  0.87273206  0.61582451  1
  V  V76  1  0.75071259  0.87446761  0.12296174  1
  V  V77  1  0.37632585  0.88351598  -0.00382089  1
  V  V78  1  0.87384909  0.37303721  0.00023739  1
  V  V79  1  0.12432818  0.25478835  0.37791036  1
  V  V80  1  0.00032226  0.25075708  0.25093564  1
  V  V81  1  0.74329972  0.62313944  0.87850609  1
  V  V82  1  0.50132240  0.74939230  0.24897541  1
  V  V83  1  0.62324897  0.74411587  0.37781830  1
  V  V84  1  0.74557217  0.23926756  -0.00129364  1
  Zn  Zn85  1  0.24581953  0.25475262  -0.00527305  1
  Zn  Zn86  1  0.87613524  0.75066496  0.62789309  1
  Zn  Zn87  1  0.01322814  0.73893104  0.75883540  1
  Zn  Zn88  1  0.50685080  0.37555248  0.86368187  1
  Zn  Zn89  1  0.12853758  0.63258404  0.50654942  1
  Zn  Zn90  1  0.12851442  0.50187101  0.12337615  1
  Zn  Zn91  1  0.13196051  0.86716069  0.75522249  1
  Zn  Zn92  1  0.62359189  0.60062804  0.50512224  1
  Zn  Zn93  1  -0.00671278  0.38128841  0.37229969  1
  Zn  Zn94  1  0.62744503  0.87789061  0.74953709  1
  Zn  Zn95  1  -0.00130270  0.22822480  0.74047642  1
  Zn  Zn96  1  0.23549298  0.75830948  -0.02248366  1
  Zn  Zn97  1  0.74632085  0.12791701  0.37294026  1
  Zn  Zn98  1  0.12016682  0.13165742  -0.00944213  1
  Zn  Zn99  1  0.37099060  0.87247041  0.49551450  1
  Zn  Zn100  1  0.12533997  0.75891260  0.38646131  1
  Zn  Zn101  1  0.25000900  0.00347068  0.24816599  1
  Zn  Zn102  1  0.87490378  0.87445343  0.48738191  1
  Zn  Zn103  1  0.50720278  0.13179994  0.12338424  1
  Zn  Zn104  1  0.87951268  0.23940601  0.62986041  1
  Zn  Zn105  1  0.74778001  0.12219608  0.87726271  1
  Zn  Zn106  1  0.37226548  0.62826344  0.74829589  1
  Zn  Zn107  1  0.18948314  0.19048034  0.18595782  1
  Zn  Zn108  1  0.18691765  0.18742665  0.68812093  1
  Zn  Zn109  1  0.18728490  0.69041915  0.18669684  1
  Zn  Zn110  1  0.18661785  0.68977036  0.68852352  1
  Zn  Zn111  1  0.69255625  0.18522657  0.18897017  1
  Zn  Zn112  1  0.68623895  0.18889472  0.68181209  1
  Zn  Zn113  1  0.68664974  0.68394227  0.18804692  1
  Zn  Zn114  1  0.68359298  0.68712206  0.69137863  1
  Zn  Zn115  1  0.31629531  0.31276022  0.31404003  1
  Zn  Zn116  1  0.31933283  0.31468445  0.80420249  1
  Zn  Zn117  1  0.31188738  0.81442735  0.30898048  1
  Zn  Zn118  1  0.31416557  0.81510449  0.80767777  1
  Zn  Zn119  1  0.81303129  0.31368671  0.31509634  1
  Zn  Zn120  1  0.81212691  0.30658757  0.81114059  1
  Zn  Zn121  1  0.80918003  0.80452839  0.31349504  1
  Zn  Zn122  1  0.81318941  0.81459570  0.81247576  1
  Zn  Zn123  1  0.18785466  0.44146025  0.43981673  1
  Zn  Zn124  1  0.18747426  0.43951764  0.93657149  1
  Zn  Zn125  1  0.18534188  0.94284531  0.43880129  1
  Zn  Zn126  1  0.18754949  0.94435312  0.93828458  1
  Zn  Zn127  1  0.68175384  0.43308115  0.43576174  1
  Zn  Zn128  1  0.68408898  0.42821757  0.93416022  1
  Zn  Zn129  1  0.68479300  0.93425244  0.43933257  1
  Zn  Zn130  1  0.68782025  0.93543720  0.93529314  1
  Zn  Zn131  1  0.31459458  0.06329176  0.06199491  1
  Zn  Zn132  1  0.30507078  0.06077773  0.56120969  1
  Zn  Zn133  1  0.31291019  0.56250410  0.05942827  1
  Zn  Zn134  1  0.31580923  0.56085883  0.56720659  1
  Zn  Zn135  1  0.81827028  0.05782062  0.06586753  1
  Zn  Zn136  1  0.80911424  0.06258787  0.55641705  1
  Zn  Zn137  1  0.81232886  0.56321856  0.06283570  1
  Zn  Zn138  1  0.80851467  0.55607557  0.56406873  1
  Zn  Zn139  1  0.43837493  0.43852440  0.18684143  1
  Zn  Zn140  1  0.43784875  0.43337260  0.68671099  1
  Zn  Zn141  1  0.43902750  0.94300290  0.18651372  1
  Zn  Zn142  1  0.43432048  0.93741475  0.68440989  1
  Zn  Zn143  1  0.93708874  0.43730691  0.18612812  1
  Zn  Zn144  1  0.92991910  0.42414173  0.69030809  1
  Zn  Zn145  1  0.93902828  0.93494755  0.31159249  1
  Zn  Zn146  1  0.93911584  1.06791810  0.68783674  1
  Zn  Zn147  1  0.06821151  0.06557646  0.31060845  1
  Zn  Zn148  1  0.07169767  0.05240610  0.82044003  1
  Zn  Zn149  1  0.06805279  0.56531938  0.31215277  1
  Zn  Zn150  1  0.06052202  0.55473481  0.81116095  1
  Zn  Zn151  1  0.56429670  0.06185846  0.31249371  1
  Zn  Zn152  1  0.56435939  0.06918670  0.80908898  1
  Zn  Zn153  1  0.56516186  0.55801314  0.31103274  1
  Zn  Zn154  1  0.55553432  0.56810523  0.81127066  1
  Zn  Zn155  1  0.43930797  0.18777548  0.44202742  1
  Zn  Zn156  1  0.42813173  0.18384488  0.93321110  1
  Zn  Zn157  1  0.43889281  0.68180714  0.43943302  1
  Zn  Zn158  1  0.40292779  0.70662212  0.91857095  1
  Zn  Zn159  1  0.93884069  0.19251849  0.44520608  1
  Zn  Zn160  1  0.93654256  0.18537659  0.93707378  1
  Zn  Zn161  1  0.93273499  0.68677540  0.43991984  1
  Zn  Zn162  1  0.93369786  0.68626276  0.93897428  1
  Zn  Zn163  1  0.06564605  0.30902155  0.06263758  1
  Zn  Zn164  1  0.05974449  0.31377907  0.56617855  1
  Zn  Zn165  1  0.06188070  0.81085588  0.06511727  1
  Zn  Zn166  1  0.06312210  0.81039089  0.56710001  1
  Zn  Zn167  1  0.56318211  0.31555582  0.05769911  1
  Zn  Zn168  1  0.56784384  0.32413059  0.55456997  1
  Zn  Zn169  1  0.56105011  0.81747529  0.06022453  1
  Zn  Zn170  1  0.56517621  0.81583730  0.56117023  1
  O  O171  1  0.11507352  0.11914395  0.13085652  1
  O  O172  1  0.13604659  0.11465085  0.61454854  1
  O  O173  1  0.11333374  0.62326228  0.12338262  1
  O  O174  1  0.11623507  0.61277678  0.62755833  1
  O  O175  1  0.62537119  0.11252285  0.13044791  1
  O  O176  1  0.63196595  0.11025155  0.61139970  1
  O  O177  1  0.61982531  0.61108752  0.12764552  1
  O  O178  1  0.60964950  0.62944265  0.62551178  1
  O  O179  1  0.38601109  0.38801927  0.36637928  1
  O  O180  1  0.37921925  0.38208253  0.88096955  1
  O  O181  1  0.37827146  0.88432172  0.37420941  1
  O  O182  1  0.39020954  0.87842302  0.88243465  1
  O  O183  1  0.87574684  0.37272198  0.39071354  1
  O  O184  1  0.88131220  0.38087618  0.88320113  1
  O  O185  1  0.87412014  0.86971220  0.37412907  1
  O  O186  1  0.88116997  0.88117199  0.88187931  1
  O  O187  1  0.25756664  0.01093895  0.37433403  1
  O  O188  1  0.25384353  -0.00211567  0.85890447  1
  O  O189  1  0.26090920  0.50576273  0.36857484  1
  O  O190  1  0.25928290  0.49469067  0.86440467  1
  O  O191  1  0.74381953  -0.00132469  0.36223862  1
  O  O192  1  0.75692077  -0.00137035  0.86612068  1
  O  O193  1  0.74511064  0.50354126  0.36401189  1
  O  O194  1  0.75261375  0.50179994  0.87216877  1
  O  O195  1  0.25331100  0.49031947  0.13270151  1
  O  O196  1  0.24146134  0.49266523  0.62793999  1
  O  O197  1  0.24472496  0.99177744  0.12635542  1
  O  O198  1  0.24203178  0.99211014  0.63168154  1
  O  O199  1  0.74209189  0.49440126  0.12800762  1
  O  O200  1  0.75179550  0.48728900  0.63651301  1
  O  O201  1  0.74551231  0.99350043  0.13320638  1
  O  O202  1  0.74466881  0.99243749  0.63001675  1
  O  O203  1  0.00599908  0.37129690  0.25105030  1
  O  O204  1  0.01186841  0.38921789  0.76353975  1
  O  O205  1  0.00978878  0.86492207  0.24841049  1
  O  O206  1  0.00123437  0.87045864  0.76811940  1
  O  O207  1  0.51102170  0.37826576  0.25241306  1
  O  O208  1  0.49421776  0.35459107  0.74784961  1
  O  O209  1  0.50488545  0.87034255  0.25456207  1
  O  O210  1  0.50111937  0.87210845  0.75598813  1
  O  O211  1  0.48906797  0.12097301  0.24686892  1
  O  O212  1  0.48681291  0.13146993  0.74712217  1
  O  O213  1  0.49515237  0.62877976  0.24232894  1
  O  O214  1  0.49706945  0.63628986  0.73801795  1
  O  O215  1  0.99510659  0.13033640  0.24432764  1
  O  O216  1  1.00445978  0.11744776  0.76275938  1
  O  O217  1  0.99612285  0.62616892  0.24272849  1
  O  O218  1  0.98918507  0.62000645  0.74551249  1
  O  O219  1  0.36951088  0.25958976  0.00559913  1
  O  O220  1  0.35868534  0.24517300  0.49809169  1
  O  O221  1  0.38920079  0.76987863  0.01455781  1
  O  O222  1  0.37977973  0.75232222  0.50921891  1
  O  O223  1  0.86877624  0.25479382  0.00575174  1
  O  O224  1  0.86558982  0.25752711  0.50426960  1
  O  O225  1  0.86540645  0.75469944  0.00573050  1
  O  O226  1  0.85924303  0.74847873  0.50411527  1
  O  O227  1  0.12911938  0.24381989  0.49373493  1
  O  O228  1  0.13461755  0.24313677  1.00752578  1
  O  O229  1  0.12021764  0.74480289  0.49758004  1
  O  O230  1  0.12353837  0.73521264  1.00188637  1
  O  O231  1  0.63331429  0.24106415  0.50503575  1
  O  O232  1  0.63183846  0.25097249  0.99101948  1
  O  O233  1  0.63345351  0.74662570  0.49267434  1
  O  O234  1  0.63081047  0.75418874  0.99249395  1
  O  O235  1  0.48825401  0.25012864  0.11812724  1
  O  O236  1  0.50651581  0.25191585  0.62785328  1
  O  O237  1  0.49842959  0.74633874  0.13118411  1
  O  O238  1  0.49473890  0.75179296  0.62939034  1
  O  O239  1  0.99470695  0.24314965  0.13390201  1
  O  O240  1  0.99770785  0.24437533  0.62437631  1
  O  O241  1  0.99558877  0.74188161  0.13488917  1
  O  O242  1  0.99573244  0.73421802  0.63021556  1
  O  O243  1  0.00776950  0.25293794  0.36890960  1
  O  O244  1  -0.00145466  0.26167337  0.87744716  1
  O  O245  1  0.00173207  0.73792796  0.36196376  1
  O  O246  1  -0.00859127  0.76277647  0.87664705  1
  O  O247  1  0.48952134  0.26418198  0.37167215  1
  O  O248  1  0.50832933  0.24957595  0.87978773  1
  O  O249  1  0.50411184  0.75167924  0.36943978  1
  O  O250  1  0.50120210  0.75706420  0.86628079  1
  O  O251  1  0.24110889  0.13107810  0.48948029  1
  O  O252  1  0.26122952  0.12653500  0.98257832  1
  O  O253  1  0.25224489  0.61897538  0.48638516  1
  O  O254  1  0.23216886  0.62370860  1.00511924  1
  O  O255  1  0.74164619  0.13228138  0.49334718  1
  O  O256  1  0.75585931  0.13698889  1.00526313  1
  O  O257  1  0.74636164  0.62798465  0.49479582  1
  O  O258  1  0.75327249  0.63749983  0.99494043  1
  O  O259  1  0.26105909  0.37985979  0.00792942  1
  O  O260  1  0.24171050  0.36725980  0.50979571  1
  O  O261  1  0.25797908  0.87579893  0.00377136  1
  O  O262  1  0.25134127  0.88185016  0.51158292  1
  O  O263  1  0.75431865  0.36513682  0.00721224  1
  O  O264  1  0.75427484  0.36828494  0.50665595  1
  O  O265  1  0.75496348  0.86281980  0.00260594  1
  O  O266  1  0.74827301  0.86513149  0.50622668  1
  O  O267  1  0.13885992  0.49648166  0.24864837  1
  O  O268  1  0.13260901  0.49375551  0.74344226  1
  O  O269  1  0.12731715  0.99344756  0.23930055  1
  O  O270  1  0.13941918  0.99276611  0.74384374  1
  O  O271  1  0.63435874  0.49156831  0.24080753  1
  O  O272  1  0.63457281  0.50182670  0.75975388  1
  O  O273  1  0.63212363  0.99309680  0.24287244  1
  O  O274  1  0.63122391  0.99994088  0.74117035  1
  O  O275  1  0.37314959  0.00799248  0.26029818  1
  O  O276  1  0.36509121  0.01143874  0.74218265  1
  O  O277  1  0.36616001  0.50571182  0.25258971  1
  O  O278  1  0.36661420  0.49563621  0.75580076  1
  O  O279  1  0.86861428  0.00796004  0.25100848  1
  O  O280  1  0.86862770  -0.00271702  0.76526919  1
  O  O281  1  0.86024518  0.50365689  0.24216731  1
  O  O282  1  0.86647062  0.50656044  0.75815990  1
  O  O283  1  0.12396614  0.37185047  0.36865587  1
  O  O284  1  0.11636000  0.38147242  0.86688005  1
  O  O285  1  0.13639540  0.87520609  0.35953826  1
  O  O286  1  0.10853188  0.88191706  0.88152146  1
  O  O287  1  0.61081213  0.37652323  0.35960144  1
  O  O288  1  0.62422574  0.35317983  0.87178600  1
  O  O289  1  0.61900760  0.86578200  0.36842338  1
  O  O290  1  0.61421749  0.86447186  0.87418102  1
  O  O291  1  0.37348291  0.13470109  0.13418855  1
  O  O292  1  0.36482988  0.12563513  0.63668037  1
  O  O293  1  0.38031403  0.63231476  0.12706215  1
  O  O294  1  0.38492981  0.63318001  0.62528037  1
  O  O295  1  0.88647036  0.12648465  0.13396272  1
  O  O296  1  0.86432276  0.12419557  0.62927826  1
  O  O297  1  0.88576013  0.62888871  0.12886036  1
  O  O298  1  0.87892691  0.62203549  0.63461069  1
  O  O299  1  0.26031344  0.26414756  0.12709364  1
  O  O300  1  0.24125967  0.26220899  0.61720543  1
  O  O301  1  0.25517645  0.76241748  0.12117399  1
  O  O302  1  0.26193362  0.75921488  0.62979395  1
  O  O303  1  0.75593491  0.25431964  0.11946024  1
  O  O304  1  0.75087479  0.26201867  0.61808896  1
  O  O305  1  0.75087514  0.75231448  0.11830144  1
  O  O306  1  0.74574288  0.75592147  0.61959275  1
  O  O307  1  0.24423817  0.24710391  0.38061563  1
  O  O308  1  0.25471625  0.24073298  0.87013055  1
  O  O309  1  0.25528630  0.73485479  0.37059159  1
  O  O310  1  0.29483904  0.73958543  0.88565754  1
  O  O311  1  0.74949369  0.25119007  0.38848483  1
  O  O312  1  0.74292178  0.24628069  0.88265586  1
  O  O313  1  0.74077269  0.73788093  0.38183292  1
  O  O314  1  0.73903301  0.74693889  0.88125936  1
  O  O315  1  0.00002998  0.12874688  0.01643877  1
  O  O316  1  0.01241722  0.11557873  0.49239181  1
  O  O317  1  0.00547955  0.61899927  0.00646078  1
  O  O318  1  -0.00414240  0.61750509  0.50980390  1
  O  O319  1  0.49102196  0.11264502  0.00187341  1
  O  O320  1  0.50564416  0.11317847  0.49687544  1
  O  O321  1  0.49439871  0.61216912  0.00405429  1
  O  O322  1  0.50381945  0.62624113  0.51493319  1
  O  O323  1  0.49933353  0.37477851  0.48086441  1
  O  O324  1  0.48827318  0.38535179  1.00046526  1
  O  O325  1  0.49873056  0.88616630  0.49079313  1
  O  O326  1  0.49577571  0.88690548  0.99246081  1
  O  O327  1  0.99271612  0.38617038  0.49907780  1
  O  O328  1  0.99707892  0.38233719  0.99635980  1
  O  O329  1  0.99939764  0.88977155  0.50444451  1
  O  O330  1  0.98664260  0.86809896  0.99769877  1
  O  O331  1  0.48630947  0.49633714  0.36757538  1
  O  O332  1  0.49768447  0.49371540  0.87988255  1
  O  O333  1  0.49221445  0.99498401  0.37936926  1
  O  O334  1  0.51151840  0.99448894  0.88200095  1
  O  O335  1  1.00529749  0.50376455  0.38716291  1
  O  O336  1  0.99198895  0.49607116  0.88776728  1
  O  O337  1  1.00770431  0.99863362  0.38503762  1
  O  O338  1  0.98749923  0.98716980  0.87920605  1
  O  O339  1  0.00670513  0.01476180  0.12894151  1
  O  O340  1  0.01355545  0.00276991  0.61607925  1
  O  O341  1  0.00006376  0.50657352  0.11413245  1
  O  O342  1  0.00436838  0.50638956  0.62071424  1
  O  O343  1  0.51156469  0.00150130  0.11715420  1
  O  O344  1  0.50773538  -0.00584730  0.61436871  1
  O  O345  1  0.50672563  0.50468345  0.11732863  1
  O  O346  1  0.49637177  0.51334688  0.63175329  1
  O  O347  1  0.24827403  0.38303348  0.24477300  1
  O  O348  1  0.24311256  0.38089701  0.74143178  1
  O  O349  1  0.24375829  0.87735043  0.23890078  1
  O  O350  1  0.25606849  0.88590960  0.74071420  1
  O  O351  1  0.74177603  0.37941025  0.24551599  1
  O  O352  1  0.75234602  0.38100019  0.73800795  1
  O  O353  1  0.74568944  0.87860669  0.24290656  1
  O  O354  1  0.74847501  0.88288624  0.74234986  1
  O  O355  1  0.25639805  0.12678346  0.26177699  1
  O  O356  1  0.25641497  0.11849351  0.75517286  1
  O  O357  1  0.25641280  0.61902185  0.25482373  1
  O  O358  1  0.25407243  0.60895239  0.73995588  1
  O  O359  1  0.76041215  0.11533038  0.25193277  1
  O  O360  1  0.74451164  0.11335604  0.75108773  1
  O  O361  1  0.75286325  0.61510567  0.25690538  1
  O  O362  1  0.75247081  0.61643767  0.75690300  1
  O  O363  1  0.36991461  0.12152711  0.36933545  1
  O  O364  1  0.36256782  0.12349430  0.85880482  1
  O  O365  1  0.36910674  0.61539806  0.37008384  1
  O  O366  1  0.38785791  0.60564102  0.86667187  1
  O  O367  1  0.87522617  0.13133402  0.36484258  1
  O  O368  1  0.87105782  0.10772247  0.88408515  1
  O  O369  1  0.85930582  0.62706996  0.36869176  1
  O  O370  1  0.86550695  0.61726293  0.87106550  1
  O  O371  1  0.13482574  0.37888859  0.13224552  1
  O  O372  1  0.12694760  0.38688724  0.63264866  1
  O  O373  1  0.13081386  0.88162140  0.12966716  1
  O  O374  1  0.13183853  0.88286145  0.62909365  1
  O  O375  1  0.62683316  0.38271739  0.13327853  1
  O  O376  1  0.63871389  0.37293796  0.62913067  1
  O  O377  1  0.63164671  0.88216351  0.13047043  1
  O  O378  1  0.63407899  0.88703231  0.62376331  1
  O  O379  1  0.12102145  0.25684773  0.25635720  1
  O  O380  1  0.12168446  0.26373695  0.74718425  1
  O  O381  1  0.11720286  0.75833213  0.25128411  1
  O  O382  1  0.12581412  0.75397423  0.75416863  1
  O  O383  1  0.62766891  0.26406026  0.24275066  1
  O  O384  1  0.60646808  0.23783716  0.75637044  1
  O  O385  1  0.62117046  0.75364923  0.25669142  1
  O  O386  1  0.61348008  0.75494290  0.75754558  1
  O  O387  1  0.37178959  0.24292284  0.24076367  1
  O  O388  1  0.38818097  0.23832403  0.74809639  1
  O  O389  1  0.38121425  0.74556542  0.24195476  1
  O  O390  1  0.38779372  0.75157095  0.73718539  1
  O  O391  1  0.87897450  0.24346793  0.24457394  1
  O  O392  1  0.89109446  0.27246965  0.74259921  1
  O  O393  1  0.88039739  0.73992478  0.24253214  1
  O  O394  1  0.87098476  0.73295969  0.75112684  1
  O  O395  1  0.37426198  0.50028446  0.48581846  1
  O  O396  1  0.38109167  0.49479957  0.99225139  1
  O  O397  1  0.38027309  1.00278345  0.48902391  1
  O  O398  1  0.38617892  0.98924165  1.00776603  1
  O  O399  1  0.88364884  0.49337825  0.50169251  1
  O  O400  1  0.88074993  0.49433760  0.99644676  1
  O  O401  1  0.89226623  1.00088174  0.49943848  1
  O  O402  1  0.86504583  0.98682032  0.98799395  1
  O  O403  1  0.12917983  0.00862087  0.01451606  1
  O  O404  1  0.11727321  0.00770167  0.50616167  1
  O  O405  1  0.11679121  0.50904208  0.00267904  1
  O  O406  1  0.11640243  0.50534712  0.50887200  1
  O  O407  1  0.61945670  -0.00580543  0.00995388  1
  O  O408  1  0.61675036  0.00465286  0.50429146  1
  O  O409  1  0.61657960  0.49114807  0.00796210  1
  O  O410  1  0.62779672  0.49001095  0.51055680  1
  O  O411  1  0.37068396  0.37098774  0.11885068  1
  O  O412  1  0.35985419  0.37792429  0.62400638  1
  O  O413  1  0.36722493  0.87426381  0.12198045  1
  O  O414  1  0.36757784  0.86819475  0.61916886  1
  O  O415  1  0.86915738  0.36835032  0.11987085  1
  O  O416  1  0.86411566  0.37651046  0.61022885  1
  O  O417  1  0.86401521  0.86597547  0.11489133  1
  O  O418  1  0.85984816  0.87103344  0.61712695  1
  O  O419  1  0.13374451  0.13349169  0.37960550  1
  O  O420  1  0.15007311  0.11327531  0.87772165  1
  O  O421  1  0.14425633  0.62555180  0.37419810  1
  O  O422  1  0.11986421  0.62016518  0.88762467  1
  O  O423  1  0.62553000  0.12110074  0.38803930  1
  O  O424  1  0.62932480  0.13890877  0.87559710  1
  O  O425  1  0.63370957  0.62707597  0.37599081  1
  O  O426  1  0.62644296  0.63872304  0.87285906  1
