# generated using pymatgen
data_V85Zn86O256
_symmetry_space_group_name_H-M   'P 1'
_cell_length_a   16.93376663
_cell_length_b   16.93149141
_cell_length_c   16.92881106
_cell_angle_alpha   90.02964196
_cell_angle_beta   90.06086535
_cell_angle_gamma   90.09001671
_symmetry_Int_Tables_number   1
_chemical_formula_structural   V85Zn86O256
_chemical_formula_sum   'V85 Zn86 O256'
_cell_volume   4853.71647013
_cell_formula_units_Z   1
loop_
 _symmetry_equiv_pos_site_id
 _symmetry_equiv_pos_as_xyz
  1  'x, y, z'
loop_
 _atom_site_type_symbol
 _atom_site_label
 _atom_site_symmetry_multiplicity
 _atom_site_fract_x
 _atom_site_fract_y
 _atom_site_fract_z
 _atom_site_occupancy
  V  V0  1  0.24763301  0.25220412  0.48963967  1
  V  V1  1  0.87041822  0.24866724  0.62666561  1
  V  V2  1  0.48880276  -0.00483920  0.50071620  1
  V  V3  1  0.00693238  0.75759829  0.25159369  1
  V  V4  1  0.62475249  0.24899305  0.87527605  1
  V  V5  1  0.00167683  0.12062905  0.62892610  1
  V  V6  1  0.49361483  0.24000040  0.75171578  1
  V  V7  1  0.12700901  0.25012097  0.87739724  1
  V  V8  1  0.25208700  0.87688419  0.60938457  1
  V  V9  1  0.74810906  0.74910389  0.00135457  1
  V  V10  1  0.62021439  0.48994890  0.61656966  1
  V  V11  1  0.50320366  0.75448049  0.24744901  1
  V  V12  1  0.00040619  0.50254114  -0.00007959  1
  V  V13  1  0.06569011  0.31851316  0.31779242  1
  V  V14  1  0.12545997  0.49994384  0.13254528  1
  V  V15  1  0.24499087  0.00337610  0.74516597  1
  V  V16  1  0.48716073  0.74601293  0.74965835  1
  V  V17  1  0.00081110  0.62721720  0.12520593  1
  V  V18  1  0.12740444  0.38143705  0.75101760  1
  V  V19  1  0.62448131  0.49815099  0.12225353  1
  V  V20  1  0.74605530  0.87465241  0.13175348  1
  V  V21  1  0.61691614  0.36538906  0.25157120  1
  V  V22  1  0.36986490  0.23959562  0.62806652  1
  V  V23  1  0.13056700  0.50088813  0.62650645  1
  V  V24  1  0.75789396  0.00296617  0.75292124  1
  V  V25  1  0.25650535  0.12780408  0.87239808  1
  V  V26  1  0.74765483  0.62288618  0.87395189  1
  V  V27  1  0.75196567  0.00139225  0.25880843  1
  V  V28  1  0.75856275  0.12176667  0.87324213  1
  V  V29  1  0.24588018  0.11816725  0.36635100  1
  V  V30  1  0.12526712  0.12698791  0.50372463  1
  V  V31  1  -0.00119510  0.00410282  0.49334656  1
  V  V32  1  0.37851705  0.00584490  0.86622992  1
  V  V33  1  0.10657193  0.00779402  0.12758218  1
  V  V34  1  0.75138547  0.74942018  0.50055807  1
  V  V35  1  0.37324541  0.75225506  0.60623920  1
  V  V36  1  0.49170291  0.87200713  0.37921203  1
  V  V37  1  0.24751420  0.75347748  -0.00241627  1
  V  V38  1  0.36849118  0.50077538  0.85788387  1
  V  V39  1  0.37152589  0.75230371  0.12484188  1
  V  V40  1  0.75054659  0.49681125  0.25022671  1
  V  V41  1  0.49911284  0.00003090  0.00021233  1
  V  V42  1  0.62375389  -0.00270399  0.62444188  1
  V  V43  1  0.74776871  0.49648056  0.74275925  1
  V  V44  1  0.74616971  0.25255644  0.50164009  1
  V  V45  1  0.87576601  0.88184429  0.49314951  1
  V  V46  1  0.89012772  0.24548407  0.12926549  1
  V  V47  1  0.62629049  0.12532146  0.00189139  1
  V  V48  1  0.87394100  0.49933230  0.87429718  1
  V  V49  1  0.61938371  0.62120541  0.49890708  1
  V  V50  1  0.49847515  0.87365409  0.87552653  1
  V  V51  1  0.87846198  0.49501311  0.37473345  1
  V  V52  1  0.00355712  0.49552433  0.49600501  1
  V  V53  1  0.62628200  0.75504484  0.37010063  1
  V  V54  1  0.62163102  0.74760527  0.87355585  1
  V  V55  1  0.37112402  0.62204931  0.25104398  1
  V  V56  1  0.87757868  0.88107809  -0.00495300  1
  V  V57  1  0.62184402  0.62195550  -0.00062814  1
  V  V58  1  0.75233602  0.36821225  0.12572668  1
  V  V59  1  0.87613433  0.75085433  0.12744942  1
  V  V60  1  0.25127862  0.62769274  0.86184557  1
  V  V61  1  0.49875593  0.12644935  0.13662075  1
  V  V62  1  0.25222070  0.37562713  0.62698887  1
  V  V63  1  0.24818269  0.62694501  0.38411709  1
  V  V64  1  0.87491357  0.62681633  0.74897804  1
  V  V65  1  0.75658946  0.87425036  0.62579429  1
  V  V66  1  0.24376023  0.88654669  0.13971643  1
  V  V67  1  0.12899773  0.76168188  0.38213427  1
  V  V68  1  0.24403719  0.37009578  0.12448231  1
  V  V69  1  0.48604622  0.49845497  0.00156081  1
  V  V70  1  0.62703205  0.37230152  0.74863937  1
  V  V71  1  0.00035598  0.62527572  0.62386528  1
  V  V72  1  0.49389529  0.61900725  0.62711016  1
  V  V73  1  0.88773694  0.12512818  0.25707126  1
  V  V74  1  0.62279006  -0.00433867  0.13279244  1
  V  V75  1  0.00098432  0.37968986  0.87331874  1
  V  V76  1  -0.00442263  0.24755672  0.74820722  1
  V  V77  1  0.12644688  0.63184687  -0.00302750  1
  V  V78  1  0.62259964  0.12270685  0.49894608  1
  V  V79  1  0.13342441  0.86342831  0.75389324  1
  V  V80  1  0.49353343  0.37441369  0.87877814  1
  V  V81  1  0.87025874  0.37503505  0.50239356  1
  V  V82  1  0.62545182  0.87153126  0.74941332  1
  V  V83  1  0.38262553  0.25842732  0.12565026  1
  V  V84  1  0.74956461  0.62303754  0.37500648  1
  Zn  Zn85  1  0.49461117  0.37432387  0.38513895  1
  Zn  Zn86  1  0.12649432  0.63086789  0.50133572  1
  Zn  Zn87  1  0.93306068  0.03434665  0.92097247  1
  Zn  Zn88  1  0.61712876  0.24196623  0.36974272  1
  Zn  Zn89  1  -0.00039992  0.88309516  0.36811441  1
  Zn  Zn90  1  0.24585805  0.49444680  0.25503464  1
  Zn  Zn91  1  0.11328553  0.11488391  -0.00140971  1
  Zn  Zn92  1  0.49804342  0.62464270  0.12570884  1
  Zn  Zn93  1  0.38553439  0.37978161  0.50309238  1
  Zn  Zn94  1  0.75240691  0.25024364  -0.00071709  1
  Zn  Zn95  1  0.87477409  0.37587711  0.00202797  1
  Zn  Zn96  1  0.36556971  -0.00692242  0.37072939  1
  Zn  Zn97  1  0.01430515  0.87242043  0.88284339  1
  Zn  Zn98  1  0.49410620  0.11948900  0.62843239  1
  Zn  Zn99  1  0.37229248  0.87838043  0.00022532  1
  Zn  Zn100  1  0.37958979  0.49853882  0.38873080  1
  Zn  Zn101  1  0.75407341  0.12240721  0.37849237  1
  Zn  Zn102  1  0.87634570  0.62429157  0.25188417  1
  Zn  Zn103  1  0.87890642  0.75069895  0.62349048  1
  Zn  Zn104  1  0.36981272  0.12287332  0.24921136  1
  Zn  Zn105  1  0.00904991  0.74735677  0.75497264  1
  Zn  Zn106  1  0.25403218  0.25292161  -0.00197812  1
  Zn  Zn107  1  0.17603090  0.18995634  0.18682483  1
  Zn  Zn108  1  0.18512548  0.18861917  0.69040081  1
  Zn  Zn109  1  0.18735997  0.69134415  0.19063745  1
  Zn  Zn110  1  0.19387991  0.69004686  0.67979185  1
  Zn  Zn111  1  0.69261005  0.18416671  0.18814475  1
  Zn  Zn112  1  0.68664807  0.18535438  0.68544389  1
  Zn  Zn113  1  0.68692256  0.68389555  0.18797149  1
  Zn  Zn114  1  0.68378677  0.68541252  0.68529705  1
  Zn  Zn115  1  0.31542629  0.31265219  0.30767897  1
  Zn  Zn116  1  0.31284544  0.31621182  0.81070906  1
  Zn  Zn117  1  0.31184001  0.80962641  0.31349605  1
  Zn  Zn118  1  0.31207223  0.81463693  0.81287869  1
  Zn  Zn119  1  0.81384546  0.30779571  0.31590599  1
  Zn  Zn120  1  0.81147408  0.31125997  0.81278975  1
  Zn  Zn121  1  0.81453586  0.81325553  0.31182437  1
  Zn  Zn122  1  0.81334214  0.80924384  0.81228017  1
  Zn  Zn123  1  0.19523533  0.44057018  0.43921560  1
  Zn  Zn124  1  0.19139081  0.44080231  0.94358445  1
  Zn  Zn125  1  0.17844729  0.94506867  0.44089828  1
  Zn  Zn126  1  0.18964282  0.94210385  0.93921781  1
  Zn  Zn127  1  0.68704030  0.43261749  0.43660424  1
  Zn  Zn128  1  0.68589353  0.43592453  0.93739905  1
  Zn  Zn129  1  0.68279455  0.93463175  0.43867190  1
  Zn  Zn130  1  0.68872020  0.93718278  0.94076769  1
  Zn  Zn131  1  0.31199095  0.06640076  0.05698347  1
  Zn  Zn132  1  0.31000330  0.06254974  0.55996455  1
  Zn  Zn133  1  0.30847482  0.56395747  0.06373830  1
  Zn  Zn134  1  0.31208774  0.56615481  0.56558807  1
  Zn  Zn135  1  0.81105245  0.06431886  0.06993782  1
  Zn  Zn136  1  0.81439656  0.06448139  0.56519049  1
  Zn  Zn137  1  0.81300714  0.56174220  0.06322837  1
  Zn  Zn138  1  0.81007919  0.56061656  0.56257917  1
  Zn  Zn139  1  0.43577866  0.43743291  0.19165397  1
  Zn  Zn140  1  0.43990029  0.43097873  0.68386825  1
  Zn  Zn141  1  0.43205210  0.93757475  0.19212745  1
  Zn  Zn142  1  0.43399706  0.93287361  0.68755246  1
  Zn  Zn143  1  0.94092836  0.43323577  0.18990654  1
  Zn  Zn144  1  0.93830423  0.43581543  0.68340225  1
  Zn  Zn145  1  0.93428512  0.94061537  0.18692966  1
  Zn  Zn146  1  0.96014967  0.95819467  0.72269227  1
  Zn  Zn147  1  0.07208426  0.06326982  0.31090064  1
  Zn  Zn148  1  0.06789877  0.06298067  0.81575471  1
  Zn  Zn149  1  0.06170957  0.56897076  0.31436311  1
  Zn  Zn150  1  0.06582633  0.56621188  0.81257514  1
  Zn  Zn151  1  0.56030499  0.05752797  0.31461257  1
  Zn  Zn152  1  0.56914756  0.06096995  0.81296439  1
  Zn  Zn153  1  0.55907986  0.56052308  0.31180098  1
  Zn  Zn154  1  0.55839106  0.56025898  0.80991657  1
  Zn  Zn155  1  0.43474444  0.19222612  0.43544302  1
  Zn  Zn156  1  0.43621351  0.18728381  0.94428969  1
  Zn  Zn157  1  0.44074343  0.68065276  0.43461794  1
  Zn  Zn158  1  0.43202904  0.68359200  0.93796017  1
  Zn  Zn159  1  0.94079866  0.19206903  0.43428492  1
  Zn  Zn160  1  0.94150638  0.20024597  0.94362061  1
  Zn  Zn161  1  0.93865634  0.68781923  0.43725514  1
  Zn  Zn162  1  0.93983769  0.69409447  0.93487598  1
  Zn  Zn163  1  0.06473160  0.31555631  0.06163903  1
  Zn  Zn164  1  0.06193525  0.31204738  0.55694056  1
  Zn  Zn165  1  0.06452475  0.81923249  0.06407383  1
  Zn  Zn166  1  0.06261797  0.81814436  0.56702850  1
  Zn  Zn167  1  0.56202102  0.31285681  0.06241864  1
  Zn  Zn168  1  0.55556996  0.30676100  0.55996350  1
  Zn  Zn169  1  0.56129233  0.81325316  0.06272602  1
  Zn  Zn170  1  0.56230580  0.80963686  0.56112098  1
  O  O171  1  0.12622471  0.11370157  0.11686330  1
  O  O172  1  0.11301445  0.13186717  0.61994298  1
  O  O173  1  0.12034644  0.62253133  0.11680686  1
  O  O174  1  0.12016410  0.61864356  0.62422699  1
  O  O175  1  0.62140401  0.11874170  0.11862693  1
  O  O176  1  0.62143906  0.11281663  0.61786326  1
  O  O177  1  0.62316637  0.61639205  0.11746070  1
  O  O178  1  0.61668829  0.61623182  0.61722779  1
  O  O179  1  0.37096629  0.37680559  0.38052768  1
  O  O180  1  0.38014992  0.38860654  0.87309367  1
  O  O181  1  0.38739877  0.87151460  0.37467449  1
  O  O182  1  0.38273924  0.88280517  0.87694391  1
  O  O183  1  0.86710545  0.38236831  0.38946244  1
  O  O184  1  0.88022925  0.38314503  0.87538998  1
  O  O185  1  0.87793462  0.87104743  0.38921342  1
  O  O186  1  0.86304182  0.87165987  0.89445315  1
  O  O187  1  0.24839482  0.01321958  0.38014232  1
  O  O188  1  0.25927046  0.00753144  0.86665545  1
  O  O189  1  0.25087357  0.51407045  0.37010921  1
  O  O190  1  0.26196109  0.50878431  0.87825307  1
  O  O191  1  0.74362442  -0.00523911  0.36173058  1
  O  O192  1  0.73938506  0.00821323  0.86534561  1
  O  O193  1  0.75469164  0.50284191  0.36726838  1
  O  O194  1  0.75208809  0.50419256  0.86434199  1
  O  O195  1  0.24060732  0.49342300  0.12459189  1
  O  O196  1  0.23668110  0.49463923  0.62515480  1
  O  O197  1  0.25989718  0.98538635  0.12213795  1
  O  O198  1  0.26434487  0.98522230  0.63263694  1
  O  O199  1  0.74813483  0.49058689  0.13170190  1
  O  O200  1  0.73883857  0.50333894  0.63678587  1
  O  O201  1  0.74170035  0.99269498  0.13281927  1
  O  O202  1  0.74125368  0.99323080  0.62957826  1
  O  O203  1  0.00156258  0.37893607  0.26464668  1
  O  O204  1  0.00663606  0.36873968  0.75279017  1
  O  O205  1  -0.01227449  0.86197949  0.25168707  1
  O  O206  1  0.02820906  0.86704033  0.72846699  1
  O  O207  1  0.51717390  0.37190782  0.23957811  1
  O  O208  1  0.50865276  0.36854632  0.76117580  1
  O  O209  1  0.49825812  0.86047258  0.25702705  1
  O  O210  1  0.50652044  0.86590486  0.75498456  1
  O  O211  1  0.50821427  0.12696762  0.23783663  1
  O  O212  1  0.50736904  0.13701461  0.75107101  1
  O  O213  1  0.49163652  0.63704968  0.24730320  1
  O  O214  1  0.50605544  0.63398028  0.73790468  1
  O  O215  1  0.98616818  0.12042350  0.25560472  1
  O  O216  1  1.00700819  0.14025475  0.74519123  1
  O  O217  1  0.99616740  0.63739590  0.24219371  1
  O  O218  1  0.99158120  0.62436767  0.74356408  1
  O  O219  1  0.37069612  0.24432161  0.01831190  1
  O  O220  1  0.36308374  0.25239148  0.51241773  1
  O  O221  1  0.36730029  0.75020591  0.00886162  1
  O  O222  1  0.38361257  0.75083341  0.50835289  1
  O  O223  1  0.87178026  0.25426010  0.01484693  1
  O  O224  1  0.86754519  0.25702302  0.50502284  1
  O  O225  1  0.86704653  0.75521533  0.01106363  1
  O  O226  1  0.86844281  0.75650896  0.50325053  1
  O  O227  1  0.13476530  0.23881367  0.50827947  1
  O  O228  1  0.12442119  0.25095380  0.98456049  1
  O  O229  1  0.11514148  0.75001795  0.48543384  1
  O  O230  1  0.13086887  0.74062463  1.00415650  1
  O  O231  1  0.63193756  0.23717077  0.50808276  1
  O  O232  1  0.62678115  0.24163381  0.99525591  1
  O  O233  1  0.63109261  0.74026724  0.49286993  1
  O  O234  1  0.62844717  0.74300176  0.99430492  1
  O  O235  1  0.49048427  0.24323633  0.12031530  1
  O  O236  1  0.48965210  0.24587509  0.63586646  1
  O  O237  1  0.49155888  0.75009632  0.13057157  1
  O  O238  1  0.49210263  0.74399691  0.62994740  1
  O  O239  1  0.98868672  0.25327151  0.12219305  1
  O  O240  1  0.99299054  0.24669357  0.63143282  1
  O  O241  1  0.99402084  0.74893381  0.13016009  1
  O  O242  1  1.00061089  0.73541958  0.62673412  1
  O  O243  1  0.01065441  0.26346238  0.38558886  1
  O  O244  1  0.00588268  0.26173734  0.86570533  1
  O  O245  1  0.00881030  0.75104046  0.36723398  1
  O  O246  1  -0.00697822  0.76148680  0.86589588  1
  O  O247  1  0.50639513  0.25750779  0.38192022  1
  O  O248  1  0.50127280  0.25703371  0.87144240  1
  O  O249  1  0.50713923  0.75275393  0.36873059  1
  O  O250  1  0.50126359  0.75078773  0.86826383  1
  O  O251  1  0.24146830  0.13222892  0.49848064  1
  O  O252  1  0.24635485  0.12790243  0.98245982  1
  O  O253  1  0.24786482  0.62902450  0.48837628  1
  O  O254  1  0.24358535  0.63512416  0.99551847  1
  O  O255  1  0.74189837  0.12879984  0.49982877  1
  O  O256  1  0.73865350  0.12300564  0.99578753  1
  O  O257  1  0.74027221  0.62906438  0.49628837  1
  O  O258  1  0.74323105  0.62876850  0.99461730  1
  O  O259  1  0.25065633  0.37486958  0.01611485  1
  O  O260  1  0.24308543  0.36555587  0.51531434  1
  O  O261  1  0.25128946  0.86156724  -0.00032799  1
  O  O262  1  0.24904987  0.88322655  0.51078527  1
  O  O263  1  0.75183642  0.37582241  0.01101792  1
  O  O264  1  0.75559937  0.36573048  0.50273910  1
  O  O265  1  0.75401852  0.86802458  0.01139829  1
  O  O266  1  0.75531146  0.87124431  0.50604445  1
  O  O267  1  0.12445233  0.51242554  0.23514115  1
  O  O268  1  0.11781246  0.48880187  0.74287931  1
  O  O269  1  0.12293323  1.00202425  0.22950340  1
  O  O270  1  0.14175199  0.99077066  0.74795274  1
  O  O271  1  0.63582013  0.49263158  0.24181251  1
  O  O272  1  0.62947474  0.49222329  0.74398154  1
  O  O273  1  0.63185077  1.00307897  0.23817972  1
  O  O274  1  0.62794522  0.99132609  0.73860745  1
  O  O275  1  0.38773684  0.01115972  0.26062776  1
  O  O276  1  0.36874472  -0.00530523  0.76075816  1
  O  O277  1  0.36996474  0.51730462  0.24007956  1
  O  O278  1  0.37744992  0.49845672  0.75970352  1
  O  O279  1  0.86553472  0.01549710  0.24205261  1
  O  O280  1  0.85638141  -0.00049291  0.74353284  1
  O  O281  1  0.86442121  0.49938106  0.25390541  1
  O  O282  1  0.86639405  0.50620386  0.75065901  1
  O  O283  1  0.13129044  0.37759998  0.36986335  1
  O  O284  1  0.12386189  0.37395895  0.86869537  1
  O  O285  1  0.12031418  0.86581450  0.37817164  1
  O  O286  1  0.13238530  0.87799308  0.85831057  1
  O  O287  1  0.62770357  0.37562200  0.35681745  1
  O  O288  1  0.61704549  0.36874273  0.86876958  1
  O  O289  1  0.61781454  0.85897123  0.37805634  1
  O  O290  1  0.61934149  0.86730443  0.87142878  1
  O  O291  1  0.38547506  0.12968314  0.12413408  1
  O  O292  1  0.37415732  0.13525062  0.62543715  1
  O  O293  1  0.37240465  0.63815766  0.13001380  1
  O  O294  1  0.38269985  0.63892352  0.62351318  1
  O  O295  1  0.87120002  0.13906316  0.13368579  1
  O  O296  1  0.88385757  0.14132604  0.62061718  1
  O  O297  1  0.88132420  0.63471361  0.12422307  1
  O  O298  1  0.88228885  0.62221472  0.63235647  1
  O  O299  1  0.25113641  0.25866762  0.12157938  1
  O  O300  1  0.25479764  0.25609582  0.62356470  1
  O  O301  1  0.25402101  0.75946040  0.11844686  1
  O  O302  1  0.26570992  0.75791834  0.62078880  1
  O  O303  1  0.75465261  0.25956466  0.12334032  1
  O  O304  1  0.75792199  0.24437465  0.61596238  1
  O  O305  1  0.75525010  0.75535832  0.12330233  1
  O  O306  1  0.74802180  0.75725693  0.61868349  1
  O  O307  1  0.25230038  0.24330677  0.38741535  1
  O  O308  1  0.24485354  0.24622313  0.87331639  1
  O  O309  1  0.23460796  0.74793164  0.37230454  1
  O  O310  1  0.26019841  0.73572342  0.88240973  1
  O  O311  1  0.74254903  0.24739045  0.38976198  1
  O  O312  1  0.74306870  0.24176602  0.87653042  1
  O  O313  1  0.74342712  0.74441603  0.37760100  1
  O  O314  1  0.74255114  0.74135045  0.87956874  1
  O  O315  1  0.00481604  0.11209637  -0.03878404  1
  O  O316  1  0.00408000  0.12217834  0.50728078  1
  O  O317  1  0.00702649  0.62312595  0.00315554  1
  O  O318  1  -0.00107722  0.61431643  0.50879663  1
  O  O319  1  0.51177660  0.11874431  0.00618126  1
  O  O320  1  0.50686996  0.11379601  0.50389557  1
  O  O321  1  0.50476447  0.61638265  0.00090395  1
  O  O322  1  0.51236140  0.62714932  0.50873353  1
  O  O323  1  0.50191966  0.38264847  0.50341975  1
  O  O324  1  0.50580112  0.38315437  0.98632474  1
  O  O325  1  0.50665429  0.88190482  0.49183534  1
  O  O326  1  0.49885844  0.88231137  0.99317728  1
  O  O327  1  0.99157460  0.38978811  0.50716738  1
  O  O328  1  0.99945571  0.38534695  0.99202148  1
  O  O329  1  0.99162658  0.88722612  0.50636183  1
  O  O330  1  0.98277624  0.87217223  0.99927109  1
  O  O331  1  0.49024480  0.48865214  0.35740618  1
  O  O332  1  0.48803391  0.49506136  0.87839752  1
  O  O333  1  0.50576816  0.98625719  0.38565600  1
  O  O334  1  0.49635575  0.99592918  0.87743804  1
  O  O335  1  0.99067842  0.50941116  0.38493543  1
  O  O336  1  0.99488369  0.49845324  0.87861400  1
  O  O337  1  1.00506866  1.00113461  0.38911101  1
  O  O338  1  0.99093791  0.98045799  0.83911094  1
  O  O339  1  0.00708399  -0.00256280  0.12097078  1
  O  O340  1  -0.00852238  0.01794755  0.62624218  1
  O  O341  1  0.00444825  0.50558689  0.11907178  1
  O  O342  1  0.00873080  0.50843417  0.62066449  1
  O  O343  1  0.50625839  0.00532800  0.12082715  1
  O  O344  1  0.50537553  -0.00372067  0.61997741  1
  O  O345  1  0.50374544  0.49989584  0.11627380  1
  O  O346  1  0.50782857  0.51002508  0.63337980  1
  O  O347  1  0.25653911  0.38002799  0.23070154  1
  O  O348  1  0.23973754  0.37228261  0.73828276  1
  O  O349  1  0.25329306  0.87364475  0.23769371  1
  O  O350  1  0.24623515  0.87977426  0.74301900  1
  O  O351  1  0.74590445  0.37980800  0.24281558  1
  O  O352  1  0.73594325  0.38162368  0.75570552  1
  O  O353  1  0.75807899  0.88197962  0.23823683  1
  O  O354  1  0.74445790  0.87805961  0.74369044  1
  O  O355  1  0.24316216  0.13020360  0.26513591  1
  O  O356  1  0.24819104  0.11665836  0.75818602  1
  O  O357  1  0.25732991  0.62932132  0.25952718  1
  O  O358  1  0.24599621  0.62737771  0.76324237  1
  O  O359  1  0.75582213  0.11611373  0.25503000  1
  O  O360  1  0.73944831  0.11520885  0.76081594  1
  O  O361  1  0.75138094  0.61356273  0.25506999  1
  O  O362  1  0.75405877  0.61676541  0.75302240  1
  O  O363  1  0.35587688  0.12604358  0.37838494  1
  O  O364  1  0.37145320  0.11811511  0.87552782  1
  O  O365  1  0.36623805  0.62723064  0.36714489  1
  O  O366  1  0.36394926  0.61246053  0.87513536  1
  O  O367  1  0.87237347  0.13188300  0.36197597  1
  O  O368  1  0.86008531  0.12649470  0.88298641  1
  O  O369  1  0.86584524  0.61662208  0.37564574  1
  O  O370  1  0.86863257  0.61925032  0.86680496  1
  O  O371  1  0.13362842  0.38537557  0.12145254  1
  O  O372  1  0.12793694  0.38159216  0.63231246  1
  O  O373  1  0.13804176  0.88449018  0.12374830  1
  O  O374  1  0.14779980  0.86656866  0.63079868  1
  O  O375  1  0.63360176  0.37838529  0.13136030  1
  O  O376  1  0.61833099  0.38333501  0.63502274  1
  O  O377  1  0.63348012  0.88318228  0.12096056  1
  O  O378  1  0.63421546  0.87888226  0.62721035  1
  O  O379  1  0.11580955  0.25689843  0.25315255  1
  O  O380  1  0.11832418  0.26209281  0.75895131  1
  O  O381  1  0.11566992  0.74891659  0.26183008  1
  O  O382  1  0.13389852  0.75985719  0.75014436  1
  O  O383  1  0.63285045  0.26251299  0.24906861  1
  O  O384  1  0.61865301  0.25663878  0.75339020  1
  O  O385  1  0.61698259  0.74231336  0.25848309  1
  O  O386  1  0.61710379  0.75355461  0.75487149  1
  O  O387  1  0.36795034  0.24052746  0.22996815  1
  O  O388  1  0.38442323  0.25469867  0.74419796  1
  O  O389  1  0.38080472  0.74300784  0.24293967  1
  O  O390  1  0.38553940  0.75313035  0.74449899  1
  O  O391  1  0.87049027  0.23893439  0.23992362  1
  O  O392  1  0.88418320  0.25825475  0.74081086  1
  O  O393  1  0.87754662  0.74726993  0.23854985  1
  O  O394  1  0.87060669  0.73548824  0.74430380  1
  O  O395  1  0.36257353  0.49271145  0.50253450  1
  O  O396  1  0.38430775  0.50573230  0.99477645  1
  O  O397  1  0.38660278  1.00175095  0.49557781  1
  O  O398  1  0.38301675  1.00018428  0.98736552  1
  O  O399  1  0.87879444  0.49294115  0.49746948  1
  O  O400  1  0.88191144  0.50052373  0.99284603  1
  O  O401  1  0.88278345  0.99294046  0.50553455  1
  O  O402  1  0.86620016  0.98583288  1.00328124  1
  O  O403  1  0.13197521  -0.00206645  0.01713412  1
  O  O404  1  0.11367270  0.01442599  0.50773778  1
  O  O405  1  0.12004167  0.51294439  0.00804525  1
  O  O406  1  0.11783926  0.50265908  0.50848027  1
  O  O407  1  0.62013824  0.00564808  0.01015439  1
  O  O408  1  0.62028401  0.00261137  0.51098809  1
  O  O409  1  0.61591771  0.50370852  0.00323704  1
  O  O410  1  0.63379464  0.50642835  0.50947859  1
  O  O411  1  0.37074209  0.36338883  0.12577909  1
  O  O412  1  0.36495001  0.36458315  0.62818627  1
  O  O413  1  0.36788405  0.86540355  0.12270189  1
  O  O414  1  0.36778313  0.86077094  0.62558143  1
  O  O415  1  0.86917707  0.36389486  0.12777878  1
  O  O416  1  0.87732094  0.36539192  0.61357438  1
  O  O417  1  0.86689452  0.86816978  0.11617824  1
  O  O418  1  0.86133719  0.87321383  0.61871400  1
  O  O419  1  0.13680418  0.12356433  0.38708230  1
  O  O420  1  0.13729099  0.13666020  0.86918808  1
  O  O421  1  0.13215240  0.63641295  0.37785922  1
  O  O422  1  0.14096125  0.61846261  0.88345467  1
  O  O423  1  0.62717470  0.12089817  0.38866926  1
  O  O424  1  0.62907870  0.13095878  0.88458004  1
  O  O425  1  0.62818249  0.62978172  0.38150666  1
  O  O426  1  0.62767523  0.62739128  0.87868587  1
