# generated using pymatgen
data_V85Zn86O256
_symmetry_space_group_name_H-M   'P 1'
_cell_length_a   16.95116668
_cell_length_b   16.94039028
_cell_length_c   16.95200243
_cell_angle_alpha   89.95537921
_cell_angle_beta   89.92355744
_cell_angle_gamma   90.12830094
_symmetry_Int_Tables_number   1
_chemical_formula_structural   V85Zn86O256
_chemical_formula_sum   'V85 Zn86 O256'
_cell_volume   4867.90846858
_cell_formula_units_Z   1
loop_
 _symmetry_equiv_pos_site_id
 _symmetry_equiv_pos_as_xyz
  1  'x, y, z'
loop_
 _atom_site_type_symbol
 _atom_site_label
 _atom_site_symmetry_multiplicity
 _atom_site_fract_x
 _atom_site_fract_y
 _atom_site_fract_z
 _atom_site_occupancy
  V  V0  1  0.63026559  0.50322399  0.62048979  1
  V  V1  1  0.49192536  0.62252497  0.13180907  1
  V  V2  1  0.50223180  0.35949081  0.36418760  1
  V  V3  1  0.12408737  0.12763453  -0.00052027  1
  V  V4  1  0.63201419  0.35885279  0.24591927  1
  V  V5  1  0.12551677  0.38323896  0.75045962  1
  V  V6  1  -0.00141319  0.75195545  0.74674558  1
  V  V7  1  0.37056322  0.24090081  0.63310667  1
  V  V8  1  0.12353656  0.62520921  -0.00080714  1
  V  V9  1  -0.00643770  0.49917137  -0.00017520  1
  V  V10  1  0.37611774  0.37569867  0.49963320  1
  V  V11  1  0.62268075  0.62796774  0.00461456  1
  V  V12  1  0.37295856  0.61768503  0.74503215  1
  V  V13  1  0.49326360  0.12342795  0.13645473  1
  V  V14  1  0.25356320  0.38455359  0.63240258  1
  V  V15  1  0.74987540  0.25522881  0.00604255  1
  V  V16  1  0.50540367  0.62630527  0.61943367  1
  V  V17  1  0.50478733  0.50127119  0.49464061  1
  V  V18  1  0.62720800  0.37236282  0.75572130  1
  V  V19  1  -0.00297084  0.37068759  0.87131281  1
  V  V20  1  0.25522038  0.75018077  -0.00232575  1
  V  V21  1  -0.00091593  0.87578067  0.87541375  1
  V  V22  1  0.74507879  0.73436502  0.49876546  1
  V  V23  1  0.87354940  0.49827416  0.87395821  1
  V  V24  1  0.00289098  0.12774793  0.13097711  1
  V  V25  1  0.00665029  0.50247691  0.49436809  1
  V  V26  1  0.25987270  0.38173151  0.11422251  1
  V  V27  1  -0.01377605  -0.00198163  0.49718895  1
  V  V28  1  0.24760946  0.12546825  0.37418332  1
  V  V29  1  0.62631828  0.75030703  0.87489987  1
  V  V30  1  0.00021571  0.12958610  0.62762471  1
  V  V31  1  0.87051234  0.85924210  0.00786833  1
  V  V32  1  0.37900166  0.50339835  0.35940180  1
  V  V33  1  0.24821460  0.24900690  0.50136474  1
  V  V34  1  0.88295015  0.37203569  0.49569917  1
  V  V35  1  0.75008426  0.62707906  0.88297902  1
  V  V36  1  0.62377113  0.24521779  0.88529753  1
  V  V37  1  0.87513895  0.75469982  0.61555067  1
  V  V38  1  0.49628083  0.24159971  0.75480734  1
  V  V39  1  -0.00437795  -0.00010993  0.00144330  1
  V  V40  1  0.75127258  -0.00378641  0.75113718  1
  V  V41  1  0.12714972  0.87814883  0.74899831  1
  V  V42  1  0.87823580  0.13114741  0.75378106  1
  V  V43  1  0.12099683  0.74863950  0.37874002  1
  V  V44  1  0.01161497  0.26360881  0.25629128  1
  V  V45  1  0.19107545  0.44706202  0.29749791  1
  V  V46  1  0.37772355  0.00383014  0.37025840  1
  V  V47  1  0.63347209  0.00217488  0.11888582  1
  V  V48  1  0.12150616  0.87509194  0.25264936  1
  V  V49  1  0.50148941  0.00314814  -0.00311247  1
  V  V50  1  0.87440259  0.25679315  0.12904565  1
  V  V51  1  -0.00564393  0.63178966  0.12799074  1
  V  V52  1  0.25329654  0.00334374  0.24860951  1
  V  V53  1  0.24763373  0.74149473  0.49826263  1
  V  V54  1  0.50634261  0.87609613  0.37286489  1
  V  V55  1  0.25839429  0.12422874  0.86938212  1
  V  V56  1  0.25251347  0.87489713  0.12378840  1
  V  V57  1  0.25282014  0.63127667  0.35695815  1
  V  V58  1  -0.01470844  0.87786667  0.37815387  1
  V  V59  1  0.86310794  0.63170179  0.25220002  1
  V  V60  1  0.00556574  0.62585787  0.61944505  1
  V  V61  1  0.75310094  -0.00229129  0.26101376  1
  V  V62  1  0.62439730  0.73327577  0.37926321  1
  V  V63  1  0.73490956  0.13733361  0.38445463  1
  V  V64  1  0.37750476  0.49487972  0.87814402  1
  V  V65  1  0.37774163  0.74991806  0.62339336  1
  V  V66  1  0.88087184  0.25627448  0.62633189  1
  V  V67  1  0.74855977  0.12279417  0.88422351  1
  V  V68  1  0.63659324  0.49517163  0.12623511  1
  V  V69  1  0.12554340  0.00156733  0.62148660  1
  V  V70  1  0.75275231  0.87603897  0.61361950  1
  V  V71  1  0.86806032  0.50010178  0.37518894  1
  V  V72  1  0.62616848  0.00723924  0.61818518  1
  V  V73  1  0.87656040  0.12366597  0.26250781  1
  V  V74  1  0.37766813  0.87902349  0.49972319  1
  V  V75  1  0.70484047  0.31896921  0.57020489  1
  V  V76  1  0.25832124  0.25531519  -0.00064798  1
  V  V77  1  0.11981212  0.24880630  0.86982480  1
  V  V78  1  0.25170932  0.87579692  0.62346330  1
  V  V79  1  0.74849256  0.49694947  0.74902186  1
  V  V80  1  0.87350774  0.62512241  0.74805107  1
  V  V81  1  0.24982159  0.61982524  0.86739201  1
  V  V82  1  0.12688314  0.75109108  0.87290891  1
  V  V83  1  0.12474311  0.00231715  0.12626769  1
  V  V84  1  0.12493005  0.49550343  0.12341099  1
  Zn  Zn85  1  0.12604015  0.26433781  0.37439782  1
  Zn  Zn86  1  0.62715899  0.87232023  0.24896747  1
  Zn  Zn87  1  0.75161532  0.49421879  0.24874565  1
  Zn  Zn88  1  0.38743811  0.25322951  0.13380734  1
  Zn  Zn89  1  0.50067641  0.75019113  0.75068939  1
  Zn  Zn90  1  0.74936132  0.86024725  0.12721185  1
  Zn  Zn91  1  0.49868347  0.49119818  0.00513361  1
  Zn  Zn92  1  0.87373535  -0.00227451  0.87741607  1
  Zn  Zn93  1  0.37944542  0.87442842  -0.00177863  1
  Zn  Zn94  1  0.13071736  0.50976463  0.62845839  1
  Zn  Zn95  1  0.37121395  0.74360808  0.13591051  1
  Zn  Zn96  1  0.26059446  0.00934721  0.74172520  1
  Zn  Zn97  1  0.62516105  0.87133735  0.74797201  1
  Zn  Zn98  1  0.49869969  0.12281653  0.62488911  1
  Zn  Zn99  1  -0.00750751  0.75426341  0.24777624  1
  Zn  Zn100  1  0.49823495  0.87098762  0.87437517  1
  Zn  Zn101  1  0.87082467  0.37758542  0.00632401  1
  Zn  Zn102  1  0.12117186  0.12844545  0.49862408  1
  Zn  Zn103  1  0.49505225  0.36902213  0.88366101  1
  Zn  Zn104  1  0.38055576  -0.00336470  0.86658935  1
  Zn  Zn105  1  0.49356787  0.74611978  0.25417985  1
  Zn  Zn106  1  0.51187279  0.01240770  0.49150568  1
  Zn  Zn107  1  0.21770616  0.20949137  0.20369378  1
  Zn  Zn108  1  0.18265527  0.19323842  0.68965032  1
  Zn  Zn109  1  0.18026831  0.69014836  0.18554275  1
  Zn  Zn110  1  0.18908452  0.69095113  0.68762004  1
  Zn  Zn111  1  0.68916212  0.17879496  0.18691537  1
  Zn  Zn112  1  0.68811096  0.18308252  0.69856181  1
  Zn  Zn113  1  0.67879946  0.68607847  0.19375291  1
  Zn  Zn114  1  0.68890995  0.68603831  0.68887120  1
  Zn  Zn115  1  0.32505724  0.30809031  0.31142793  1
  Zn  Zn116  1  0.30874101  0.31172070  0.81191392  1
  Zn  Zn117  1  0.31561432  0.81601002  0.31028757  1
  Zn  Zn118  1  0.31757276  0.81400641  0.80922217  1
  Zn  Zn119  1  0.81578537  0.31074357  0.31514482  1
  Zn  Zn120  1  0.81062773  0.31052743  0.81343745  1
  Zn  Zn121  1  0.80483298  0.80925853  0.31446992  1
  Zn  Zn122  1  0.81243398  0.81237653  0.81230101  1
  Zn  Zn123  1  0.19229802  0.44504863  0.45877588  1
  Zn  Zn124  1  0.18681443  0.43975924  0.93592678  1
  Zn  Zn125  1  0.18524712  0.93568621  0.43875043  1
  Zn  Zn126  1  0.18741172  0.94014782  0.93796181  1
  Zn  Zn127  1  0.68341672  0.43783333  0.42793676  1
  Zn  Zn128  1  0.68511357  0.43741450  0.94104465  1
  Zn  Zn129  1  0.69284163  0.93524340  0.43714411  1
  Zn  Zn130  1  0.68816119  0.93491490  0.94030062  1
  Zn  Zn131  1  0.31596506  0.06345697  0.05621536  1
  Zn  Zn132  1  0.31413175  0.06257724  0.55889515  1
  Zn  Zn133  1  0.31086543  0.56328694  0.05883030  1
  Zn  Zn134  1  0.31798749  0.56290614  0.55456401  1
  Zn  Zn135  1  0.81688011  0.06569125  0.06723460  1
  Zn  Zn136  1  0.81054290  0.06864808  0.56306445  1
  Zn  Zn137  1  0.81012451  0.68272868  0.06793886  1
  Zn  Zn138  1  0.81707317  0.55950719  0.56323986  1
  Zn  Zn139  1  0.44290847  0.43706404  0.18465289  1
  Zn  Zn140  1  0.44179848  0.43500405  0.69143724  1
  Zn  Zn141  1  0.43920236  0.93687296  0.18627396  1
  Zn  Zn142  1  0.44141663  0.93808405  0.69388532  1
  Zn  Zn143  1  0.93725466  0.44116060  0.18901272  1
  Zn  Zn144  1  0.94129479  0.43828571  0.68706128  1
  Zn  Zn145  1  0.93387244  0.93773159  0.18835536  1
  Zn  Zn146  1  0.93577183  0.94001333  0.68575165  1
  Zn  Zn147  1  0.06408410  0.06380519  0.31484075  1
  Zn  Zn148  1  0.06400198  0.06191075  0.81102366  1
  Zn  Zn149  1  0.05448280  0.57273441  0.31768831  1
  Zn  Zn150  1  0.06064555  0.56262310  0.81025040  1
  Zn  Zn151  1  0.56877395  0.06213479  0.30854306  1
  Zn  Zn152  1  0.56686603  0.06157453  0.81073553  1
  Zn  Zn153  1  0.56457741  0.55606964  0.30679631  1
  Zn  Zn154  1  0.56069744  0.56502924  0.80972532  1
  Zn  Zn155  1  0.43591590  0.18253980  0.44186716  1
  Zn  Zn156  1  0.43996383  0.18415446  0.94769836  1
  Zn  Zn157  1  0.43598005  0.68659701  0.43512731  1
  Zn  Zn158  1  0.43985495  0.68312232  0.93931745  1
  Zn  Zn159  1  0.93933989  0.18971718  0.43787421  1
  Zn  Zn160  1  0.93534075  0.18863885  0.94017977  1
  Zn  Zn161  1  0.93428159  0.68640163  0.43540293  1
  Zn  Zn162  1  0.94072634  0.68518979  0.93251902  1
  Zn  Zn163  1  0.06567719  0.31251620  0.06119763  1
  Zn  Zn164  1  0.06366376  0.31613746  0.56425896  1
  Zn  Zn165  1  0.06495104  0.81364856  0.06141132  1
  Zn  Zn166  1  0.06246536  0.81605026  0.55861310  1
  Zn  Zn167  1  0.56019526  0.31119725  0.06300268  1
  Zn  Zn168  1  0.54353277  0.30786069  0.55886489  1
  Zn  Zn169  1  0.56470622  0.81195543  0.06370086  1
  Zn  Zn170  1  0.56533531  0.81733242  0.55957269  1
  O  O171  1  0.11360699  0.12167673  0.11989687  1
  O  O172  1  0.11699826  0.12044505  0.62474742  1
  O  O173  1  0.11820899  0.61507983  0.11926984  1
  O  O174  1  0.11010464  0.62874085  0.63175464  1
  O  O175  1  0.61694391  0.10709633  0.12846278  1
  O  O176  1  0.63295413  0.10949058  0.62894092  1
  O  O177  1  0.61730091  0.61586177  0.11938351  1
  O  O178  1  0.61620360  0.61594802  0.62777369  1
  O  O179  1  0.38337909  0.38207836  0.37582628  1
  O  O180  1  0.37267228  0.39243237  0.86485138  1
  O  O181  1  0.38035160  0.88549131  0.38244885  1
  O  O182  1  0.37808416  0.87611282  0.88023014  1
  O  O183  1  0.87490186  0.38212575  0.38660973  1
  O  O184  1  0.88186379  0.37952563  0.87553217  1
  O  O185  1  0.88655720  0.86978350  0.37155136  1
  O  O186  1  0.88208867  0.87452767  0.88630599  1
  O  O187  1  0.25533280  0.00298988  0.36876164  1
  O  O188  1  0.24623867  0.01666195  0.87551648  1
  O  O189  1  0.25159198  0.50558483  0.36839524  1
  O  O190  1  0.25828320  0.51312955  0.87738185  1
  O  O191  1  0.74766434  0.00623339  0.36422585  1
  O  O192  1  0.75118975  0.00493905  0.86938634  1
  O  O193  1  0.76409629  0.49974632  0.37669037  1
  O  O194  1  0.75487102  0.50546656  0.87029336  1
  O  O195  1  0.23984141  0.49461668  0.11613456  1
  O  O196  1  0.24896193  0.48913244  0.61333977  1
  O  O197  1  0.24597882  0.99579318  0.12914425  1
  O  O198  1  0.24176764  0.99560954  0.62245028  1
  O  O199  1  0.73542433  0.49735153  0.12537668  1
  O  O200  1  0.73748140  0.50613521  0.63047443  1
  O  O201  1  0.74128271  1.00204697  0.12796783  1
  O  O202  1  0.74714916  0.99409073  0.63017513  1
  O  O203  1  0.00126422  0.36169500  0.24700052  1
  O  O204  1  0.00673619  0.37934712  0.76351848  1
  O  O205  1  0.00395958  0.87563451  0.25750923  1
  O  O206  1  0.00502237  0.87191666  0.75394182  1
  O  O207  1  0.50573653  0.37235858  0.25907499  1
  O  O208  1  0.51242483  0.36449449  0.75449284  1
  O  O209  1  0.50116383  0.87491079  0.26331913  1
  O  O210  1  0.50773878  0.86800630  0.75468205  1
  O  O211  1  0.49845041  0.11480810  0.23555753  1
  O  O212  1  0.50809858  0.13811921  0.74468556  1
  O  O213  1  0.50400041  0.62396088  0.23498188  1
  O  O214  1  0.49228849  0.62565747  0.73497065  1
  O  O215  1  0.99602991  0.12883797  0.24492267  1
  O  O216  1  0.99006778  0.11679186  0.73989710  1
  O  O217  1  0.98974522  0.62819838  0.24198709  1
  O  O218  1  0.99285922  0.63213950  0.74379012  1
  O  O219  1  0.36054623  0.24451637  0.00940620  1
  O  O220  1  0.36379522  0.25625131  0.50913788  1
  O  O221  1  0.36220211  0.74766143  0.00234152  1
  O  O222  1  0.36885905  0.76103962  0.50201240  1
  O  O223  1  0.86927161  0.25227536  0.01060118  1
  O  O224  1  0.88336890  0.26202898  0.50873358  1
  O  O225  1  0.87789049  0.75503713  -0.00048325  1
  O  O226  1  0.86775512  0.74617445  0.51033418  1
  O  O227  1  0.13582969  0.25390607  0.49619364  1
  O  O228  1  0.12830704  0.24599987  0.98662948  1
  O  O229  1  0.13572261  0.75776475  0.49128458  1
  O  O230  1  0.13385969  0.74569276  0.99262880  1
  O  O231  1  0.64193859  0.26609537  0.51511152  1
  O  O232  1  0.63339447  0.24879734  0.99217347  1
  O  O233  1  0.63098466  0.75123909  0.48939228  1
  O  O234  1  0.62179156  0.73528505  0.99222770  1
  O  O235  1  0.50134607  0.22881691  0.12012369  1
  O  O236  1  0.48707664  0.25072187  0.63624672  1
  O  O237  1  0.50040910  0.73450670  0.12473165  1
  O  O238  1  0.49586341  0.74158277  0.61963608  1
  O  O239  1  0.99863630  0.24449262  0.13387366  1
  O  O240  1  0.99649525  0.23836677  0.62247622  1
  O  O241  1  1.00843634  0.73556396  0.12484574  1
  O  O242  1  0.99301550  0.74695251  0.62460744  1
  O  O243  1  0.00674790  0.24852565  0.36163679  1
  O  O244  1  0.00626574  0.25913743  0.88005897  1
  O  O245  1  0.00662928  0.75836754  0.37785851  1
  O  O246  1  0.00723294  0.75545446  0.86801227  1
  O  O247  1  0.48711672  0.26189182  0.37446067  1
  O  O248  1  0.50611484  0.24562610  0.87284695  1
  O  O249  1  0.50954126  0.75717338  0.38034194  1
  O  O250  1  0.51157759  0.74534114  0.87390988  1
  O  O251  1  0.24702160  0.13355139  0.49441409  1
  O  O252  1  0.24147461  0.13227700  0.99253940  1
  O  O253  1  0.25372482  0.63814404  0.49260360  1
  O  O254  1  0.24261215  0.63291705  0.99148465  1
  O  O255  1  0.75500433  0.12171255  0.48232281  1
  O  O256  1  0.76002515  0.13156810  0.98871356  1
  O  O257  1  0.75166013  0.63515913  0.50749977  1
  O  O258  1  0.74489269  0.62329858  0.98805049  1
  O  O259  1  0.24915346  0.36961398  0.00162259  1
  O  O260  1  0.25781495  0.36789413  0.50860660  1
  O  O261  1  0.24774419  0.86777052  0.00708650  1
  O  O262  1  0.25814660  0.86806074  0.50390140  1
  O  O263  1  0.75249966  0.35959447  -0.00459031  1
  O  O264  1  0.75829744  0.38039377  0.50630662  1
  O  O265  1  0.76947386  0.87869597  0.00196900  1
  O  O266  1  0.75113945  0.86551900  0.51071262  1
  O  O267  1  0.12235666  0.50411403  0.24492226  1
  O  O268  1  0.12274997  0.48910255  0.74811336  1
  O  O269  1  0.12880334  0.99268213  0.24456864  1
  O  O270  1  0.12760281  0.99587596  0.73693677  1
  O  O271  1  0.62906880  0.48885945  0.24256331  1
  O  O272  1  0.62602540  0.49137041  0.74157590  1
  O  O273  1  0.63724002  0.99610536  0.23941536  1
  O  O274  1  0.63939288  0.99838061  0.74211611  1
  O  O275  1  0.36472890  -0.00772861  0.25871788  1
  O  O276  1  0.37250433  0.00174039  0.75309645  1
  O  O277  1  0.37918126  0.49865117  0.26038096  1
  O  O278  1  0.37789464  0.51173718  0.75464872  1
  O  O279  1  0.86486490  0.01232629  0.24029307  1
  O  O280  1  0.86537546  0.00895392  0.75052802  1
  O  O281  1  0.87397214  0.50603346  0.25854004  1
  O  O282  1  0.86923750  0.50393326  0.75294447  1
  O  O283  1  0.14188487  0.38862489  0.36592668  1
  O  O284  1  0.11880304  0.37052607  0.86954487  1
  O  O285  1  0.11863861  0.86765444  0.36981770  1
  O  O286  1  0.11992390  0.87165659  0.86973670  1
  O  O287  1  0.61050193  0.37439244  0.36242807  1
  O  O288  1  0.62329715  0.36508904  0.86963230  1
  O  O289  1  0.61740626  0.87178466  0.37511400  1
  O  O290  1  0.63065180  0.85891896  0.87641387  1
  O  O291  1  0.39038185  0.11855385  0.12272336  1
  O  O292  1  0.36871599  0.13843575  0.62648424  1
  O  O293  1  0.38849283  0.62280440  0.11894842  1
  O  O294  1  0.38063478  0.62780841  0.62839228  1
  O  O295  1  0.88848448  0.13490693  0.13214545  1
  O  O296  1  0.88027169  0.13594026  0.63112893  1
  O  O297  1  0.88209260  0.62314604  0.13920229  1
  O  O298  1  0.88468319  0.63252787  0.63016988  1
  O  O299  1  0.22816384  0.27057378  0.10674852  1
  O  O300  1  0.25315997  0.25913546  0.62125272  1
  O  O301  1  0.24724007  0.75727336  0.11575403  1
  O  O302  1  0.25608183  0.75478014  0.61553211  1
  O  O303  1  0.76148065  0.23815147  0.11695214  1
  O  O304  1  0.75815750  0.25182208  0.62920948  1
  O  O305  1  0.74062878  0.74752067  0.12453497  1
  O  O306  1  0.75568515  0.75561005  0.61988234  1
  O  O307  1  0.24956429  0.24244971  0.38394339  1
  O  O308  1  0.24275979  0.24270262  0.88133472  1
  O  O309  1  0.24459316  0.74680910  0.37974487  1
  O  O310  1  0.24614580  0.74176944  0.87962811  1
  O  O311  1  0.75246725  0.23606894  0.37266062  1
  O  O312  1  0.74391732  0.24185805  0.88267338  1
  O  O313  1  0.73427301  0.74984075  0.38425790  1
  O  O314  1  0.74334429  0.73694080  0.86793823  1
  O  O315  1  0.00306316  0.11824175  0.00728031  1
  O  O316  1  0.00130460  0.11549421  0.50688641  1
  O  O317  1  0.00391591  0.61841625  0.00486655  1
  O  O318  1  -0.00694212  0.61442370  0.50751296  1
  O  O319  1  0.50293324  0.10817602  0.00836412  1
  O  O320  1  0.49621885  0.12272528  0.51115644  1
  O  O321  1  0.50824744  0.61801461  0.00902433  1
  O  O322  1  0.49255996  0.61429115  0.51056815  1
  O  O323  1  0.49448131  0.38046032  0.48605006  1
  O  O324  1  0.50080125  0.37773738  0.99630133  1
  O  O325  1  0.49309181  0.88104122  0.48969764  1
  O  O326  1  0.50080306  0.88701791  0.99983966  1
  O  O327  1  0.99495139  0.38990409  0.50486199  1
  O  O328  1  1.00039427  0.38272909  0.98922588  1
  O  O329  1  1.00120778  0.88933123  0.49384747  1
  O  O330  1  0.99262060  0.88021846  0.99707558  1
  O  O331  1  0.49492075  0.49492529  0.37952617  1
  O  O332  1  0.48541006  0.50177318  0.87185279  1
  O  O333  1  0.49385352  0.99558412  0.37391270  1
  O  O334  1  0.50730579  0.99951760  0.88661019  1
  O  O335  1  0.99232019  0.50581970  0.38967941  1
  O  O336  1  0.99426860  0.49527416  0.88104942  1
  O  O337  1  1.00437924  0.99494391  0.38973298  1
  O  O338  1  0.99971145  0.99419572  0.88424222  1
  O  O339  1  0.00406904  0.00702902  0.12025455  1
  O  O340  1  0.00527096  0.00698005  0.61648760  1
  O  O341  1  0.00421866  0.50799353  0.11751252  1
  O  O342  1  0.00019341  0.51038439  0.61620050  1
  O  O343  1  0.50837218  0.00276501  0.11696917  1
  O  O344  1  0.51939393  -0.00104545  0.62699766  1
  O  O345  1  0.50757568  0.50986406  0.12427015  1
  O  O346  1  0.51029478  0.50194357  0.61721626  1
  O  O347  1  0.24649122  0.38515335  0.24061966  1
  O  O348  1  0.24130217  0.37383313  0.74185732  1
  O  O349  1  0.24199564  0.88422085  0.24348632  1
  O  O350  1  0.24252163  0.87324248  0.73951509  1
  O  O351  1  0.73578341  0.37376843  0.25758632  1
  O  O352  1  0.73669518  0.38018544  0.75612976  1
  O  O353  1  0.75222774  0.88430594  0.24649337  1
  O  O354  1  0.75106129  0.88282093  0.74191906  1
  O  O355  1  0.23929276  0.10825146  0.25857162  1
  O  O356  1  0.24206807  0.12871030  0.76611623  1
  O  O357  1  0.24697334  0.62965054  0.25771756  1
  O  O358  1  0.25718482  0.62875463  0.75689075  1
  O  O359  1  0.75894853  0.11841837  0.25859072  1
  O  O360  1  0.75960166  0.11738604  0.76176655  1
  O  O361  1  0.76130969  0.61908492  0.24842957  1
  O  O362  1  0.75568488  0.61655780  0.75792100  1
  O  O363  1  0.36242538  0.11160423  0.38009064  1
  O  O364  1  0.35960389  0.12772510  0.88122739  1
  O  O365  1  0.36422117  0.61479881  0.38006715  1
  O  O366  1  0.36842606  0.61977966  0.86476353  1
  O  O367  1  0.87622918  0.12695697  0.36411722  1
  O  O368  1  0.87090952  0.12277189  0.86825626  1
  O  O369  1  0.88044389  0.61657718  0.36064096  1
  O  O370  1  0.86845693  0.61893068  0.86923970  1
  O  O371  1  0.12708075  0.39171104  0.11981267  1
  O  O372  1  0.13302959  0.37713826  0.63482469  1
  O  O373  1  0.13391044  0.88036427  0.13040098  1
  O  O374  1  0.12973025  0.88318134  0.62805285  1
  O  O375  1  0.61719314  0.38043486  0.13914901  1
  O  O376  1  0.63265067  0.37530416  0.62859203  1
  O  O377  1  0.62748300  0.88719452  0.12770785  1
  O  O378  1  0.63658287  0.88326062  0.62697382  1
  O  O379  1  0.11558665  0.24845022  0.25274848  1
  O  O380  1  0.12612578  0.26245919  0.76330200  1
  O  O381  1  0.11981025  0.75989845  0.25760073  1
  O  O382  1  0.11833915  0.75770838  0.75405071  1
  O  O383  1  0.62773549  0.26016235  0.24140345  1
  O  O384  1  0.62075244  0.25561206  0.76058854  1
  O  O385  1  0.61812297  0.75210594  0.26763027  1
  O  O386  1  0.62380192  0.74719737  0.76020528  1
  O  O387  1  0.32856333  0.23834799  0.22867410  1
  O  O388  1  0.38393330  0.25557413  0.74563258  1
  O  O389  1  0.37902870  0.75041190  0.24933216  1
  O  O390  1  0.37630026  0.73785908  0.73970396  1
  O  O391  1  0.88675237  0.24381173  0.24569119  1
  O  O392  1  0.87193973  0.23914480  0.74431464  1
  O  O393  1  0.87426467  0.73587859  0.25669400  1
  O  O394  1  0.88050993  0.74529727  0.74041390  1
  O  O395  1  0.38578345  0.49246464  0.49064186  1
  O  O396  1  0.37622429  0.50780214  0.98073256  1
  O  O397  1  0.37441580  0.98927283  0.49236105  1
  O  O398  1  0.38911093  0.99790693  0.99345913  1
  O  O399  1  0.88378916  0.49270871  0.49634050  1
  O  O400  1  0.88805732  0.49715749  0.99391692  1
  O  O401  1  0.88828913  1.00119108  0.50816344  1
  O  O402  1  0.88690959  0.99555416  1.00150855  1
  O  O403  1  0.11389274  0.00432683  0.00658124  1
  O  O404  1  0.11892398  0.00102936  0.51182511  1
  O  O405  1  0.11427361  0.50662944  0.00352473  1
  O  O406  1  0.11080187  0.50460440  0.50673419  1
  O  O407  1  0.62007064  -0.00334472  0.01133087  1
  O  O408  1  0.62965083  -0.00465781  0.51486342  1
  O  O409  1  0.62437390  0.50964906  0.00646151  1
  O  O410  1  0.61355705  0.49163116  0.50522929  1
  O  O411  1  0.36294052  0.37587354  0.12682100  1
  O  O412  1  0.36929558  0.36979854  0.62327065  1
  O  O413  1  0.36116730  0.87451459  0.12159718  1
  O  O414  1  0.37305358  0.87112425  0.61643887  1
  O  O415  1  0.88094659  0.36137192  0.12596984  1
  O  O416  1  0.88219372  0.36256242  0.62188902  1
  O  O417  1  0.87820149  0.87187842  0.11055557  1
  O  O418  1  0.86742951  0.86494140  0.63019423  1
  O  O419  1  0.13821660  0.12389709  0.38021043  1
  O  O420  1  0.12770326  0.13289574  0.87930497  1
  O  O421  1  0.13223112  0.64098882  0.37136295  1
  O  O422  1  0.13169134  0.62948275  0.87667951  1
  O  O423  1  0.63482551  0.12631138  0.37437724  1
  O  O424  1  0.63704112  0.13384660  0.87013158  1
  O  O425  1  0.61575532  0.63460116  0.37673884  1
  O  O426  1  0.63133923  0.62792369  0.88116465  1
