# generated using pymatgen
data_V85Zn86O256
_symmetry_space_group_name_H-M   'P 1'
_cell_length_a   16.93801126
_cell_length_b   16.93178968
_cell_length_c   16.91882429
_cell_angle_alpha   89.95130941
_cell_angle_beta   89.98336540
_cell_angle_gamma   89.98641648
_symmetry_Int_Tables_number   1
_chemical_formula_structural   V85Zn86O256
_chemical_formula_sum   'V85 Zn86 O256'
_cell_volume   4852.16180647
_cell_formula_units_Z   1
loop_
 _symmetry_equiv_pos_site_id
 _symmetry_equiv_pos_as_xyz
  1  'x, y, z'
loop_
 _atom_site_type_symbol
 _atom_site_label
 _atom_site_symmetry_multiplicity
 _atom_site_fract_x
 _atom_site_fract_y
 _atom_site_fract_z
 _atom_site_occupancy
  V  V0  1  0.23726120  0.74551429  -0.00479374  1
  V  V1  1  0.50146839  0.13203875  0.62676653  1
  V  V2  1  0.00361574  0.51506304  -0.00498394  1
  V  V3  1  0.12328389  0.87665247  0.75442491  1
  V  V4  1  0.24942589  0.62365763  0.38467030  1
  V  V5  1  0.50562184  0.12624673  0.12022904  1
  V  V6  1  0.82667818  0.93148717  0.44190557  1
  V  V7  1  0.11832242  0.36836449  0.76076002  1
  V  V8  1  0.75373008  0.74979927  0.50555587  1
  V  V9  1  0.74986605  -0.00187020  0.74754980  1
  V  V10  1  0.49630155  0.74929146  0.74160519  1
  V  V11  1  0.36500399  0.24753331  0.12284442  1
  V  V12  1  0.87442845  0.76668531  0.62351709  1
  V  V13  1  0.12293073  0.37754752  0.24594759  1
  V  V14  1  0.25273432  0.86187285  0.63172907  1
  V  V15  1  0.50070093  0.24906751  0.24837266  1
  V  V16  1  0.49171183  0.37320055  0.37626251  1
  V  V17  1  0.24760329  0.37978838  0.12081166  1
  V  V18  1  0.24693127  0.13945954  0.88125889  1
  V  V19  1  0.74403846  0.12334548  0.88064717  1
  V  V20  1  0.76055163  0.62057859  0.37577218  1
  V  V21  1  0.49171187  0.49656382  0.49879135  1
  V  V22  1  0.61912940  0.24966797  0.86963595  1
  V  V23  1  0.25686497  0.11821541  0.37541047  1
  V  V24  1  0.88874672  0.37230778  -0.00766271  1
  V  V25  1  0.75197173  0.25059469  0.49515767  1
  V  V26  1  -0.00939336  0.37802282  0.38676293  1
  V  V27  1  0.87823920  0.25574818  0.62186258  1
  V  V28  1  0.87641269  0.25025734  0.12733947  1
  V  V29  1  0.25312602  0.87407909  0.12484264  1
  V  V30  1  0.62223389  0.49901160  0.62420956  1
  V  V31  1  0.74985733  0.37701710  0.12339485  1
  V  V32  1  0.62303815  0.37609153  0.24795086  1
  V  V33  1  0.74866442  0.62059445  0.88278436  1
  V  V34  1  0.00145891  -0.00286043  0.50042140  1
  V  V35  1  0.37844478  0.74339521  0.11982578  1
  V  V36  1  0.62308462  0.51570269  0.12146612  1
  V  V37  1  0.87199137  -0.00679022  0.88063776  1
  V  V38  1  0.75688037  0.50017684  0.25252786  1
  V  V39  1  0.86897722  0.10803760  0.25778285  1
  V  V40  1  0.24829407  0.37401617  0.61543877  1
  V  V41  1  -0.00756835  0.51351897  0.50203761  1
  V  V42  1  0.62414492  0.62386426  0.49820972  1
  V  V43  1  0.00058113  0.86992515  0.87756618  1
  V  V44  1  0.49898737  0.87458580  0.87484603  1
  V  V45  1  0.63227193  0.00197280  0.12521874  1
  V  V46  1  0.37750013  0.37328532  -0.00141119  1
  V  V47  1  0.87569715  0.12681276  0.75265972  1
  V  V48  1  0.12655953  0.00369594  0.12506251  1
  V  V49  1  -0.00125632  0.74458187  0.74858883  1
  V  V50  1  0.37488897  0.87350989  0.50668906  1
  V  V51  1  0.37530577  0.62461633  0.74521554  1
  V  V52  1  0.50386148  0.00017825  0.00026964  1
  V  V53  1  0.50257027  0.51461498  0.00086104  1
  V  V54  1  0.75369916  0.75960872  0.00038061  1
  V  V55  1  0.87339902  0.62535195  0.74243271  1
  V  V56  1  0.12196270  0.50970978  0.61985808  1
  V  V57  1  0.37768415  0.25646379  0.62050024  1
  V  V58  1  0.74273527  0.24922155  0.00177313  1
  V  V59  1  0.25178258  0.00191944  0.75367546  1
  V  V60  1  -0.00415350  -0.00647693  0.00303681  1
  V  V61  1  0.12858181  0.12704333  0.49916669  1
  V  V62  1  0.62368655  0.74711129  0.37450537  1
  V  V63  1  0.11886123  0.51656868  0.12479785  1
  V  V64  1  0.12763943  0.74655598  0.39112452  1
  V  V65  1  0.49031956  0.88070189  0.37256205  1
  V  V66  1  0.25435410  -0.00057272  0.25289059  1
  V  V67  1  0.62400695  0.00081753  0.62541774  1
  V  V68  1  0.88545869  0.74775549  0.12212487  1
  V  V69  1  0.00283629  0.87756746  0.37788264  1
  V  V70  1  0.37722041  0.11663640  0.25265961  1
  V  V71  1  0.62881599  0.87290928  0.74524441  1
  V  V72  1  0.37954424  0.13165536  0.75106507  1
  V  V73  1  0.37705336  0.62228936  0.25197112  1
  V  V74  1  0.25001806  0.49702446  0.75291130  1
  V  V75  1  0.74923285  0.49880524  0.75009038  1
  V  V76  1  0.62364122  0.74289536  0.88021836  1
  V  V77  1  0.12674617  0.87261509  0.25365119  1
  V  V78  1  0.12711873  0.24872442  0.36917293  1
  V  V79  1  0.63255107  0.87591775  0.24724798  1
  V  V80  1  -0.00494762  0.25133449  0.25262674  1
  V  V81  1  -0.00422873  0.11992931  0.12835200  1
  V  V82  1  0.00215467  0.12892569  0.62742380  1
  V  V83  1  0.75383983  0.37719062  0.61882719  1
  V  V84  1  0.50206504  0.74431202  0.24565914  1
  Zn  Zn85  1  0.88191123  0.49471475  0.86943722  1
  Zn  Zn86  1  0.49655599  0.62803402  0.61983711  1
  Zn  Zn87  1  0.37541221  0.00288237  0.87816673  1
  Zn  Zn88  1  0.25493082  0.74171544  0.51439867  1
  Zn  Zn89  1  0.37503402  0.50153632  0.87644353  1
  Zn  Zn90  1  0.00028782  0.25145345  0.77081490  1
  Zn  Zn91  1  0.62666044  0.24556993  0.37396792  1
  Zn  Zn92  1  0.62419032  0.12604111  0.49609526  1
  Zn  Zn93  1  0.75098689  0.11307520  0.37565291  1
  Zn  Zn94  1  0.11855970  0.13271169  -0.01231180  1
  Zn  Zn95  1  0.25659168  0.25298298  0.49447748  1
  Zn  Zn96  1  0.24032828  0.62376514  0.88162715  1
  Zn  Zn97  1  0.12870457  0.00254295  0.62633443  1
  Zn  Zn98  1  0.00528796  0.74038880  0.24909344  1
  Zn  Zn99  1  0.36958887  0.49465485  0.37815363  1
  Zn  Zn100  1  0.88565218  0.61845126  0.24451208  1
  Zn  Zn101  1  0.37423056  0.87334435  -0.00076834  1
  Zn  Zn102  1  0.49820744  0.37493667  0.87186461  1
  Zn  Zn103  1  0.24893556  0.50272388  0.25129377  1
  Zn  Zn104  1  0.49173106  0.00538204  0.49561094  1
  Zn  Zn105  1  0.61854615  0.37002921  0.74605830  1
  Zn  Zn106  1  0.75657091  0.87834812  0.12406312  1
  Zn  Zn107  1  0.14752575  0.22886583  0.13268720  1
  Zn  Zn108  1  0.19094689  0.19008578  0.68957821  1
  Zn  Zn109  1  0.19319406  0.68977479  0.19271112  1
  Zn  Zn110  1  0.17019704  0.67423183  0.72270214  1
  Zn  Zn111  1  0.68983288  0.18521673  0.19086394  1
  Zn  Zn112  1  0.69069134  0.18671162  0.68756720  1
  Zn  Zn113  1  0.69407623  0.68832178  0.18673587  1
  Zn  Zn114  1  0.68695093  0.68571411  0.68765073  1
  Zn  Zn115  1  0.31067127  0.30837496  0.30596477  1
  Zn  Zn116  1  0.31366909  0.31444280  0.80860885  1
  Zn  Zn117  1  0.31338083  0.80752998  0.31501813  1
  Zn  Zn118  1  0.31501953  0.81050585  0.81299723  1
  Zn  Zn119  1  0.81337719  0.31550901  0.31244061  1
  Zn  Zn120  1  0.81055123  0.31247768  0.81045464  1
  Zn  Zn121  1  0.81211716  0.80133373  0.30674166  1
  Zn  Zn122  1  0.81105910  0.81179410  0.81297902  1
  Zn  Zn123  1  0.18224822  0.43995409  0.43661538  1
  Zn  Zn124  1  0.18789926  0.44086561  0.94035028  1
  Zn  Zn125  1  0.19138340  0.93685544  0.44331590  1
  Zn  Zn126  1  0.18686060  0.93811274  0.93881856  1
  Zn  Zn127  1  0.68495316  0.43531731  0.43591729  1
  Zn  Zn128  1  0.68711954  0.43547774  0.93963454  1
  Zn  Zn129  1  0.66415438  0.93536984  0.43793072  1
  Zn  Zn130  1  0.68136671  0.93625745  0.93667402  1
  Zn  Zn131  1  0.31502636  0.06161198  0.06098708  1
  Zn  Zn132  1  0.31537601  0.05779721  0.56539540  1
  Zn  Zn133  1  0.31222043  0.56370972  0.06255460  1
  Zn  Zn134  1  0.31275242  0.56101283  0.56848212  1
  Zn  Zn135  1  0.81292202  0.06321723  0.06227269  1
  Zn  Zn136  1  0.80924105  0.07024529  0.56793966  1
  Zn  Zn137  1  0.81657134  0.56253804  0.06176163  1
  Zn  Zn138  1  0.81573223  0.56534134  0.56368028  1
  Zn  Zn139  1  0.43907536  0.44008356  0.18323262  1
  Zn  Zn140  1  0.43882339  0.43362750  0.69073370  1
  Zn  Zn141  1  0.44200144  0.93350659  0.18503759  1
  Zn  Zn142  1  0.43664462  0.94123276  0.68722465  1
  Zn  Zn143  1  0.94178656  0.43704918  0.18290276  1
  Zn  Zn144  1  0.94090682  0.43810179  0.68518211  1
  Zn  Zn145  1  0.93705452  0.92696585  0.18850177  1
  Zn  Zn146  1  0.93783128  0.94096875  0.68852838  1
  Zn  Zn147  1  0.06191213  0.06100932  0.31263730  1
  Zn  Zn148  1  0.06268791  0.06264048  0.81431196  1
  Zn  Zn149  1  0.06227593  0.56243780  0.31831194  1
  Zn  Zn150  1  0.06553023  0.56026831  0.81497637  1
  Zn  Zn151  1  0.56692369  0.06169920  0.30990785  1
  Zn  Zn152  1  0.56218361  0.06478764  0.81198189  1
  Zn  Zn153  1  0.56457235  0.56048058  0.31302362  1
  Zn  Zn154  1  0.56106402  0.55989115  0.81294894  1
  Zn  Zn155  1  0.43925454  0.18840593  0.43906855  1
  Zn  Zn156  1  0.43420948  0.18639285  0.94089753  1
  Zn  Zn157  1  0.43495345  0.69091400  0.43810639  1
  Zn  Zn158  1  0.43029780  0.68732355  0.93022771  1
  Zn  Zn159  1  0.93669205  0.18752176  0.43747731  1
  Zn  Zn160  1  0.93115071  0.18034853  0.94245883  1
  Zn  Zn161  1  0.93797950  0.69166331  0.43812074  1
  Zn  Zn162  1  0.93105258  0.68743030  0.93425503  1
  Zn  Zn163  1  0.06883388  0.30445677  -0.05114538  1
  Zn  Zn164  1  0.06808122  0.31259727  0.56448264  1
  Zn  Zn165  1  0.06362962  0.81511093  0.06385609  1
  Zn  Zn166  1  0.06433716  0.81406743  0.57055637  1
  Zn  Zn167  1  0.56030298  0.31574801  0.06131742  1
  Zn  Zn168  1  0.56404358  0.31241725  0.56058443  1
  Zn  Zn169  1  0.56424724  0.81005653  0.06181217  1
  Zn  Zn170  1  0.56308348  0.81523611  0.56071004  1
  O  O171  1  0.11473469  0.11009216  0.13604345  1
  O  O172  1  0.11956893  0.12645992  0.61797696  1
  O  O173  1  0.12855454  0.61435968  0.13137503  1
  O  O174  1  0.12725652  0.60765540  0.63244404  1
  O  O175  1  0.61614042  0.11691983  0.13194354  1
  O  O176  1  0.61702287  0.12047795  0.62768820  1
  O  O177  1  0.62774071  0.61464928  0.12794326  1
  O  O178  1  0.62445172  0.61348094  0.61764803  1
  O  O179  1  0.38729541  0.37479203  0.36479488  1
  O  O180  1  0.37299152  0.37503298  0.88750404  1
  O  O181  1  0.38387471  0.87051159  0.38083427  1
  O  O182  1  0.38981621  0.87734548  0.87347635  1
  O  O183  1  0.89258150  0.37468871  0.37287534  1
  O  O184  1  0.86590811  0.37770753  0.88693234  1
  O  O185  1  0.88141671  0.87274036  0.37496771  1
  O  O186  1  0.88057751  0.88775091  0.86851729  1
  O  O187  1  0.24567804  0.01083601  0.37075093  1
  O  O188  1  0.25430481  0.00059366  0.86500428  1
  O  O189  1  0.25067796  0.50705956  0.37246902  1
  O  O190  1  0.25101048  0.50210138  0.86671283  1
  O  O191  1  0.76051576  -0.01056467  0.38975574  1
  O  O192  1  0.75281238  0.00495732  0.87259646  1
  O  O193  1  0.74373890  0.50684634  0.36514294  1
  O  O194  1  0.74871496  0.50562643  0.86872594  1
  O  O195  1  0.23773743  0.49664201  0.12633533  1
  O  O196  1  0.23993410  0.49126026  0.62855250  1
  O  O197  1  0.24368082  0.99622796  0.13054027  1
  O  O198  1  0.25004674  0.99590073  0.64143162  1
  O  O199  1  0.74195689  0.49527253  0.12760073  1
  O  O200  1  0.74496253  0.49384955  0.62686899  1
  O  O201  1  0.73664515  0.99751603  0.11690862  1
  O  O202  1  0.73778352  1.00841406  0.63526119  1
  O  O203  1  0.00627378  0.37354876  0.25871776  1
  O  O204  1  0.01476828  0.37326306  0.74877627  1
  O  O205  1  0.01046408  0.87118775  0.26107118  1
  O  O206  1  0.00535254  0.87444781  0.75810901  1
  O  O207  1  0.50618800  0.37080452  0.25178710  1
  O  O208  1  0.50593794  0.37722098  0.75859213  1
  O  O209  1  0.50475483  0.86381938  0.25579465  1
  O  O210  1  0.50682123  0.86923076  0.75510337  1
  O  O211  1  0.49455943  0.12763253  0.24097944  1
  O  O212  1  0.48996696  0.12367880  0.74377761  1
  O  O213  1  0.49474603  0.63646640  0.25776364  1
  O  O214  1  0.49449097  0.63274960  0.74964802  1
  O  O215  1  0.98908596  0.12870340  0.24814208  1
  O  O216  1  0.99641224  0.12682620  0.74240118  1
  O  O217  1  0.99736956  0.62779716  0.25890329  1
  O  O218  1  0.98962272  0.63850692  0.75545450  1
  O  O219  1  0.37955484  0.25911051  0.01172969  1
  O  O220  1  0.37322221  0.24599442  0.51477299  1
  O  O221  1  0.37254015  0.75244558  0.00823637  1
  O  O222  1  0.37208648  0.76454341  0.50030432  1
  O  O223  1  0.86634919  0.25571662  0.00893503  1
  O  O224  1  0.86797806  0.24487555  0.51147287  1
  O  O225  1  0.86708006  0.74798577  0.00952453  1
  O  O226  1  0.86707161  0.74852315  0.50988323  1
  O  O227  1  0.12750726  0.23793047  0.49276505  1
  O  O228  1  0.12225085  0.23991755  1.02355716  1
  O  O229  1  0.12996625  0.75556121  0.49397215  1
  O  O230  1  0.13862293  0.75253446  1.00508326  1
  O  O231  1  0.63715876  0.24836407  0.49821913  1
  O  O232  1  0.63803095  0.25437939  0.99593965  1
  O  O233  1  0.63196626  0.74547409  0.49554599  1
  O  O234  1  0.63149513  0.75183924  0.98659682  1
  O  O235  1  0.49378287  0.24241301  0.12843848  1
  O  O236  1  0.49485315  0.24129032  0.62269668  1
  O  O237  1  0.49269835  0.75340225  0.13392255  1
  O  O238  1  0.50972854  0.74821258  0.63836731  1
  O  O239  1  0.98417967  0.24097587  0.13327860  1
  O  O240  1  0.99469855  0.24021287  0.62217144  1
  O  O241  1  0.98943896  0.75320806  0.12447890  1
  O  O242  1  0.98887318  0.75684219  0.63604882  1
  O  O243  1  0.00622412  0.25910320  0.37191024  1
  O  O244  1  0.00062599  0.24235274  0.88310023  1
  O  O245  1  0.00924748  0.76324774  0.38039246  1
  O  O246  1  -0.01155799  0.76425530  0.86733618  1
  O  O247  1  0.50268517  0.25623085  0.36743609  1
  O  O248  1  0.51805738  0.24470783  0.88535070  1
  O  O249  1  0.50543797  0.75691239  0.36722400  1
  O  O250  1  0.50696723  0.75539327  0.86800522  1
  O  O251  1  0.24439551  0.12313387  0.49408067  1
  O  O252  1  0.25198687  0.11926998  0.98355468  1
  O  O253  1  0.25802183  0.62521863  0.49004189  1
  O  O254  1  0.25224850  0.63979349  0.99921281  1
  O  O255  1  0.74885792  0.13554908  0.49627444  1
  O  O256  1  0.75542552  0.13535017  0.99189737  1
  O  O257  1  0.74487653  0.63071897  0.49483285  1
  O  O258  1  0.75525739  0.63037780  0.98601027  1
  O  O259  1  0.25937904  0.38316796  0.01365896  1
  O  O260  1  0.24353703  0.37318768  0.51082646  1
  O  O261  1  0.25198525  0.86877598  0.00835909  1
  O  O262  1  0.25588154  0.87364327  0.51472735  1
  O  O263  1  0.75742896  0.36855726  0.00766493  1
  O  O264  1  0.74765098  0.37013505  0.51130055  1
  O  O265  1  0.74759290  0.86269886  -0.00411966  1
  O  O266  1  0.75734146  0.87129432  0.49027189  1
  O  O267  1  0.12354393  0.49429169  0.23932612  1
  O  O268  1  0.12900902  0.48633112  0.74093723  1
  O  O269  1  0.13025727  0.98917895  0.24687081  1
  O  O270  1  0.13128233  0.99248010  0.74974229  1
  O  O271  1  0.63173050  0.49397286  0.24137454  1
  O  O272  1  0.63192209  0.50098793  0.73923245  1
  O  O273  1  0.61925227  0.98774144  0.23800512  1
  O  O274  1  0.62820037  0.99275177  0.74518297  1
  O  O275  1  0.37506711  0.01035400  0.24300771  1
  O  O276  1  0.36881290  0.01202825  0.75303999  1
  O  O277  1  0.37699851  0.51321461  0.24895181  1
  O  O278  1  0.36707621  0.50322622  0.75252476  1
  O  O279  1  0.87874977  0.00976963  0.24675472  1
  O  O280  1  0.86919196  0.00681616  0.75737939  1
  O  O281  1  0.86041952  0.49808819  0.23972288  1
  O  O282  1  0.87010374  0.50706977  0.74787419  1
  O  O283  1  0.12285423  0.36807111  0.36267459  1
  O  O284  1  0.12869555  0.37348400  0.86571991  1
  O  O285  1  0.12172109  0.87035386  0.37191077  1
  O  O286  1  0.11232180  0.88202819  0.86793971  1
  O  O287  1  0.61586902  0.37479307  0.36049419  1
  O  O288  1  0.62860949  0.35811202  0.87538465  1
  O  O289  1  0.61492370  0.86516099  0.36536275  1
  O  O290  1  0.61461324  0.86793725  0.86671280  1
  O  O291  1  0.38038752  0.13165863  0.13066839  1
  O  O292  1  0.38211201  0.13035420  0.63219276  1
  O  O293  1  0.36994494  0.63617622  0.13480266  1
  O  O294  1  0.38123596  0.62123418  0.63753349  1
  O  O295  1  0.87648552  0.12970608  0.13568931  1
  O  O296  1  0.88302973  0.13395670  0.63211237  1
  O  O297  1  0.86650035  0.64180116  0.12654941  1
  O  O298  1  0.86671232  0.63772407  0.63833078  1
  O  O299  1  0.26137538  0.26058140  0.13239351  1
  O  O300  1  0.25746320  0.25746799  0.62186845  1
  O  O301  1  0.25769143  0.75490342  0.11794217  1
  O  O302  1  0.24214315  0.76079095  0.63434489  1
  O  O303  1  0.75766287  0.25310636  0.12038752  1
  O  O304  1  0.75759639  0.25676604  0.61837363  1
  O  O305  1  0.75313329  0.75368655  0.11382768  1
  O  O306  1  0.75111077  0.74948394  0.61164825  1
  O  O307  1  0.24491498  0.23814062  0.37346427  1
  O  O308  1  0.25215748  0.23798683  0.87290946  1
  O  O309  1  0.24273367  0.74301561  0.38013569  1
  O  O310  1  0.25399394  0.75548373  0.89323746  1
  O  O311  1  0.75124373  0.25609981  0.38759490  1
  O  O312  1  0.74437626  0.24171499  0.88275948  1
  O  O313  1  0.74482471  0.74232683  0.38491070  1
  O  O314  1  0.74354259  0.74295063  0.88004656  1
  O  O315  1  -0.00240928  0.10905542  0.01083603  1
  O  O316  1  0.00622489  0.11646727  0.50391990  1
  O  O317  1  -0.00391637  0.61392950  -0.00291238  1
  O  O318  1  0.00065678  0.61248896  0.49390577  1
  O  O319  1  0.49556291  0.11717347  0.01283068  1
  O  O320  1  0.50242529  0.12290036  0.50989341  1
  O  O321  1  0.49420736  0.61332389  -0.00344312  1
  O  O322  1  0.50686355  0.61801583  0.49828602  1
  O  O323  1  0.50707576  0.38286334  0.48745081  1
  O  O324  1  0.49041982  0.38195114  0.99702016  1
  O  O325  1  0.49349787  0.87582946  0.49134875  1
  O  O326  1  0.50058863  0.88027338  0.99114113  1
  O  O327  1  1.00517641  0.37481772  0.48918018  1
  O  O328  1  0.99061201  0.38051396  0.99986672  1
  O  O329  1  1.00637085  0.88945932  0.49797961  1
  O  O330  1  1.00458295  0.88499852  0.99261920  1
  O  O331  1  0.49880167  0.49163097  0.38164862  1
  O  O332  1  0.49956873  0.49816549  0.88912343  1
  O  O333  1  0.50831534  0.98463259  0.37562589  1
  O  O334  1  0.50201006  0.99365378  0.88248761  1
  O  O335  1  1.01115003  0.48688972  0.39201195  1
  O  O336  1  1.00138948  0.50090259  0.88913393  1
  O  O337  1  1.00345452  0.98749310  0.38306718  1
  O  O338  1  0.99103280  0.99504464  0.88288467  1
  O  O339  1  0.00555833  -0.00352058  0.12037347  1
  O  O340  1  0.00089548  0.01280621  0.61893682  1
  O  O341  1  0.01266745  0.49831156  0.11497070  1
  O  O342  1  0.01164495  0.49533957  0.61417206  1
  O  O343  1  0.50791219  0.00595824  0.11876239  1
  O  O344  1  0.50781059  0.01261448  0.62743444  1
  O  O345  1  0.50925190  0.49816190  0.11193429  1
  O  O346  1  0.50827686  0.49871211  0.61629050  1
  O  O347  1  0.24428477  0.37947922  0.24070203  1
  O  O348  1  0.24220621  0.38221416  0.74337195  1
  O  O349  1  0.24662646  0.87947684  0.24651258  1
  O  O350  1  0.24394461  0.88063993  0.75015990  1
  O  O351  1  0.74241520  0.38092030  0.24550432  1
  O  O352  1  0.74615831  0.38098822  0.73723376  1
  O  O353  1  0.73556113  0.86834735  0.25065791  1
  O  O354  1  0.73597878  0.88104660  0.75725191  1
  O  O355  1  0.26148686  0.11533882  0.25909170  1
  O  O356  1  0.25600368  0.11934956  0.75816309  1
  O  O357  1  0.26058298  0.62533208  0.26198969  1
  O  O358  1  0.26163317  0.60640530  0.73808603  1
  O  O359  1  0.76451523  0.12393530  0.25400217  1
  O  O360  1  0.75618830  0.11939900  0.75969156  1
  O  O361  1  0.75089369  0.61647213  0.25945275  1
  O  O362  1  0.75473829  0.61835548  0.75645509  1
  O  O363  1  0.36897389  0.12859028  0.36616712  1
  O  O364  1  0.36706416  0.12557047  0.86813574  1
  O  O365  1  0.36862501  0.62369658  0.36797154  1
  O  O366  1  0.36637290  0.62201161  0.86077536  1
  O  O367  1  0.87438181  0.12485628  0.36198085  1
  O  O368  1  0.86381057  0.11310567  0.87244369  1
  O  O369  1  0.86241995  0.62915274  0.37471132  1
  O  O370  1  0.86512347  0.62164667  0.86215879  1
  O  O371  1  0.13375081  0.37966451  0.13684801  1
  O  O372  1  0.13325816  0.37910161  0.63400570  1
  O  O373  1  0.13055211  0.88467508  0.13440741  1
  O  O374  1  0.13429283  0.88327730  0.63416579  1
  O  O375  1  0.62926271  0.37962484  0.13438325  1
  O  O376  1  0.63298891  0.38497646  0.62396327  1
  O  O377  1  0.62590768  0.88169748  0.13160931  1
  O  O378  1  0.61949799  0.88558666  0.63500979  1
  O  O379  1  0.11340693  0.25799763  0.24498957  1
  O  O380  1  0.12336667  0.26504884  0.74618764  1
  O  O381  1  0.12801867  0.76273255  0.25762085  1
  O  O382  1  0.11011797  0.76980807  0.74154876  1
  O  O383  1  0.61932193  0.25856734  0.24899126  1
  O  O384  1  0.63232239  0.24904303  0.76606013  1
  O  O385  1  0.61830781  0.75353703  0.25212933  1
  O  O386  1  0.62146845  0.75678843  0.75756665  1
  O  O387  1  0.38194594  0.23885414  0.24144453  1
  O  O388  1  0.36898855  0.23881036  0.73851693  1
  O  O389  1  0.38264459  0.74077962  0.24480635  1
  O  O390  1  0.38581140  0.74134566  0.75366128  1
  O  O391  1  0.87741603  0.24631918  0.24376291  1
  O  O392  1  0.87784102  0.24395269  0.74283398  1
  O  O393  1  0.87895517  0.74408222  0.23689862  1
  O  O394  1  0.87797658  0.74620335  0.74381334  1
  O  O395  1  0.38838596  0.50155991  0.50012387  1
  O  O396  1  0.38593016  0.49387398  1.00288327  1
  O  O397  1  0.37630330  0.98347778  0.50279801  1
  O  O398  1  0.38865100  0.99459130  1.00010775  1
  O  O399  1  0.89267792  0.50052600  0.50872045  1
  O  O400  1  0.88934726  0.49232837  1.00162880  1
  O  O401  1  0.87944945  0.99627338  0.50485065  1
  O  O402  1  0.88191691  0.99990473  0.99307686  1
  O  O403  1  0.11773349  0.00434798  0.01010637  1
  O  O404  1  0.11846807  0.01142013  0.50214218  1
  O  O405  1  0.11393075  0.49864763  0.01131853  1
  O  O406  1  0.11772794  0.49678026  0.51448636  1
  O  O407  1  0.61247860  -0.00344613  0.00762442  1
  O  O408  1  0.61897122  0.00298124  0.51454228  1
  O  O409  1  0.61265033  0.49646224  0.00723997  1
  O  O410  1  0.61792530  0.50454690  0.50554028  1
  O  O411  1  0.36882890  0.36915380  0.12061614  1
  O  O412  1  0.36361014  0.36678761  0.63044173  1
  O  O413  1  0.36961617  0.86297443  0.12647724  1
  O  O414  1  0.36582225  0.87628909  0.62269138  1
  O  O415  1  0.87103517  0.36595686  0.11873867  1
  O  O416  1  0.86950087  0.36408958  0.63015021  1
  O  O417  1  0.87034145  0.85783181  0.12890066  1
  O  O418  1  0.87070897  0.86653131  0.63227593  1
  O  O419  1  0.13135193  0.12958465  0.37981837  1
  O  O420  1  0.14183789  0.12090410  0.87297865  1
  O  O421  1  0.13661334  0.63618769  0.37261958  1
  O  O422  1  0.13966287  0.63964251  0.83182793  1
  O  O423  1  0.63308843  0.12584660  0.37535050  1
  O  O424  1  0.63608783  0.13267677  0.87333697  1
  O  O425  1  0.63307520  0.62935578  0.38044666  1
  O  O426  1  0.63436376  0.63382498  0.86709758  1
