# generated using pymatgen
data_V85Zn86O256
_symmetry_space_group_name_H-M   'P 1'
_cell_length_a   16.93342505
_cell_length_b   16.92660034
_cell_length_c   16.93216145
_cell_angle_alpha   89.95766091
_cell_angle_beta   89.95552186
_cell_angle_gamma   90.04928537
_symmetry_Int_Tables_number   1
_chemical_formula_structural   V85Zn86O256
_chemical_formula_sum   'V85 Zn86 O256'
_cell_volume   4853.18157884
_cell_formula_units_Z   1
loop_
 _symmetry_equiv_pos_site_id
 _symmetry_equiv_pos_as_xyz
  1  'x, y, z'
loop_
 _atom_site_type_symbol
 _atom_site_label
 _atom_site_symmetry_multiplicity
 _atom_site_fract_x
 _atom_site_fract_y
 _atom_site_fract_z
 _atom_site_occupancy
  V  V0  1  0.51656301  0.87211922  0.87673105  1
  V  V1  1  0.74522071  -0.01324175  0.25630021  1
  V  V2  1  0.49550783  0.49262841  -0.00051364  1
  V  V3  1  0.24163248  -0.00045954  0.24801804  1
  V  V4  1  0.74661438  0.49361666  0.75345275  1
  V  V5  1  0.87586189  0.76669545  0.61986424  1
  V  V6  1  0.74474237  0.37346527  0.62510561  1
  V  V7  1  0.87276238  0.37259091  0.49762583  1
  V  V8  1  0.37472599  0.12760364  0.74637137  1
  V  V9  1  0.87527850  0.36859999  -0.00344257  1
  V  V10  1  0.87291410  0.87239124  0.00446049  1
  V  V11  1  0.11414076  0.24604751  0.88344927  1
  V  V12  1  0.11756112  0.24514046  0.37657984  1
  V  V13  1  -0.00450345  0.62872260  0.14137095  1
  V  V14  1  0.12178414  0.37026774  0.24613494  1
  V  V15  1  -0.00660834  0.87304021  0.37451451  1
  V  V16  1  -0.00140529  0.49766990  0.49868931  1
  V  V17  1  0.74512040  0.63775490  0.87575759  1
  V  V18  1  0.12164530  0.75370306  0.87236786  1
  V  V19  1  0.51478849  0.26311415  0.74526137  1
  V  V20  1  0.86981888  0.00141179  0.38271573  1
  V  V21  1  0.73306106  0.00015694  0.74506568  1
  V  V22  1  0.25303063  0.75642962  0.49832378  1
  V  V23  1  0.01037212  0.00512480  0.01896989  1
  V  V24  1  0.75043921  0.50414163  0.24699128  1
  V  V25  1  0.30860181  0.18523142  0.93376633  1
  V  V26  1  0.37345573  0.25224075  0.62175392  1
  V  V27  1  0.11667537  0.62561554  -0.00187482  1
  V  V28  1  0.62931475  0.24423894  0.37060400  1
  V  V29  1  -0.00268178  -0.00714879  0.51016929  1
  V  V30  1  0.84515068  0.01497659  0.89304818  1
  V  V31  1  0.50350458  -0.00017317  0.00471287  1
  V  V32  1  0.37708579  0.12694013  0.25221937  1
  V  V33  1  -0.00319846  0.62638869  0.62472546  1
  V  V34  1  0.50100780  0.62726408  0.62445038  1
  V  V35  1  0.26005769  0.37492938  0.10808008  1
  V  V36  1  -0.00219631  0.37054810  0.36833017  1
  V  V37  1  0.62931088  0.62628368  0.49622119  1
  V  V38  1  -0.00146005  0.88718730  0.87595587  1
  V  V39  1  0.50891342  0.12009581  0.62432652  1
  V  V40  1  0.87295374  0.62777994  0.74723226  1
  V  V41  1  0.12069326  0.75214287  0.36630950  1
  V  V42  1  0.50190546  0.25677304  0.24888570  1
  V  V43  1  0.87890793  0.49546645  0.87497868  1
  V  V44  1  0.25018106  0.49629650  0.25010780  1
  V  V45  1  0.62831694  -0.01586559  0.13291530  1
  V  V46  1  0.04274910  0.18585438  0.18901759  1
  V  V47  1  0.12296267  0.49909793  0.12273508  1
  V  V48  1  0.74972593  0.24094173  0.49573823  1
  V  V49  1  0.25022090  0.62525473  0.37465358  1
  V  V50  1  0.24862899  0.74969500  0.00024884  1
  V  V51  1  0.24778657  0.50044748  0.74710148  1
  V  V52  1  0.62657105  0.75221911  0.36537446  1
  V  V53  1  0.24793915  0.62740075  0.87438445  1
  V  V54  1  0.87077133  0.74963349  0.13897261  1
  V  V55  1  0.86188998  0.12809716  0.25241046  1
  V  V56  1  0.37326996  -0.00839182  0.38094593  1
  V  V57  1  0.86961224  0.24412355  0.12348113  1
  V  V58  1  0.50201326  0.87439387  0.37137341  1
  V  V59  1  0.12233897  0.49851732  0.62449323  1
  V  V60  1  0.50636948  0.37508326  0.37510684  1
  V  V61  1  0.51419244  0.75424972  0.75474841  1
  V  V62  1  0.50953297  0.12482531  0.12880470  1
  V  V63  1  0.24889775  0.12404362  0.37820536  1
  V  V64  1  0.23916434  0.87820451  0.12319814  1
  V  V65  1  0.37750750  0.49887931  0.37619139  1
  V  V66  1  0.74676859  0.37058181  0.12523770  1
  V  V67  1  0.37429683  0.87239947  0.00033379  1
  V  V68  1  0.87427557  0.50575920  0.36728037  1
  V  V69  1  0.12517179  0.62562185  0.50007029  1
  V  V70  1  0.50208091  -0.00546570  0.50344737  1
  V  V71  1  0.64326482  0.24811865  0.90022320  1
  V  V72  1  -0.00234599  0.12550168  0.63163608  1
  V  V73  1  0.37510402  0.75627530  0.62320838  1
  V  V74  1  0.11620606  0.37250092  0.75496848  1
  V  V75  1  0.62348056  0.49876834  0.62718825  1
  V  V76  1  0.24855654  0.00333065  0.75440425  1
  V  V77  1  0.72581204  0.87825127  0.62224395  1
  V  V78  1  0.62567378  0.49873151  0.12661693  1
  V  V79  1  0.37476067  0.62834370  0.75147645  1
  V  V80  1  0.12346280  0.88131382  0.74471734  1
  V  V81  1  0.49885355  0.62849685  0.12489762  1
  V  V82  1  0.12408725  0.11984107  0.51051073  1
  V  V83  1  0.25065509  0.88325516  0.62259940  1
  V  V84  1  0.37561796  -0.00009238  0.87655383  1
  Zn  Zn85  1  -0.00297395  0.75585986  0.75034248  1
  Zn  Zn86  1  0.74496516  0.76082087  0.00330537  1
  Zn  Zn87  1  0.37872472  0.25228713  0.10765153  1
  Zn  Zn88  1  0.24778853  0.37336251  0.62150638  1
  Zn  Zn89  1  -0.00732448  0.25287538  0.75435765  1
  Zn  Zn90  1  0.50069636  0.49936545  0.50043823  1
  Zn  Zn91  1  0.75477905  0.62989727  0.36923590  1
  Zn  Zn92  1  0.87316484  0.24896488  0.63056526  1
  Zn  Zn93  1  0.13080327  0.12559816  0.00898160  1
  Zn  Zn94  1  0.37342938  0.37485331  0.50033741  1
  Zn  Zn95  1  0.37176806  0.49822767  0.88056772  1
  Zn  Zn96  1  0.24798488  0.25109536  0.50066833  1
  Zn  Zn97  1  0.50260656  0.37745916  0.87224941  1
  Zn  Zn98  1  0.37595268  0.62796770  0.24955585  1
  Zn  Zn99  1  0.62998956  0.11788200  0.49766489  1
  Zn  Zn100  1  -0.00293691  0.49869601  -0.00338382  1
  Zn  Zn101  1  0.75373077  0.75755032  0.49500395  1
  Zn  Zn102  1  0.11648388  0.87600522  0.24503592  1
  Zn  Zn103  1  0.62292961  0.63134586  -0.00347850  1
  Zn  Zn104  1  0.86582441  0.12562932  0.75550291  1
  Zn  Zn105  1  0.49930580  0.75652067  0.24625254  1
  Zn  Zn106  1  0.37326903  0.74992040  0.12861198  1
  Zn  Zn107  1  0.20710385  0.19373101  0.18641952  1
  Zn  Zn108  1  0.18752108  0.18921309  0.69175702  1
  Zn  Zn109  1  0.18787364  0.68636499  0.18558236  1
  Zn  Zn110  1  0.18552325  0.69176078  0.68631805  1
  Zn  Zn111  1  0.68735850  0.18650299  0.18907828  1
  Zn  Zn112  1  0.68906176  0.18545457  0.68545438  1
  Zn  Zn113  1  0.68734531  0.68478816  0.18517563  1
  Zn  Zn114  1  0.69252959  0.68798562  0.68391875  1
  Zn  Zn115  1  0.31223488  0.31281164  0.31389624  1
  Zn  Zn116  1  0.31716151  0.32127140  0.80666870  1
  Zn  Zn117  1  0.31257320  0.81315369  0.30913671  1
  Zn  Zn118  1  0.31546160  0.81471783  0.81331573  1
  Zn  Zn119  1  0.81066591  0.31446127  0.30673079  1
  Zn  Zn120  1  0.80861463  0.30891701  0.81438951  1
  Zn  Zn121  1  0.81406178  0.81495004  0.31466447  1
  Zn  Zn122  1  0.81148651  0.82482472  0.80887799  1
  Zn  Zn123  1  0.18735329  0.43283821  0.43711799  1
  Zn  Zn124  1  0.18349415  0.43824439  0.93209371  1
  Zn  Zn125  1  0.18256446  0.93763828  0.43797799  1
  Zn  Zn126  1  0.18543262  0.94202083  0.93582270  1
  Zn  Zn127  1  0.68697793  0.43604659  0.43626570  1
  Zn  Zn128  1  0.68628534  0.43476785  0.94110546  1
  Zn  Zn129  1  0.68550353  0.93416967  0.43910026  1
  Zn  Zn130  1  0.69204592  0.95430537  0.94914781  1
  Zn  Zn131  1  0.31924332  0.05806508  0.07104406  1
  Zn  Zn132  1  0.31605451  0.06338794  0.56264068  1
  Zn  Zn133  1  0.31289792  0.56290412  0.06240681  1
  Zn  Zn134  1  0.31315198  0.56532665  0.56190180  1
  Zn  Zn135  1  0.81296298  0.05787754  0.06583575  1
  Zn  Zn136  1  0.81342070  0.05851512  0.56831276  1
  Zn  Zn137  1  0.81446324  0.56423594  0.06021980  1
  Zn  Zn138  1  0.81044462  0.56190097  0.56055916  1
  Zn  Zn139  1  0.43775546  0.43953970  0.18731593  1
  Zn  Zn140  1  0.43476565  0.43802048  0.69055556  1
  Zn  Zn141  1  0.43138188  0.93727359  0.18963763  1
  Zn  Zn142  1  0.44204650  0.93620862  0.69039665  1
  Zn  Zn143  1  0.93609964  0.43567186  0.18382051  1
  Zn  Zn144  1  0.93342019  0.43650477  0.68679760  1
  Zn  Zn145  1  0.93212677  0.93568048  0.19229058  1
  Zn  Zn146  1  0.93122824  0.94798393  0.69756222  1
  Zn  Zn147  1  0.05882641  0.05622452  0.32141281  1
  Zn  Zn148  1  0.06727919  0.06654048  0.81706763  1
  Zn  Zn149  1  0.06464423  0.55884402  0.31414449  1
  Zn  Zn150  1  0.05923461  0.56386418  0.81057361  1
  Zn  Zn151  1  0.56308882  0.06226781  0.31528903  1
  Zn  Zn152  1  0.56530265  0.06719063  0.81357388  1
  Zn  Zn153  1  0.56564966  0.56290596  0.30769352  1
  Zn  Zn154  1  0.56401367  0.56424815  0.81131924  1
  Zn  Zn155  1  0.44033826  0.18446160  0.43801110  1
  Zn  Zn156  1  0.48458729  0.17656897  0.92658078  1
  Zn  Zn157  1  0.43855106  0.68779913  0.43681910  1
  Zn  Zn158  1  0.44072708  0.68672362  0.93822791  1
  Zn  Zn159  1  0.93674831  0.18226806  0.43882608  1
  Zn  Zn160  1  0.93863847  0.18315991  0.94511203  1
  Zn  Zn161  1  0.93741171  0.68848255  0.43858032  1
  Zn  Zn162  1  0.93403157  0.69206025  0.93460650  1
  Zn  Zn163  1  0.06143770  0.31804613  0.05540506  1
  Zn  Zn164  1  0.06135090  0.30975994  0.56377259  1
  Zn  Zn165  1  0.05670472  0.81004426  0.06225432  1
  Zn  Zn166  1  0.06440086  0.81341478  0.56148788  1
  Zn  Zn167  1  0.56505252  0.31369737  0.06353914  1
  Zn  Zn168  1  0.56278116  0.31148973  0.55812893  1
  Zn  Zn169  1  0.56610571  0.80893842  0.05994205  1
  Zn  Zn170  1  0.55736217  0.80970802  0.55165515  1
  O  O171  1  0.11874009  0.14203136  0.13109473  1
  O  O172  1  0.11994934  0.13020575  0.61533173  1
  O  O173  1  0.11482630  0.62164897  0.11786183  1
  O  O174  1  0.11799835  0.62045950  0.62031649  1
  O  O175  1  0.61215245  0.11663692  0.13410634  1
  O  O176  1  0.61181664  0.12754926  0.62045140  1
  O  O177  1  0.61699626  0.61661661  0.12203173  1
  O  O178  1  0.62250713  0.61953533  0.61715782  1
  O  O179  1  0.38432806  0.38187525  0.37558784  1
  O  O180  1  0.38886178  0.39161833  0.85201546  1
  O  O181  1  0.37601257  0.88738538  0.37393505  1
  O  O182  1  0.37972598  0.87962024  0.88730743  1
  O  O183  1  0.87946510  0.38118049  0.37957589  1
  O  O184  1  0.86510443  0.38289575  0.88389418  1
  O  O185  1  0.88112365  0.88652681  0.37573553  1
  O  O186  1  0.88211294  0.88692991  0.88365743  1
  O  O187  1  0.25616229  0.00437787  0.37214133  1
  O  O188  1  0.25925012  -0.00467313  0.86289854  1
  O  O189  1  0.25542550  0.50219927  0.36786991  1
  O  O190  1  0.24769016  0.50867863  0.86178036  1
  O  O191  1  0.75425996  -0.00410482  0.36608444  1
  O  O192  1  0.74865605  -0.02863206  0.84898299  1
  O  O193  1  0.75731553  0.49647549  0.36541585  1
  O  O194  1  0.75542887  0.50554042  0.86656528  1
  O  O195  1  0.24572811  0.49254182  0.13151398  1
  O  O196  1  0.24232190  0.50485465  0.63440761  1
  O  O197  1  0.25177800  0.99181590  0.13568815  1
  O  O198  1  0.26017132  0.98850026  0.63418610  1
  O  O199  1  0.74472962  0.49795421  0.12806371  1
  O  O200  1  0.74389093  0.49423569  0.63134599  1
  O  O201  1  0.73490246  1.00274212  0.13815503  1
  O  O202  1  0.74732798  0.98724167  0.63120969  1
  O  O203  1  0.00852316  0.38001358  0.25666591  1
  O  O204  1  0.01200645  0.37592475  0.74600912  1
  O  O205  1  0.00197682  0.88355751  0.26807600  1
  O  O206  1  0.00801248  0.88029693  0.75606392  1
  O  O207  1  0.49296894  0.36295980  0.25550670  1
  O  O208  1  0.51019568  0.36513198  0.73773570  1
  O  O209  1  0.49254214  0.87704096  0.26550123  1
  O  O210  1  0.49584664  0.86635134  0.76364563  1
  O  O211  1  0.49365696  0.13243720  0.24789196  1
  O  O212  1  0.49046460  0.12972350  0.74222832  1
  O  O213  1  0.49814981  0.62213003  0.23499650  1
  O  O214  1  0.49145467  0.63150945  0.74564508  1
  O  O215  1  0.99069727  0.11793911  0.24831766  1
  O  O216  1  1.00503590  0.12238356  0.73784690  1
  O  O217  1  1.00374809  0.62278646  0.23955323  1
  O  O218  1  0.99019987  0.62925838  0.74294673  1
  O  O219  1  0.37877034  0.23581698  -0.01333867  1
  O  O220  1  0.37538636  0.24714430  0.51153044  1
  O  O221  1  0.36716361  0.75715000  -0.00001409  1
  O  O222  1  0.36171062  0.74536006  0.50752861  1
  O  O223  1  0.87658501  0.25452719  0.00983348  1
  O  O224  1  0.86860128  0.26024588  0.49659201  1
  O  O225  1  0.87398635  0.75875036  0.00651323  1
  O  O226  1  0.87160477  0.74327364  0.51700623  1
  O  O227  1  0.12471373  0.24045637  0.49191163  1
  O  O228  1  0.12470771  0.24932574  0.98805072  1
  O  O229  1  0.13586430  0.74520509  0.49477313  1
  O  O230  1  0.12864265  0.74398718  0.99302058  1
  O  O231  1  0.63397004  0.24839056  0.49101266  1
  O  O232  1  0.63253685  0.24565286  1.00083636  1
  O  O233  1  0.62708245  0.74117278  0.48864747  1
  O  O234  1  0.63361819  0.74512648  1.00146030  1
  O  O235  1  0.49677633  0.24432635  0.13108134  1
  O  O236  1  0.49581836  0.24368504  0.63106303  1
  O  O237  1  0.49693810  0.74186213  0.12590588  1
  O  O238  1  0.49119023  0.74752275  0.62989829  1
  O  O239  1  0.99170874  0.25271184  0.12702585  1
  O  O240  1  0.99575934  0.24058279  0.62790496  1
  O  O241  1  0.99388502  0.73501655  0.12395475  1
  O  O242  1  0.98998649  0.74585970  0.62516142  1
  O  O243  1  0.00965684  0.25272453  0.37866464  1
  O  O244  1  0.01070575  0.24674199  0.87499329  1
  O  O245  1  0.00814145  0.75905144  0.38348590  1
  O  O246  1  0.00335453  0.76507054  0.87243277  1
  O  O247  1  0.50481171  0.25669505  0.36867514  1
  O  O248  1  0.49120305  0.25931466  0.84916275  1
  O  O249  1  0.50600324  0.75775640  0.37463824  1
  O  O250  1  0.49632027  0.75888286  0.86653314  1
  O  O251  1  0.24094939  0.12409958  0.49583039  1
  O  O252  1  0.25446189  0.12704442  1.00047084  1
  O  O253  1  0.24386352  0.63250469  0.49392527  1
  O  O254  1  0.23757177  0.62756369  0.99557746  1
  O  O255  1  0.75113272  0.13755227  0.50569926  1
  O  O256  1  0.76665602  0.05174747  0.96379808  1
  O  O257  1  0.73853047  0.62668006  0.49737237  1
  O  O258  1  0.75427824  0.62516377  0.98108395  1
  O  O259  1  0.25181075  0.38608169  0.01010856  1
  O  O260  1  0.25406113  0.36994954  0.50238864  1
  O  O261  1  0.25431333  0.87271877  0.00490230  1
  O  O262  1  0.24381068  0.86901423  0.51021519  1
  O  O263  1  0.76268644  0.38231535  0.01476533  1
  O  O264  1  0.75685422  0.36926233  0.50488889  1
  O  O265  1  0.76896594  0.87953531  0.00161553  1
  O  O266  1  0.74717207  0.87540612  0.51696281  1
  O  O267  1  0.13244939  0.49352230  0.24339973  1
  O  O268  1  0.12941525  0.49552054  0.74648233  1
  O  O269  1  0.13859718  0.99994352  0.25914003  1
  O  O270  1  0.13732319  0.99457722  0.75410023  1
  O  O271  1  0.63157574  0.49925499  0.23564209  1
  O  O272  1  0.63271260  0.50569063  0.73650971  1
  O  O273  1  0.63582751  1.00314045  0.24701713  1
  O  O274  1  0.63279853  1.00105127  0.75038388  1
  O  O275  1  0.36578191  0.00976069  0.25843088  1
  O  O276  1  0.37311067  0.00870663  0.75739169  1
  O  O277  1  0.36725429  0.50027085  0.26053305  1
  O  O278  1  0.36490793  0.51650995  0.74198772  1
  O  O279  1  0.86122598  0.00499188  0.25500679  1
  O  O280  1  0.86121395  0.00534509  0.76496737  1
  O  O281  1  0.86851420  0.49534750  0.25804303  1
  O  O282  1  0.86580336  0.50699420  0.75325956  1
  O  O283  1  0.11967976  0.36407889  0.36711011  1
  O  O284  1  0.13070245  0.35977384  0.86777496  1
  O  O285  1  0.11738394  0.86639928  0.37348682  1
  O  O286  1  0.12033705  0.87245585  0.86481876  1
  O  O287  1  0.61211084  0.36781104  0.37750392  1
  O  O288  1  0.62234275  0.35464631  0.88456582  1
  O  O289  1  0.61524558  0.86455591  0.37786124  1
  O  O290  1  0.61379396  0.88310762  0.88936663  1
  O  O291  1  0.38447967  0.12803201  0.13740366  1
  O  O292  1  0.38375605  0.13151499  0.63117563  1
  O  O293  1  0.38259557  0.62622439  0.12689459  1
  O  O294  1  0.37840196  0.63688293  0.63007019  1
  O  O295  1  0.86790383  0.13465656  0.13140227  1
  O  O296  1  0.88429684  0.12744340  0.62823086  1
  O  O297  1  0.88868056  0.63374278  0.12074173  1
  O  O298  1  0.87500807  0.62803634  0.63452838  1
  O  O299  1  0.25995331  0.26830558  0.12168034  1
  O  O300  1  0.25963243  0.24985471  0.62376681  1
  O  O301  1  0.25040463  0.75690716  0.11714326  1
  O  O302  1  0.25506159  0.75911279  0.61851844  1
  O  O303  1  0.75669170  0.25787298  0.13056320  1
  O  O304  1  0.74984816  0.25858730  0.61618791  1
  O  O305  1  0.76746081  0.74048103  0.12310345  1
  O  O306  1  0.75914270  0.76302071  0.62357496  1
  O  O307  1  0.23657792  0.24229633  0.37312109  1
  O  O308  1  0.25363293  0.24890352  0.87609101  1
  O  O309  1  0.24428919  0.74762927  0.38223489  1
  O  O310  1  0.24361739  0.74615872  0.87959783  1
  O  O311  1  0.74028503  0.25986159  0.38169496  1
  O  O312  1  0.74021021  0.24040125  0.87776597  1
  O  O313  1  0.74381813  0.74907632  0.37653432  1
  O  O314  1  0.75935981  0.73933074  0.87063305  1
  O  O315  1  0.00595885  0.10894297  0.00509113  1
  O  O316  1  0.00536843  0.11782518  0.51120944  1
  O  O317  1  0.00954717  0.62557596  -0.00098413  1
  O  O318  1  0.00543878  0.61810297  0.50552364  1
  O  O319  1  0.49038589  0.10773854  0.01615061  1
  O  O320  1  0.50084114  0.11636938  0.50872800  1
  O  O321  1  0.50121310  0.61735406  0.00982168  1
  O  O322  1  0.51070159  0.62417547  0.50661667  1
  O  O323  1  0.49556417  0.37824813  0.49016190  1
  O  O324  1  0.50002431  0.38976462  1.00273373  1
  O  O325  1  0.49501506  0.88226294  0.48758056  1
  O  O326  1  0.49105421  0.88176546  0.99916839  1
  O  O327  1  0.99222786  0.37810399  0.49262852  1
  O  O328  1  0.98198853  0.38112691  1.00440183  1
  O  O329  1  1.00671969  0.88507257  0.49255048  1
  O  O330  1  0.99731225  0.88198272  0.99392372  1
  O  O331  1  0.49399286  0.49320309  0.37277467  1
  O  O332  1  0.50680279  0.50222408  0.88997258  1
  O  O333  1  0.49185964  0.99502261  0.37964643  1
  O  O334  1  0.49614538  0.99653476  0.88673368  1
  O  O335  1  0.99353006  0.49294626  0.38000993  1
  O  O336  1  0.98295403  0.50439869  0.87236400  1
  O  O337  1  0.99014151  0.99267990  0.38777842  1
  O  O338  1  1.00723786  0.99146631  0.88274197  1
  O  O339  1  0.00263075  -0.00742951  0.11725636  1
  O  O340  1  -0.00619208  0.00566001  0.61668245  1
  O  O341  1  0.00360751  0.51283942  0.12214424  1
  O  O342  1  0.00214339  0.50549537  0.61840832  1
  O  O343  1  0.50588770  0.00382170  0.12652657  1
  O  O344  1  0.49180139  0.00688256  0.61598093  1
  O  O345  1  0.50564658  0.50396080  0.11719373  1
  O  O346  1  0.50742529  0.50757018  0.62505704  1
  O  O347  1  0.24383313  0.38354290  0.24654179  1
  O  O348  1  0.23847782  0.38658962  0.74486685  1
  O  O349  1  0.24786290  0.88342646  0.24076362  1
  O  O350  1  0.24488413  0.88175026  0.74386799  1
  O  O351  1  0.75539912  0.38675880  0.23405458  1
  O  O352  1  0.75348795  0.38572461  0.74052693  1
  O  O353  1  0.75177334  0.88837906  0.24886804  1
  O  O354  1  0.75164836  0.88097984  0.72818401  1
  O  O355  1  0.25807574  0.11886475  0.25657010  1
  O  O356  1  0.26384029  0.11633698  0.74290819  1
  O  O357  1  0.24792989  0.61141577  0.25489394  1
  O  O358  1  0.25401083  0.62268170  0.75352514  1
  O  O359  1  0.75856416  0.11616306  0.25162828  1
  O  O360  1  0.74752073  0.10616243  0.74179331  1
  O  O361  1  0.74835017  0.60956419  0.25105474  1
  O  O362  1  0.75601088  0.61817713  0.75588405  1
  O  O363  1  0.37043676  0.11759347  0.36948401  1
  O  O364  1  0.37400135  0.12508574  0.87088300  1
  O  O365  1  0.36823663  0.61695523  0.37360245  1
  O  O366  1  0.36796808  0.62266583  0.86672210  1
  O  O367  1  0.87960613  0.11150198  0.36673296  1
  O  O368  1  0.88482418  0.11002883  0.87495155  1
  O  O369  1  0.87409031  0.60986953  0.38277517  1
  O  O370  1  0.86825309  0.62043538  0.86260401  1
  O  O371  1  0.13393293  0.37955867  0.12735547  1
  O  O372  1  0.12517946  0.38250457  0.63085471  1
  O  O373  1  0.13499405  0.86777873  0.12641333  1
  O  O374  1  0.13421835  0.87112512  0.63717240  1
  O  O375  1  0.63549537  0.38391995  0.12034106  1
  O  O376  1  0.63677266  0.38363852  0.61594095  1
  O  O377  1  0.61731970  0.88607026  0.13346442  1
  O  O378  1  0.62741493  0.86916806  0.62298156  1
  O  O379  1  0.11577271  0.24570525  0.25197185  1
  O  O380  1  0.12317714  0.25720204  0.76058692  1
  O  O381  1  0.13031616  0.75066510  0.26354631  1
  O  O382  1  0.12197210  0.76061972  0.75530217  1
  O  O383  1  0.61432626  0.24773255  0.25651748  1
  O  O384  1  0.61460258  0.24739348  0.74907740  1
  O  O385  1  0.62177678  0.74301677  0.26144625  1
  O  O386  1  0.61253981  0.74312059  0.74486499  1
  O  O387  1  0.38083695  0.23856640  0.25365981  1
  O  O388  1  0.38013536  0.24382572  0.73666986  1
  O  O389  1  0.37849007  0.74598489  0.24756399  1
  O  O390  1  0.37643785  0.74109865  0.74309150  1
  O  O391  1  0.87406922  0.23922393  0.24334651  1
  O  O392  1  0.87565071  0.24384875  0.74989876  1
  O  O393  1  0.87420427  0.75097855  0.23824918  1
  O  O394  1  0.87470062  0.74504305  0.73794647  1
  O  O395  1  0.37626566  0.50195979  0.48727739  1
  O  O396  1  0.39085415  0.50587894  0.99861405  1
  O  O397  1  0.38477165  1.00620137  0.48950035  1
  O  O398  1  0.38083428  0.99172739  0.99676971  1
  O  O399  1  0.87684577  0.48843104  0.49361608  1
  O  O400  1  0.87502537  0.49445141  0.99000373  1
  O  O401  1  0.88243929  1.00518405  0.49273232  1
  O  O402  1  0.89543674  0.99070802  0.99912292  1
  O  O403  1  0.11684605  0.00405055  0.00213095  1
  O  O404  1  0.11301495  0.01020736  0.49608702  1
  O  O405  1  0.12080128  0.50781830  0.00344579  1
  O  O406  1  0.11907558  0.50430903  0.50329579  1
  O  O407  1  0.61445804  -0.00215411  0.02223199  1
  O  O408  1  0.60819487  0.00200662  0.49195338  1
  O  O409  1  0.61694631  0.50458205  0.00970003  1
  O  O410  1  0.62520370  0.50671977  0.50950416  1
  O  O411  1  0.36361197  0.37596454  0.12498722  1
  O  O412  1  0.37242091  0.36676265  0.62347358  1
  O  O413  1  0.36468010  0.87545321  0.11369475  1
  O  O414  1  0.36710805  0.86272036  0.63216024  1
  O  O415  1  0.86931334  0.36311684  0.12052499  1
  O  O416  1  0.86371553  0.37475700  0.61511112  1
  O  O417  1  0.88662200  0.85753440  0.11964937  1
  O  O418  1  0.88188188  0.86594504  0.62635828  1
  O  O419  1  0.12635087  0.12979260  0.38435627  1
  O  O420  1  0.13136078  0.14263389  0.87748936  1
  O  O421  1  0.12980449  0.63105850  0.38056022  1
  O  O422  1  0.12702453  0.63140205  0.87978755  1
  O  O423  1  0.62026811  0.13986431  0.37859442  1
  O  O424  1  0.59651078  0.15129345  0.88387857  1
  O  O425  1  0.62606394  0.62972291  0.38146773  1
  O  O426  1  0.64264887  0.62305858  0.87220738  1
