# generated using pymatgen
data_V85Zn86O256
_symmetry_space_group_name_H-M   'P 1'
_cell_length_a   16.93043131
_cell_length_b   16.94144302
_cell_length_c   16.93815229
_cell_angle_alpha   89.99038580
_cell_angle_beta   90.10619518
_cell_angle_gamma   90.03271435
_symmetry_Int_Tables_number   1
_chemical_formula_structural   V85Zn86O256
_chemical_formula_sum   'V85 Zn86 O256'
_cell_volume   4858.29220491
_cell_formula_units_Z   1
loop_
 _symmetry_equiv_pos_site_id
 _symmetry_equiv_pos_as_xyz
  1  'x, y, z'
loop_
 _atom_site_type_symbol
 _atom_site_label
 _atom_site_symmetry_multiplicity
 _atom_site_fract_x
 _atom_site_fract_y
 _atom_site_fract_z
 _atom_site_occupancy
  V  V0  1  0.36931012  0.87277100  0.01095273  1
  V  V1  1  0.62853624  0.62618865  0.50462910  1
  V  V2  1  0.00085825  0.25165634  0.74744859  1
  V  V3  1  0.62223859  0.12973015  0.50035092  1
  V  V4  1  0.12397780  0.87522688  0.74776328  1
  V  V5  1  0.36241771  0.49578487  0.89094519  1
  V  V6  1  -0.00199979  0.37620541  0.37983785  1
  V  V7  1  0.12654533  -0.00440179  0.12691851  1
  V  V8  1  0.37771353  0.87133201  0.50180414  1
  V  V9  1  0.00063581  0.49922355  -0.00460815  1
  V  V10  1  0.01139044  0.86857843  0.37579412  1
  V  V11  1  0.74995811  0.00251634  0.25161586  1
  V  V12  1  0.63331912  0.74972828  0.37897737  1
  V  V13  1  0.87483229  0.25183829  0.12299686  1
  V  V14  1  0.25592016  0.36736803  0.12512361  1
  V  V15  1  0.49752653  0.50221095  0.48394345  1
  V  V16  1  0.87189535  0.87319410  -0.00258815  1
  V  V17  1  0.86958461  0.87151349  0.49901043  1
  V  V18  1  0.26022024  0.24578588  0.00201399  1
  V  V19  1  0.00027099  0.62318997  0.12322142  1
  V  V20  1  -0.00086929  0.62581027  0.61487021  1
  V  V21  1  0.50376364  0.74038424  0.75522771  1
  V  V22  1  0.74413676  0.25380145  -0.00615435  1
  V  V23  1  0.12680457  0.24966155  0.87502388  1
  V  V24  1  0.25884336  0.49603490  0.25721331  1
  V  V25  1  0.74783410  0.50922369  0.24992601  1
  V  V26  1  -0.00097292  0.87334426  0.87175890  1
  V  V27  1  0.25077500  0.12383312  0.87274018  1
  V  V28  1  0.87030685  -0.00283650  0.86746553  1
  V  V29  1  0.38130700  0.74114931  0.62475451  1
  V  V30  1  0.87507891  0.62861352  0.25044102  1
  V  V31  1  0.25014384  0.75439317  0.01579330  1
  V  V32  1  0.13426314  0.74784971  0.87302950  1
  V  V33  1  0.87750226  0.61630296  0.75997338  1
  V  V34  1  0.75046609  0.13107097  0.38076661  1
  V  V35  1  -0.00067674  0.12468249  0.12419026  1
  V  V36  1  0.74954464  0.12752829  0.87125143  1
  V  V37  1  0.87532147  0.25531902  0.61343521  1
  V  V38  1  0.13285086  0.50873481  0.62237353  1
  V  V39  1  0.88431569  0.00048453  0.38209801  1
  V  V40  1  0.74956026  0.87528769  0.12396319  1
  V  V41  1  0.13341808  0.62037410  -0.00909011  1
  V  V42  1  0.75016195  0.37892924  0.12548338  1
  V  V43  1  0.23562366  0.62488450  0.37955565  1
  V  V44  1  0.37825274  0.00101556  0.37631841  1
  V  V45  1  0.00002492  0.11909224  0.61874315  1
  V  V46  1  0.12576089  0.37426983  0.25174414  1
  V  V47  1  0.49858069  0.25230894  0.24758563  1
  V  V48  1  0.35903097  0.61819336  0.75527603  1
  V  V49  1  0.12959741  0.25106542  0.38133375  1
  V  V50  1  -0.00179994  0.00103128  -0.00059398  1
  V  V51  1  0.37414661  0.37578539  0.48665721  1
  V  V52  1  0.87373038  0.12588485  0.25050483  1
  V  V53  1  0.53819500  0.17639411  0.67716738  1
  V  V54  1  0.87539219  0.12195396  0.74643724  1
  V  V55  1  0.61415261  0.50287573  0.11311180  1
  V  V56  1  0.25366378  0.37736171  0.63103399  1
  V  V57  1  0.00073936  0.25056694  0.24930900  1
  V  V58  1  0.62430423  0.25679374  0.37908754  1
  V  V59  1  0.87584435  0.38090460  -0.00643557  1
  V  V60  1  0.24905954  -0.00496288  0.24905037  1
  V  V61  1  0.49502648  0.75024020  0.25057175  1
  V  V62  1  0.25093730  0.87407408  0.62487206  1
  V  V63  1  0.25448256  0.12860076  0.38113599  1
  V  V64  1  0.37318830  0.12515268  0.74485419  1
  V  V65  1  0.62819288  0.87340170  0.75947972  1
  V  V66  1  0.23577723  0.74754125  0.49591060  1
  V  V67  1  0.87670499  0.75046280  0.12214733  1
  V  V68  1  0.61474376  0.50416261  0.63456114  1
  V  V69  1  0.36770795  0.24769672  0.61718210  1
  V  V70  1  0.12463933  0.11949055  0.49956614  1
  V  V71  1  0.63089915  -0.00415390  0.62879091  1
  V  V72  1  0.62369542  0.87644317  0.25205599  1
  V  V73  1  0.37546582  0.12822853  0.24148583  1
  V  V74  1  0.62497609  0.12525768  -0.00161446  1
  V  V75  1  0.50034999  0.00144190  0.50756184  1
  V  V76  1  0.73898100  0.37437380  0.62314401  1
  V  V77  1  0.49823777  -0.00197841  -0.00019866  1
  V  V78  1  0.49201877  0.62767869  0.11469172  1
  V  V79  1  0.62067234  0.37900405  0.25419442  1
  V  V80  1  0.72977246  0.62164244  0.87790919  1
  V  V81  1  0.86406204  0.74400555  0.62205876  1
  V  V82  1  -0.00114055  0.38064910  0.86924860  1
  V  V83  1  0.37962455  0.62266853  0.26287909  1
  V  V84  1  0.12704392  0.49535478  0.12288088  1
  Zn  Zn85  1  0.74881941  0.87243225  0.62501040  1
  Zn  Zn86  1  0.52450359  0.39848858  0.91263283  1
  Zn  Zn87  1  0.38230053  0.37065380  0.00489525  1
  Zn  Zn88  1  0.62376593  0.00439028  0.12761003  1
  Zn  Zn89  1  0.50207417  0.87459022  0.37799447  1
  Zn  Zn90  1  -0.00127651  0.74730321  0.74804725  1
  Zn  Zn91  1  0.75454070  0.63016741  0.38136718  1
  Zn  Zn92  1  0.57959751  0.31733941  0.79331461  1
  Zn  Zn93  1  0.72840104  0.75135158  -0.01746703  1
  Zn  Zn94  1  0.12469974  0.12412242  -0.00115762  1
  Zn  Zn95  1  0.49581356  0.12841852  0.12040579  1
  Zn  Zn96  1  0.37390400  -0.00349369  0.87235579  1
  Zn  Zn97  1  0.74952493  0.49236999  0.75485119  1
  Zn  Zn98  1  0.49664448  0.86904841  0.87730910  1
  Zn  Zn99  1  0.00127301  0.50469414  0.49683111  1
  Zn  Zn100  1  0.01467296  0.75247271  0.25312243  1
  Zn  Zn101  1  0.86783060  0.37881897  0.49679644  1
  Zn  Zn102  1  0.24960047  -0.00120482  0.74810366  1
  Zn  Zn103  1  0.87478088  0.50273893  0.37731997  1
  Zn  Zn104  1  0.18138439  0.83237134  0.19515597  1
  Zn  Zn105  1  0.13566613  0.38022030  0.75091452  1
  Zn  Zn106  1  0.12055191  -0.00402920  0.62000729  1
  Zn  Zn107  1  0.18715132  0.18304919  0.18976981  1
  Zn  Zn108  1  0.18995556  0.19262894  0.68638917  1
  Zn  Zn109  1  0.18649828  0.67075001  0.18871377  1
  Zn  Zn110  1  0.18638401  0.69133197  0.68218498  1
  Zn  Zn111  1  0.68637388  0.19081761  0.18585909  1
  Zn  Zn112  1  0.70653210  0.18395889  0.67893036  1
  Zn  Zn113  1  0.67291621  0.70084642  0.15939018  1
  Zn  Zn114  1  0.68752033  0.68285216  0.69320553  1
  Zn  Zn115  1  0.31397974  0.30997612  0.31240987  1
  Zn  Zn116  1  0.40673645  0.31958169  0.80681347  1
  Zn  Zn117  1  0.31620406  0.80896792  0.31897594  1
  Zn  Zn118  1  0.31575967  0.81175070  0.81519307  1
  Zn  Zn119  1  0.80937671  0.31450266  0.31181727  1
  Zn  Zn120  1  0.81262574  0.31257943  0.80692362  1
  Zn  Zn121  1  0.81619746  0.81295290  0.30968270  1
  Zn  Zn122  1  0.80937897  0.80323572  0.80832351  1
  Zn  Zn123  1  0.18985300  0.43996350  0.44309967  1
  Zn  Zn124  1  0.19685259  0.43468911  0.93126368  1
  Zn  Zn125  1  0.19139940  0.93973642  0.43895694  1
  Zn  Zn126  1  0.18768435  0.93713038  0.93884735  1
  Zn  Zn127  1  0.68831856  0.44261314  0.44022111  1
  Zn  Zn128  1  0.69416876  0.44323210  0.93203087  1
  Zn  Zn129  1  0.69057582  0.94073162  0.43775275  1
  Zn  Zn130  1  0.68792824  0.94054690  0.93665411  1
  Zn  Zn131  1  0.31105710  0.05895945  0.06144530  1
  Zn  Zn132  1  0.31103756  0.06109124  0.56281204  1
  Zn  Zn133  1  0.31103911  0.56624348  0.07015234  1
  Zn  Zn134  1  0.31523965  0.56176364  0.55848689  1
  Zn  Zn135  1  0.81201597  0.06180171  0.06055310  1
  Zn  Zn136  1  0.81094532  0.06089300  0.55937733  1
  Zn  Zn137  1  0.80822713  0.56409487  0.05859875  1
  Zn  Zn138  1  0.81091625  0.55605457  0.56320569  1
  Zn  Zn139  1  0.43882318  0.43687568  0.18551146  1
  Zn  Zn140  1  0.43702082  0.44191669  0.68186101  1
  Zn  Zn141  1  0.43779569  0.94032983  0.18596776  1
  Zn  Zn142  1  0.44092792  0.93550128  0.68983036  1
  Zn  Zn143  1  0.93701851  0.43937659  0.18840975  1
  Zn  Zn144  1  0.94013590  0.44002127  0.68238152  1
  Zn  Zn145  1  0.93916146  0.93686586  0.19224341  1
  Zn  Zn146  1  0.93588736  0.93514401  0.68417942  1
  Zn  Zn147  1  0.06460870  0.06052630  0.31187763  1
  Zn  Zn148  1  0.06157340  0.06064068  0.80950484  1
  Zn  Zn149  1  0.06262499  0.56052160  0.30933039  1
  Zn  Zn150  1  0.06611582  0.56167807  0.80433400  1
  Zn  Zn151  1  0.56052807  0.06463808  0.31615877  1
  Zn  Zn152  1  0.56695994  0.05463128  0.81894737  1
  Zn  Zn153  1  0.56725285  0.56688598  0.31265076  1
  Zn  Zn154  1  0.54906083  0.55775189  0.81384745  1
  Zn  Zn155  1  0.44180059  0.19194391  0.43626126  1
  Zn  Zn156  1  0.44440930  0.19057321  0.92819638  1
  Zn  Zn157  1  0.44231528  0.68607671  0.43778627  1
  Zn  Zn158  1  0.42695550  0.68809334  0.93203658  1
  Zn  Zn159  1  0.94178668  0.18834561  0.43684122  1
  Zn  Zn160  1  0.93657670  0.19061709  0.93573601  1
  Zn  Zn161  1  0.93641496  0.69224609  0.43706272  1
  Zn  Zn162  1  0.94115534  0.68989787  0.93800273  1
  Zn  Zn163  1  0.06610374  0.31165151  0.05941059  1
  Zn  Zn164  1  0.06817744  0.31193151  0.56250853  1
  Zn  Zn165  1  0.05857331  0.81021511  0.05727366  1
  Zn  Zn166  1  0.05308981  0.81324256  0.55950403  1
  Zn  Zn167  1  0.56345804  0.31092018  0.06542364  1
  Zn  Zn168  1  0.55924396  0.32164935  0.55695394  1
  Zn  Zn169  1  0.55782355  0.81330954  0.06473483  1
  Zn  Zn170  1  0.56303936  0.81043089  0.56571221  1
  O  O171  1  0.11463925  0.11570175  0.12461468  1
  O  O172  1  0.11885521  0.12705364  0.61672223  1
  O  O173  1  0.11864491  0.61276843  0.11426688  1
  O  O174  1  0.11778625  0.61652768  0.62779237  1
  O  O175  1  0.62929480  0.12342954  0.11001398  1
  O  O176  1  0.62001388  0.12066246  0.61987409  1
  O  O177  1  0.60676047  0.60912939  0.13429724  1
  O  O178  1  0.62857082  0.61264638  0.61981707  1
  O  O179  1  0.37110150  0.37458952  0.38727622  1
  O  O180  1  0.35858555  0.38853018  0.88547007  1
  O  O181  1  0.37805938  0.88231886  0.38544310  1
  O  O182  1  0.37609397  0.87860605  0.88597120  1
  O  O183  1  0.88384848  0.37492060  0.37430571  1
  O  O184  1  0.88514920  0.36842459  0.88240853  1
  O  O185  1  0.87634796  0.88362984  0.38113645  1
  O  O186  1  0.87576872  0.88033775  0.87440708  1
  O  O187  1  0.25786002  0.00778970  0.36918899  1
  O  O188  1  0.24790926  0.01310447  0.87371695  1
  O  O189  1  0.24593932  0.51131152  0.36920499  1
  O  O190  1  0.26180400  0.50624244  0.87124314  1
  O  O191  1  0.75692476  0.01328303  0.36984680  1
  O  O192  1  0.76295272  0.01173936  0.87987831  1
  O  O193  1  0.75083302  0.50302573  0.36014181  1
  O  O194  1  0.75426942  0.51574596  0.86977405  1
  O  O195  1  0.24398181  0.49200138  0.13492694  1
  O  O196  1  0.23981840  0.49654793  0.61905003  1
  O  O197  1  0.23852317  1.00606817  0.13488734  1
  O  O198  1  0.24639970  0.98436995  0.62268863  1
  O  O199  1  0.74030183  0.49952108  0.13268059  1
  O  O200  1  0.73741811  0.49041624  0.62943936  1
  O  O201  1  0.75131529  0.99359659  0.13315427  1
  O  O202  1  0.73461738  1.00199493  0.62377101  1
  O  O203  1  0.00583828  0.37078200  0.25777503  1
  O  O204  1  -0.00033587  0.36881379  0.75543984  1
  O  O205  1  -0.00598059  0.87374870  0.26928481  1
  O  O206  1  0.00722598  0.87261123  0.75391446  1
  O  O207  1  0.51223926  0.36947479  0.24678121  1
  O  O208  1  0.49016740  0.36866654  0.74420688  1
  O  O209  1  0.50632166  0.86971884  0.25126955  1
  O  O210  1  0.50899422  0.86539025  0.75349257  1
  O  O211  1  0.49164899  0.13068746  0.24976111  1
  O  O212  1  0.49241003  0.11459493  0.74941552  1
  O  O213  1  0.49427714  0.63149847  0.24993974  1
  O  O214  1  0.49078354  0.63814256  0.74854542  1
  O  O215  1  0.99330837  0.13035668  0.24504659  1
  O  O216  1  0.99199553  0.13110157  0.74361738  1
  O  O217  1  0.99221390  0.62279806  0.23990289  1
  O  O218  1  0.99035154  0.62491795  0.73908039  1
  O  O219  1  0.36231654  0.24637635  -0.00086784  1
  O  O220  1  0.38174255  0.26465877  0.50240880  1
  O  O221  1  0.35993908  0.75723715  -0.00327011  1
  O  O222  1  0.37471512  0.75435316  0.50760418  1
  O  O223  1  0.86713343  0.25898926  0.00409898  1
  O  O224  1  0.87940890  0.25076835  0.51067693  1
  O  O225  1  0.87459244  0.75713725  0.00768508  1
  O  O226  1  0.87422043  0.75815451  0.50858577  1
  O  O227  1  0.12312950  0.24031060  0.48688671  1
  O  O228  1  0.12770003  0.24618293  0.98667379  1
  O  O229  1  0.13723126  0.75431863  0.50500464  1
  O  O230  1  0.12965499  0.74229356  0.99333349  1
  O  O231  1  0.61843542  0.24369377  0.49162510  1
  O  O232  1  0.63894407  0.24419144  1.00400092  1
  O  O233  1  0.61824177  0.74048392  0.49207518  1
  O  O234  1  0.64403977  0.74614173  1.05343572  1
  O  O235  1  0.50997792  0.24301742  0.14256167  1
  O  O236  1  0.49015299  0.24594053  0.61564072  1
  O  O237  1  0.50102464  0.73517925  0.13765627  1
  O  O238  1  0.48872087  0.75680584  0.63726503  1
  O  O239  1  0.99635431  0.24552531  0.12916205  1
  O  O240  1  0.99567506  0.24270656  0.62915957  1
  O  O241  1  0.99075841  0.74448716  0.12532777  1
  O  O242  1  0.99053087  0.74157645  0.62657097  1
  O  O243  1  0.00782259  0.25503628  0.36660897  1
  O  O244  1  0.00654802  0.25836763  0.86928433  1
  O  O245  1  0.00094702  0.76398562  0.37425624  1
  O  O246  1  0.01105819  0.75922582  0.87411703  1
  O  O247  1  0.51630904  0.24587209  0.36311510  1
  O  O248  1  0.49229207  0.27450887  0.87455275  1
  O  O249  1  0.51170672  0.75280340  0.36691893  1
  O  O250  1  0.49515564  0.74991723  0.85981377  1
  O  O251  1  0.24522281  0.12253269  0.48750400  1
  O  O252  1  0.24682646  0.12923703  0.99345270  1
  O  O253  1  0.25342730  0.63062614  0.48658380  1
  O  O254  1  0.23794293  0.63369153  1.00775317  1
  O  O255  1  0.73586391  0.12193316  0.49256094  1
  O  O256  1  0.74749975  0.13333388  0.99201347  1
  O  O257  1  0.73407576  0.61633106  0.49773271  1
  O  O258  1  0.75489444  0.62702945  0.98089456  1
  O  O259  1  0.24734356  0.36274629  0.01038036  1
  O  O260  1  0.26837481  0.38405458  0.50674092  1
  O  O261  1  0.25530480  0.86760296  0.00067224  1
  O  O262  1  0.25712160  0.86724937  0.50389809  1
  O  O263  1  0.75846776  0.37001672  0.00261599  1
  O  O264  1  0.75058703  0.38045829  0.51591848  1
  O  O265  1  0.75528992  0.87240362  0.00389295  1
  O  O266  1  0.76328860  0.88049647  0.50290192  1
  O  O267  1  0.13562123  0.49251949  0.24485157  1
  O  O268  1  0.12185888  0.49479762  0.73002598  1
  O  O269  1  0.13620208  1.00342270  0.24234462  1
  O  O270  1  0.12658841  0.98653749  0.74658553  1
  O  O271  1  0.63014525  0.49462376  0.24531371  1
  O  O272  1  0.62211176  0.50598444  0.73702364  1
  O  O273  1  0.63189871  0.99586806  0.25354775  1
  O  O274  1  0.61834098  0.98381325  0.74298419  1
  O  O275  1  0.37190494  0.00879430  0.25643942  1
  O  O276  1  0.37107242  0.00963836  0.74750734  1
  O  O277  1  0.36488643  0.50314986  0.25037874  1
  O  O278  1  0.37117209  0.51884988  0.73841044  1
  O  O279  1  0.86772131  0.00774995  0.25767279  1
  O  O280  1  0.87978518  0.00715765  0.75715455  1
  O  O281  1  0.86694875  0.51222937  0.24700550  1
  O  O282  1  0.87341413  0.51394965  0.74251618  1
  O  O283  1  0.12185643  0.36760685  0.37228083  1
  O  O284  1  0.12029817  0.36652321  0.87160778  1
  O  O285  1  0.10957908  0.88460299  0.38126376  1
  O  O286  1  0.12036912  0.87008388  0.86711695  1
  O  O287  1  0.63499235  0.36700742  0.36723311  1
  O  O288  1  0.62917924  0.37552463  0.87445899  1
  O  O289  1  0.62575413  0.87196812  0.36665774  1
  O  O290  1  0.62326822  0.87745052  0.86325967  1
  O  O291  1  0.37257585  0.12318020  0.13856070  1
  O  O292  1  0.37155130  0.13328775  0.62733822  1
  O  O293  1  0.38682343  0.61824479  0.14125235  1
  O  O294  1  0.36828778  0.63775743  0.63015748  1
  O  O295  1  0.88021986  0.13127167  0.12860209  1
  O  O296  1  0.87931318  0.13018925  0.62828996  1
  O  O297  1  0.87928234  0.63221582  0.12707978  1
  O  O298  1  0.87964087  0.62900438  0.62929831  1
  O  O299  1  0.23913846  0.25518679  0.11551723  1
  O  O300  1  0.26061354  0.25774500  0.61949085  1
  O  O301  1  0.24059269  0.75263706  0.11818695  1
  O  O302  1  0.25695239  0.75931844  0.61614359  1
  O  O303  1  0.75539128  0.25806193  0.11631124  1
  O  O304  1  0.76070469  0.26317585  0.62165168  1
  O  O305  1  0.77111790  0.76210370  0.14182236  1
  O  O306  1  0.76079191  0.74769940  0.62883401  1
  O  O307  1  0.24081196  0.24035148  0.36854108  1
  O  O308  1  0.24036957  0.23626416  0.88403054  1
  O  O309  1  0.25363213  0.73606899  0.38266789  1
  O  O310  1  0.23664326  0.75493902  0.88355435  1
  O  O311  1  0.74253043  0.23806881  0.36986477  1
  O  O312  1  0.75956402  0.23735827  0.88111889  1
  O  O313  1  0.73696761  0.75077266  0.36737564  1
  O  O314  1  0.74903237  0.73131221  0.87236532  1
  O  O315  1  -0.00212213  0.11949130  0.00597050  1
  O  O316  1  0.00983828  0.12873452  0.50760780  1
  O  O317  1  0.00847431  0.61780760  0.00363881  1
  O  O318  1  -0.00295363  0.62743827  0.51102465  1
  O  O319  1  0.50887749  0.12063747  -0.00195950  1
  O  O320  1  0.51262916  0.11654828  0.49391380  1
  O  O321  1  0.48762818  0.63363859  0.01630268  1
  O  O322  1  0.50932821  0.61169997  0.49641822  1
  O  O323  1  0.48783413  0.38936362  0.49964671  1
  O  O324  1  0.49394351  0.38214418  1.01954485  1
  O  O325  1  0.49505364  0.88264773  0.50033455  1
  O  O326  1  0.49386475  0.88056613  0.99995719  1
  O  O327  1  1.00116671  0.36981802  0.48558142  1
  O  O328  1  0.99448265  0.37820087  0.99162530  1
  O  O329  1  0.98632735  0.87556437  0.48722849  1
  O  O330  1  0.99170625  0.88088963  0.99080895  1
  O  O331  1  0.50664366  0.49927684  0.38513754  1
  O  O332  1  0.47322782  0.49652598  0.86990577  1
  O  O333  1  0.49521105  0.99838880  0.38705559  1
  O  O334  1  0.49733714  0.99657771  0.88952563  1
  O  O335  1  0.99973623  0.48992463  0.37425159  1
  O  O336  1  1.00751709  0.48671662  0.87748188  1
  O  O337  1  0.98776536  0.99666950  0.37007206  1
  O  O338  1  0.98993949  0.99440999  0.87818121  1
  O  O339  1  0.00242077  0.00671309  0.12172620  1
  O  O340  1  0.00049233  0.01525820  0.62897656  1
  O  O341  1  0.00713683  0.50136053  0.11657108  1
  O  O342  1  0.00925627  0.50902056  0.62069072  1
  O  O343  1  0.50200524  0.00702924  0.11357509  1
  O  O344  1  0.50968549  -0.00345888  0.61395808  1
  O  O345  1  0.50706406  0.51039352  0.12840184  1
  O  O346  1  0.51342983  0.49862352  0.61403062  1
  O  O347  1  0.24517021  0.37860616  0.24685162  1
  O  O348  1  0.25554300  0.37246498  0.73086830  1
  O  O349  1  0.26018727  0.88959512  0.25487790  1
  O  O350  1  0.24313713  0.87294590  0.74110947  1
  O  O351  1  0.74249994  0.38375075  0.24291524  1
  O  O352  1  0.75483856  0.37561338  0.73196291  1
  O  O353  1  0.74440471  0.88403567  0.24732862  1
  O  O354  1  0.73254123  0.86716865  0.74760512  1
  O  O355  1  0.25736786  0.11771251  0.25995472  1
  O  O356  1  0.25498882  0.12305125  0.75519458  1
  O  O357  1  0.25887584  0.61537035  0.26019134  1
  O  O358  1  0.26125212  0.63594646  0.74883984  1
  O  O359  1  0.75449001  0.12198730  0.25605843  1
  O  O360  1  0.76574615  0.12567955  0.75694908  1
  O  O361  1  0.75712759  0.61990230  0.24538688  1
  O  O362  1  0.76149819  0.62223976  0.76050420  1
  O  O363  1  0.36962236  0.12166528  0.37096565  1
  O  O364  1  0.36669412  0.12371021  0.86420457  1
  O  O365  1  0.36990046  0.62524377  0.36606401  1
  O  O366  1  0.37243536  0.61539626  0.86184943  1
  O  O367  1  0.86942739  0.12083330  0.37333985  1
  O  O368  1  0.87289518  0.11815389  0.86614172  1
  O  O369  1  0.87316712  0.62589573  0.36446562  1
  O  O370  1  0.88528919  0.62644489  0.86005946  1
  O  O371  1  0.13171679  0.37766068  0.13128750  1
  O  O372  1  0.13715435  0.37995567  0.62409275  1
  O  O373  1  0.11550264  0.89032815  0.12046206  1
  O  O374  1  0.12910333  0.87332298  0.63084831  1
  O  O375  1  0.63109880  0.38700029  0.13405315  1
  O  O376  1  0.63160493  0.38469310  0.62258853  1
  O  O377  1  0.62912915  0.88359737  0.14091751  1
  O  O378  1  0.62764222  0.88102365  0.63243619  1
  O  O379  1  0.12039275  0.25353152  0.25938942  1
  O  O380  1  0.12003296  0.25301593  0.75941376  1
  O  O381  1  0.12696242  0.74823292  0.24238874  1
  O  O382  1  0.12338865  0.75922760  0.75543724  1
  O  O383  1  0.62328319  0.25968840  0.25694313  1
  O  O384  1  0.61491470  0.22716058  0.73277086  1
  O  O385  1  0.61664565  0.75966399  0.25385910  1
  O  O386  1  0.61097958  0.75750624  0.74235486  1
  O  O387  1  0.38649437  0.24163290  0.25678902  1
  O  O388  1  0.37594789  0.23300259  0.73440922  1
  O  O389  1  0.38733469  0.74222153  0.25655366  1
  O  O390  1  0.38248890  0.74417189  0.74412222  1
  O  O391  1  0.87940771  0.24526275  0.24329798  1
  O  O392  1  0.88213795  0.24133988  0.73903361  1
  O  O393  1  0.88311268  0.73932178  0.24515321  1
  O  O394  1  0.87788010  0.73785620  0.74032186  1
  O  O395  1  0.38980214  0.49419023  0.50227113  1
  O  O396  1  0.36415913  0.50093864  0.99385141  1
  O  O397  1  0.38294985  0.99453647  0.49785805  1
  O  O398  1  0.38108429  0.99351916  0.99851526  1
  O  O399  1  0.88133613  0.49696753  0.49533414  1
  O  O400  1  0.88060944  0.48672551  1.00549608  1
  O  O401  1  0.87328311  0.99412273  0.49061042  1
  O  O402  1  0.87938938  0.99354935  0.99112075  1
  O  O403  1  0.11647381  0.00279963  0.00684749  1
  O  O404  1  0.12828110  0.01459626  0.50079748  1
  O  O405  1  0.12364245  0.50471192  0.00019731  1
  O  O406  1  0.11920182  0.49526732  0.51632375  1
  O  O407  1  0.61838641  0.00753673  0.00160077  1
  O  O408  1  0.61868899  0.00610182  0.50607704  1
  O  O409  1  0.62992200  0.49878813  0.01585479  1
  O  O410  1  0.61495128  0.50518541  0.50610284  1
  O  O411  1  0.35876433  0.37517235  0.12886733  1
  O  O412  1  0.36932246  0.36767649  0.61488830  1
  O  O413  1  0.37735627  0.87792231  0.11137990  1
  O  O414  1  0.36757616  0.86815745  0.62101795  1
  O  O415  1  0.87025326  0.37044955  0.11851433  1
  O  O416  1  0.87106337  0.36832736  0.62078184  1
  O  O417  1  0.87392668  0.87022176  0.11849478  1
  O  O418  1  0.87294844  0.86595050  0.61812833  1
  O  O419  1  0.13173503  0.13047958  0.37963706  1
  O  O420  1  0.12925207  0.13148547  0.87298336  1
  O  O421  1  0.13692029  0.62442231  0.37115712  1
  O  O422  1  0.11760906  0.63302715  0.88158879  1
  O  O423  1  0.63277871  0.13198222  0.38180143  1
  O  O424  1  0.63728497  0.12023799  0.88535828  1
  O  O425  1  0.62931053  0.63423660  0.38267369  1
  O  O426  1  0.63022470  0.61934596  0.87212376  1
