# generated using pymatgen
data_V85Zn86O256
_symmetry_space_group_name_H-M   'P 1'
_cell_length_a   16.96704456
_cell_length_b   16.94121213
_cell_length_c   16.95234874
_cell_angle_alpha   89.94931612
_cell_angle_beta   89.96242390
_cell_angle_gamma   89.98491516
_symmetry_Int_Tables_number   1
_chemical_formula_structural   V85Zn86O256
_chemical_formula_sum   'V85 Zn86 O256'
_cell_volume   4872.81900693
_cell_formula_units_Z   1
loop_
 _symmetry_equiv_pos_site_id
 _symmetry_equiv_pos_as_xyz
  1  'x, y, z'
loop_
 _atom_site_type_symbol
 _atom_site_label
 _atom_site_symmetry_multiplicity
 _atom_site_fract_x
 _atom_site_fract_y
 _atom_site_fract_z
 _atom_site_occupancy
  V  V0  1  -0.01152733  0.24774468  0.25613692  1
  V  V1  1  -0.00212471  0.24828246  0.76335668  1
  V  V2  1  0.49665256  0.24421874  0.75418747  1
  V  V3  1  0.87521665  0.24673743  0.62709255  1
  V  V4  1  0.62660301  0.36864599  0.25861317  1
  V  V5  1  0.37418090  0.37524724  0.50251731  1
  V  V6  1  0.62514280  0.62002275  -0.00122996  1
  V  V7  1  0.00420814  0.00209688  0.00202232  1
  V  V8  1  0.87836584  0.00778737  0.87012999  1
  V  V9  1  -0.00830838  0.12610315  0.13406486  1
  V  V10  1  0.49746281  0.62464717  0.12733672  1
  V  V11  1  0.25110379  0.75730788  0.50418285  1
  V  V12  1  0.25658393  0.75973407  0.00046132  1
  V  V13  1  0.37523828  0.88220702  0.49376890  1
  V  V14  1  0.62406111  0.75271994  0.37346557  1
  V  V15  1  0.87526423  0.49542827  0.37266706  1
  V  V16  1  0.23793917  0.24862622  0.00185735  1
  V  V17  1  0.37566588  0.49625291  0.87518741  1
  V  V18  1  0.11788661  0.62540519  0.01302072  1
  V  V19  1  0.49326428  -0.01850762  -0.00367147  1
  V  V20  1  0.49746502  0.63403653  0.62724772  1
  V  V21  1  0.25895697  0.00253105  0.25951939  1
  V  V22  1  0.87462376  0.87569668  0.49531927  1
  V  V23  1  0.88121870  0.37505495  0.49964067  1
  V  V24  1  0.61712143  0.87416655  0.75226872  1
  V  V25  1  0.62082374  0.50430475  0.62865711  1
  V  V26  1  0.24856293  0.62816554  0.37365729  1
  V  V27  1  0.80744758  0.31331847  0.07036168  1
  V  V28  1  0.25330307  0.24241736  0.49394947  1
  V  V29  1  0.49766337  0.24852734  0.25770121  1
  V  V30  1  0.37270261  0.36502892  0.00620736  1
  V  V31  1  0.88998533  0.49024240  0.88016878  1
  V  V32  1  0.24959019  0.37214101  0.62591780  1
  V  V33  1  0.72890037  0.13236163  0.37247827  1
  V  V34  1  0.75164707  0.49776777  0.74883004  1
  V  V35  1  0.49760178  0.75336902  0.24960599  1
  V  V36  1  0.74760204  0.87579678  0.12493992  1
  V  V37  1  0.49321552  0.13351788  0.11536819  1
  V  V38  1  0.51306517  0.12449860  0.62502507  1
  V  V39  1  0.12708368  -0.00577137  0.62592406  1
  V  V40  1  0.24960526  0.62608526  0.87560159  1
  V  V41  1  0.73941314  0.36839345  0.61469199  1
  V  V42  1  0.75058172  0.61931018  0.37237280  1
  V  V43  1  0.37439967  0.23912448  0.62937585  1
  V  V44  1  0.62392435  0.00909909  0.11824708  1
  V  V45  1  0.87674544  0.61992105  0.23740760  1
  V  V46  1  0.00089479  0.62136495  0.62038263  1
  V  V47  1  0.00045633  0.74944168  0.74683458  1
  V  V48  1  0.12425019  0.74973692  0.87259081  1
  V  V49  1  0.75119786  0.62063377  0.87303726  1
  V  V50  1  0.12439696  0.37217464  0.25008718  1
  V  V51  1  -0.00109143  0.87453601  0.87244324  1
  V  V52  1  0.75083682  0.74554514  -0.00195628  1
  V  V53  1  0.87567118  0.62292476  0.74631349  1
  V  V54  1  0.61539917  0.75204933  0.87140451  1
  V  V55  1  0.87645021  0.87280592  -0.00222521  1
  V  V56  1  0.12907522  0.87882186  0.24375637  1
  V  V57  1  0.49559425  0.49803662  0.00286108  1
  V  V58  1  0.12961883  0.12162784  0.49694891  1
  V  V59  1  0.75063815  0.74959965  0.49827508  1
  V  V60  1  0.12726721  0.24871738  0.37338708  1
  V  V61  1  0.62350670  0.62517609  0.50064935  1
  V  V62  1  0.00089146  0.74675054  0.24382013  1
  V  V63  1  0.62257370  0.37409476  0.75758853  1
  V  V64  1  -0.00118084  0.12657824  0.62688747  1
  V  V65  1  0.12408511  0.49454913  0.62370170  1
  V  V66  1  0.62450864  0.49372253  0.13047301  1
  V  V67  1  0.12108665  0.36991423  0.76394813  1
  V  V68  1  0.25912304  -0.00890273  0.74629521  1
  V  V69  1  0.50700024  0.00489341  0.49198176  1
  V  V70  1  0.00566568  0.49849274  0.48662605  1
  V  V71  1  -0.00198237  0.87582104  0.37249071  1
  V  V72  1  0.75159698  0.87646359  0.62632398  1
  V  V73  1  0.37827239  0.62802973  0.75038703  1
  V  V74  1  0.24810660  0.13155916  0.86305720  1
  V  V75  1  0.74826183  0.12984473  0.88560540  1
  V  V76  1  0.87641605  0.74870218  0.62127755  1
  V  V77  1  0.37363555  0.50014657  0.37370942  1
  V  V78  1  0.37225294  0.76031070  0.62945265  1
  V  V79  1  0.87339386  0.01210768  0.36803618  1
  V  V80  1  0.37145684  0.12823346  0.26218783  1
  V  V81  1  0.75470641  0.00573683  0.74955099  1
  V  V82  1  0.12673734  0.75058757  0.37384391  1
  V  V83  1  0.87749734  0.74726302  0.12247385  1
  V  V84  1  0.24938346  0.37716745  0.12734625  1
  Zn  Zn85  1  -0.00057238  0.00171844  0.49932654  1
  Zn  Zn86  1  0.49637100  0.50089584  0.50218990  1
  Zn  Zn87  1  0.61549078  0.23111167  0.89119959  1
  Zn  Zn88  1  0.24705519  0.50346488  0.24336051  1
  Zn  Zn89  1  0.37583552  -0.00290481  0.87923437  1
  Zn  Zn90  1  0.12842285  0.87192538  0.74287425  1
  Zn  Zn91  1  0.37333533  0.62425054  0.24785895  1
  Zn  Zn92  1  0.74179893  0.23585444  0.50158758  1
  Zn  Zn93  1  0.13017172  0.00631246  0.12498263  1
  Zn  Zn94  1  0.38135722  0.75705494  0.11673798  1
  Zn  Zn95  1  0.12176917  0.12968374  -0.00222661  1
  Zn  Zn96  1  0.12897908  0.62571021  0.50046631  1
  Zn  Zn97  1  0.06629149  0.47528371  0.08321927  1
  Zn  Zn98  1  0.62946751  0.00361744  0.62253147  1
  Zn  Zn99  1  0.24989912  0.49707680  0.74906285  1
  Zn  Zn100  1  0.75105027  0.49223896  0.24602098  1
  Zn  Zn101  1  0.26364698  0.88791014  0.11640902  1
  Zn  Zn102  1  0.49768267  0.88026986  0.37162049  1
  Zn  Zn103  1  0.49958095  0.36602766  0.88196180  1
  Zn  Zn104  1  0.62504549  0.87799390  0.24747550  1
  Zn  Zn105  1  0.49723057  0.37009238  0.37886650  1
  Zn  Zn106  1  0.75207041  0.00978795  0.24355932  1
  Zn  Zn107  1  0.18760722  0.18572065  0.18122756  1
  Zn  Zn108  1  0.18324857  0.18709724  0.68587936  1
  Zn  Zn109  1  0.19138969  0.69125395  0.18690283  1
  Zn  Zn110  1  0.19076601  0.68505157  0.68681089  1
  Zn  Zn111  1  0.68681257  0.18885751  0.18812157  1
  Zn  Zn112  1  0.68842387  0.18923398  0.69762280  1
  Zn  Zn113  1  0.68687589  0.68472475  0.18656506  1
  Zn  Zn114  1  0.68807835  0.69109936  0.68833858  1
  Zn  Zn115  1  0.31330761  0.30945824  0.31240195  1
  Zn  Zn116  1  0.31143643  0.31091507  0.81283656  1
  Zn  Zn117  1  0.31544089  0.81553393  0.30979031  1
  Zn  Zn118  1  0.32026651  0.81739339  0.81589512  1
  Zn  Zn119  1  0.80936911  0.31026541  0.31361751  1
  Zn  Zn120  1  0.81410666  0.31300836  0.81173427  1
  Zn  Zn121  1  0.81191478  0.81175728  0.30947142  1
  Zn  Zn122  1  0.81044255  0.81258634  0.81139307  1
  Zn  Zn123  1  0.18958117  0.43435255  0.43241391  1
  Zn  Zn124  1  0.18937718  0.44075857  0.93990873  1
  Zn  Zn125  1  0.18841088  0.93695103  0.43514141  1
  Zn  Zn126  1  0.18668981  0.93960048  0.92894783  1
  Zn  Zn127  1  0.68049552  0.41913560  0.44886320  1
  Zn  Zn128  1  0.67210795  0.39970638  0.96069679  1
  Zn  Zn129  1  0.68918913  0.94170464  0.43514123  1
  Zn  Zn130  1  0.68576992  0.94034058  0.93775589  1
  Zn  Zn131  1  0.31447775  0.06632318  0.06578228  1
  Zn  Zn132  1  0.31559960  0.06030213  0.56496179  1
  Zn  Zn133  1  0.30896110  0.56292846  0.06155250  1
  Zn  Zn134  1  0.31008308  0.56461665  0.56170987  1
  Zn  Zn135  1  0.81668432  0.06178899  0.06063227  1
  Zn  Zn136  1  0.81194752  0.06374404  0.55624562  1
  Zn  Zn137  1  0.79600256  0.51448131  0.04126810  1
  Zn  Zn138  1  0.81106871  0.55605621  0.55933014  1
  Zn  Zn139  1  0.43506279  0.43407412  0.18956934  1
  Zn  Zn140  1  0.43800133  0.43529336  0.68959245  1
  Zn  Zn141  1  0.43784169  0.93967759  0.18338037  1
  Zn  Zn142  1  0.43879173  0.94004669  0.68721317  1
  Zn  Zn143  1  0.94149536  0.41882701  0.15798377  1
  Zn  Zn144  1  0.93882297  0.43245526  0.68836568  1
  Zn  Zn145  1  0.93758129  0.93722607  0.18625905  1
  Zn  Zn146  1  0.93910845  0.93827221  0.68642087  1
  Zn  Zn147  1  0.06580222  0.06192204  0.31399426  1
  Zn  Zn148  1  0.06844852  0.06576780  0.81158125  1
  Zn  Zn149  1  0.03977948  0.53734070  0.27358208  1
  Zn  Zn150  1  0.06587934  0.56337672  0.80901345  1
  Zn  Zn151  1  0.56260152  0.06141893  0.30393975  1
  Zn  Zn152  1  0.56495827  0.05939058  0.81296166  1
  Zn  Zn153  1  0.55943396  0.56093338  0.31390204  1
  Zn  Zn154  1  0.55952519  0.56311819  0.81357848  1
  Zn  Zn155  1  0.43949483  0.18343723  0.43808326  1
  Zn  Zn156  1  0.42483604  0.18227146  0.93405624  1
  Zn  Zn157  1  0.43591350  0.68919521  0.43880749  1
  Zn  Zn158  1  0.43761524  0.68705707  0.93640109  1
  Zn  Zn159  1  0.93952872  0.18996012  0.44030250  1
  Zn  Zn160  1  0.92829358  0.18889707  0.94705283  1
  Zn  Zn161  1  0.93985977  0.68403694  0.43172672  1
  Zn  Zn162  1  0.93707553  0.67902144  0.93661050  1
  Zn  Zn163  1  0.05510994  0.30553088  0.06352187  1
  Zn  Zn164  1  0.06229235  0.31118051  0.56110328  1
  Zn  Zn165  1  0.06564935  0.81173012  0.06162260  1
  Zn  Zn166  1  0.06137395  0.81332255  0.55830648  1
  Zn  Zn167  1  0.56424832  0.30694405  0.06913209  1
  Zn  Zn168  1  0.56083351  0.31444389  0.56655012  1
  Zn  Zn169  1  0.56625895  0.81061164  0.06169068  1
  Zn  Zn170  1  0.56141305  0.81676425  0.56359592  1
  O  O171  1  0.11241913  0.12287446  0.11833757  1
  O  O172  1  0.11821507  0.11812621  0.61536960  1
  O  O173  1  0.12879085  0.63054654  0.11244912  1
  O  O174  1  0.12221240  0.61051019  0.62357803  1
  O  O175  1  0.60871971  0.11824776  0.13204476  1
  O  O176  1  0.61693124  0.12927104  0.62559988  1
  O  O177  1  0.61293081  0.62043976  0.11962372  1
  O  O178  1  0.61648602  0.62390924  0.62363227  1
  O  O179  1  0.37279783  0.38270939  0.38445946  1
  O  O180  1  0.37405064  0.38316506  0.88179975  1
  O  O181  1  0.37944610  0.86974037  0.38974397  1
  O  O182  1  0.38484273  0.88843601  0.86302761  1
  O  O183  1  0.86911018  0.38826506  0.38140324  1
  O  O184  1  0.87099040  0.39137813  0.87081441  1
  O  O185  1  0.87710591  0.87873080  0.38002543  1
  O  O186  1  0.88039266  0.88048844  0.87960358  1
  O  O187  1  0.24682130  0.00092210  0.35880008  1
  O  O188  1  0.24812269  0.00577356  0.85821721  1
  O  O189  1  0.26029672  0.50997901  0.37958382  1
  O  O190  1  0.26006862  0.50897106  0.87451400  1
  O  O191  1  0.75862979  0.00926058  0.37086478  1
  O  O192  1  0.75954684  0.00404227  0.86933355  1
  O  O193  1  0.75372331  0.51150840  0.37797305  1
  O  O194  1  0.76007211  0.51334547  0.86553038  1
  O  O195  1  0.25211552  0.48644023  0.12580967  1
  O  O196  1  0.24117978  0.49361286  0.62550838  1
  O  O197  1  0.24717765  1.00180617  0.13562225  1
  O  O198  1  0.24048259  1.00882547  0.63750920  1
  O  O199  1  0.72885679  0.51345913  0.13137132  1
  O  O200  1  0.73863913  0.49731220  0.63175527  1
  O  O201  1  0.74418977  0.99403824  0.12233376  1
  O  O202  1  0.75145484  0.99584811  0.63096302  1
  O  O203  1  0.01017164  0.35294729  0.24620603  1
  O  O204  1  0.01183468  0.36244954  0.74668145  1
  O  O205  1  0.00683847  0.86721666  0.25379629  1
  O  O206  1  0.00150832  0.86621213  0.75478570  1
  O  O207  1  0.50170750  0.36477752  0.25403864  1
  O  O208  1  0.50410906  0.36201879  0.75265539  1
  O  O209  1  0.50454042  0.86805639  0.25349619  1
  O  O210  1  0.51891717  0.87919816  0.74298125  1
  O  O211  1  0.48931600  0.12945689  0.24567977  1
  O  O212  1  0.50700958  0.13571382  0.74294467  1
  O  O213  1  0.49870909  0.63172742  0.24214304  1
  O  O214  1  0.48611942  0.62372895  0.74420046  1
  O  O215  1  1.00571850  0.12999891  0.24183668  1
  O  O216  1  1.00925145  0.13797386  0.73795693  1
  O  O217  1  0.98874612  0.64192526  0.26371388  1
  O  O218  1  0.99596761  0.63012261  0.73935268  1
  O  O219  1  0.36200100  0.26219298  -0.00708658  1
  O  O220  1  0.36970339  0.25419091  0.50582840  1
  O  O221  1  0.35937095  0.74581673  -0.00510719  1
  O  O222  1  0.36930845  0.75769987  0.50838385  1
  O  O223  1  0.87247296  0.26039305  0.01263778  1
  O  O224  1  0.87196755  0.26092554  0.50551037  1
  O  O225  1  0.87026155  0.75112619  0.00244037  1
  O  O226  1  0.87122817  0.75439098  0.50160138  1
  O  O227  1  0.13341761  0.24267372  0.49644926  1
  O  O228  1  0.13360598  0.25319695  0.99841831  1
  O  O229  1  0.13434512  0.75173788  0.49342044  1
  O  O230  1  0.13413826  0.74289325  0.99120314  1
  O  O231  1  0.66398949  0.31752687  0.52102529  1
  O  O232  1  0.62718612  0.29586060  0.97976579  1
  O  O233  1  0.62912348  0.74493535  0.49311543  1
  O  O234  1  0.63286637  0.74136511  0.99206371  1
  O  O235  1  0.50242654  0.23890952  0.13786065  1
  O  O236  1  0.49475379  0.24389497  0.62975808  1
  O  O237  1  0.50308352  0.74204119  0.13225130  1
  O  O238  1  0.49159606  0.74024533  0.62178269  1
  O  O239  1  1.00187768  0.23353593  0.14168290  1
  O  O240  1  0.99439042  0.24405604  0.62919232  1
  O  O241  1  0.99344553  0.75567561  0.13425425  1
  O  O242  1  0.99578241  0.74265814  0.62585345  1
  O  O243  1  0.01186810  0.23990619  0.36402201  1
  O  O244  1  -0.00703221  0.23916742  0.86156686  1
  O  O245  1  0.00635781  0.75809427  0.36907513  1
  O  O246  1  0.00712634  0.75117878  0.86748843  1
  O  O247  1  0.49667565  0.24974536  0.36416022  1
  O  O248  1  0.49715997  0.24640926  0.86812201  1
  O  O249  1  0.50937839  0.74968197  0.36903576  1
  O  O250  1  0.51664569  0.74126757  0.87630132  1
  O  O251  1  0.24355603  0.13164686  0.50760148  1
  O  O252  1  0.24803726  0.13501884  0.99712921  1
  O  O253  1  0.25066571  0.63876384  0.49368457  1
  O  O254  1  0.24376636  0.63410345  0.98885734  1
  O  O255  1  0.74887650  0.12276055  0.48214123  1
  O  O256  1  0.75426213  0.11963385  0.98468785  1
  O  O257  1  0.74386752  0.62978101  0.49383189  1
  O  O258  1  0.74242749  0.62205691  0.98964580  1
  O  O259  1  0.25344030  0.37008796  0.00536503  1
  O  O260  1  0.25877670  0.36603462  0.50592693  1
  O  O261  1  0.24125630  0.86260410  -0.00238341  1
  O  O262  1  0.25799918  0.86633728  0.49635397  1
  O  O263  1  0.76950275  0.39871882  0.01647628  1
  O  O264  1  0.77839266  0.40726272  0.51005585  1
  O  O265  1  0.75578108  0.86902174  0.00718296  1
  O  O266  1  0.75554489  0.86961866  0.50434610  1
  O  O267  1  0.13519905  0.47479697  0.27424452  1
  O  O268  1  0.12500695  0.48742130  0.74087465  1
  O  O269  1  0.13476298  0.99371976  0.24942208  1
  O  O270  1  0.13198412  0.99760645  0.74074004  1
  O  O271  1  0.62300364  0.49289858  0.24564401  1
  O  O272  1  0.62931375  0.50292425  0.74099887  1
  O  O273  1  0.62776311  0.99602616  0.23418821  1
  O  O274  1  0.63484154  0.98864774  0.74843872  1
  O  O275  1  0.36630906  0.00921879  0.24987889  1
  O  O276  1  0.35992967  0.00404041  0.73982948  1
  O  O277  1  0.37036667  0.50183540  0.26039209  1
  O  O278  1  0.37199879  0.50559767  0.75717956  1
  O  O279  1  0.87167578  -0.00763320  0.26462204  1
  O  O280  1  0.86896909  -0.00646076  0.75979704  1
  O  O281  1  0.86774980  0.50676048  0.26017738  1
  O  O282  1  0.86942512  0.50530870  0.74887382  1
  O  O283  1  0.13056173  0.35506738  0.37383286  1
  O  O284  1  0.12841987  0.38047582  0.86173574  1
  O  O285  1  0.11964658  0.87072341  0.36364594  1
  O  O286  1  0.11831374  0.86195301  0.87099011  1
  O  O287  1  0.61292117  0.38667152  0.36247836  1
  O  O288  1  0.61734248  0.40026024  0.85821025  1
  O  O289  1  0.62896707  0.86150445  0.37276301  1
  O  O290  1  0.63378053  0.86677981  0.86183424  1
  O  O291  1  0.39049022  0.12193587  0.13606186  1
  O  O292  1  0.38656909  0.13676933  0.62100531  1
  O  O293  1  0.38652536  0.62897384  0.12315420  1
  O  O294  1  0.37993713  0.63153672  0.63126469  1
  O  O295  1  0.89209138  0.11486921  0.12741939  1
  O  O296  1  0.88377631  0.13705107  0.61655283  1
  O  O297  1  0.86899122  0.63086025  0.13654341  1
  O  O298  1  0.87969959  0.62720407  0.62705514  1
  O  O299  1  0.24727213  0.26164819  0.11378302  1
  O  O300  1  0.25736957  0.25200509  0.61855082  1
  O  O301  1  0.25193305  0.75108044  0.10742964  1
  O  O302  1  0.25851688  0.74595293  0.61497380  1
  O  O303  1  0.73655369  0.25189845  0.10891088  1
  O  O304  1  0.76041221  0.24971699  0.62826512  1
  O  O305  1  0.75419615  0.75459953  0.11686098  1
  O  O306  1  0.75759397  0.75476784  0.61741163  1
  O  O307  1  0.24706986  0.24826869  0.38834433  1
  O  O308  1  0.25197804  0.23732153  0.87897217  1
  O  O309  1  0.24804128  0.74598471  0.38006979  1
  O  O310  1  0.24337208  0.74574065  0.87960764  1
  O  O311  1  0.74820500  0.23614245  0.37961116  1
  O  O312  1  0.75407077  0.23117834  0.86572964  1
  O  O313  1  0.74480038  0.73994220  0.37852979  1
  O  O314  1  0.74710197  0.73786683  0.87873249  1
  O  O315  1  -0.00085629  0.11774038  0.00927311  1
  O  O316  1  0.00887926  0.12488538  0.51098143  1
  O  O317  1  0.01930801  0.63346568  -0.00108125  1
  O  O318  1  0.00635194  0.61690361  0.50279581  1
  O  O319  1  0.49534865  0.13570329  0.01426513  1
  O  O320  1  0.49809475  0.11236054  0.50724272  1
  O  O321  1  0.50520195  0.61876808  0.00667189  1
  O  O322  1  0.50586537  0.62459368  0.50924144  1
  O  O323  1  0.48524981  0.37602277  0.50143738  1
  O  O324  1  0.48656516  0.38147767  1.00206004  1
  O  O325  1  0.49380838  0.88628491  0.49876055  1
  O  O326  1  0.50181542  0.88266924  0.99979419  1
  O  O327  1  0.99101314  0.38327330  0.50178944  1
  O  O328  1  0.99171122  0.39410748  1.05366460  1
  O  O329  1  0.99198433  0.87740079  0.49052612  1
  O  O330  1  0.99632191  0.87922308  0.99266374  1
  O  O331  1  0.48384555  0.50340893  0.38112487  1
  O  O332  1  0.48598596  0.50202778  0.88109097  1
  O  O333  1  0.50570155  0.99996847  0.38821364  1
  O  O334  1  0.50319189  1.01069860  0.89610487  1
  O  O335  1  0.99146798  0.50451968  0.37962191  1
  O  O336  1  0.98814540  0.50119144  0.86092261  1
  O  O337  1  0.98959477  0.99428197  0.37444671  1
  O  O338  1  0.99514512  0.99732638  0.87827381  1
  O  O339  1  0.00375196  0.00505813  0.11868410  1
  O  O340  1  0.00563196  0.01020934  0.62427021  1
  O  O341  1  0.00199014  0.51354309  0.16912775  1
  O  O342  1  0.00725102  0.50165603  0.61507855  1
  O  O343  1  0.50619515  0.00916707  0.11395328  1
  O  O344  1  0.50530493  0.01005606  0.61950584  1
  O  O345  1  0.50390066  0.50751374  0.12428347  1
  O  O346  1  0.50427031  0.51299014  0.62685408  1
  O  O347  1  0.24533090  0.37073318  0.24182387  1
  O  O348  1  0.23747585  0.37285406  0.74406944  1
  O  O349  1  0.24532306  0.88581131  0.24998420  1
  O  O350  1  0.24671660  0.88782691  0.74767970  1
  O  O351  1  0.73034229  0.37544171  0.26099801  1
  O  O352  1  0.74037617  0.37818245  0.73984945  1
  O  O353  1  0.74971910  0.87314166  0.23364373  1
  O  O354  1  0.74803781  0.88399037  0.74292775  1
  O  O355  1  0.26347586  0.11787610  0.24468910  1
  O  O356  1  0.24363099  0.12054371  0.75850670  1
  O  O357  1  0.25290515  0.62453427  0.25753446  1
  O  O358  1  0.25712116  0.62149457  0.76106108  1
  O  O359  1  0.74598213  0.12565555  0.26481616  1
  O  O360  1  0.74900197  0.10949179  0.75608988  1
  O  O361  1  0.75848964  0.62635649  0.25884897  1
  O  O362  1  0.75565048  0.62057418  0.75308396  1
  O  O363  1  0.37630077  0.12336916  0.36135457  1
  O  O364  1  0.35362849  0.11341880  0.87760800  1
  O  O365  1  0.36462690  0.62007797  0.37654125  1
  O  O366  1  0.36874995  0.62020247  0.86830683  1
  O  O367  1  0.87771752  0.11191610  0.37882109  1
  O  O368  1  0.86901105  0.11263384  0.87791721  1
  O  O369  1  0.86698083  0.61668939  0.36986249  1
  O  O370  1  0.86900157  0.62426389  0.86081564  1
  O  O371  1  0.13395313  0.37574752  0.13698777  1
  O  O372  1  0.12914319  0.38214686  0.62732057  1
  O  O373  1  0.12870553  0.87532575  0.13723984  1
  O  O374  1  0.11775147  0.89030726  0.62236213  1
  O  O375  1  0.61426206  0.38529965  0.14410710  1
  O  O376  1  0.61823852  0.38981722  0.64330089  1
  O  O377  1  0.63463934  0.88032297  0.12384191  1
  O  O378  1  0.63556974  0.87274731  0.63525187  1
  O  O379  1  0.12713358  0.25175451  0.25943288  1
  O  O380  1  0.11403129  0.26160888  0.74613851  1
  O  O381  1  0.11945952  0.75624723  0.25360124  1
  O  O382  1  0.12085278  0.74973860  0.75460560  1
  O  O383  1  0.61564461  0.26308703  0.24951487  1
  O  O384  1  0.61743299  0.26009701  0.75943866  1
  O  O385  1  0.61582798  0.74897651  0.25720460  1
  O  O386  1  0.63267634  0.76381900  0.75749444  1
  O  O387  1  0.37960872  0.23649693  0.25179069  1
  O  O388  1  0.38342183  0.25460322  0.74050473  1
  O  O389  1  0.38948771  0.74613956  0.25254755  1
  O  O390  1  0.36386426  0.73960824  0.73996494  1
  O  O391  1  0.89081168  0.24555858  0.26618879  1
  O  O392  1  0.89052454  0.25578299  0.74148468  1
  O  O393  1  0.88236856  0.74463216  0.24397477  1
  O  O394  1  0.87942277  0.74386810  0.74078232  1
  O  O395  1  0.37312752  0.49077566  0.49732085  1
  O  O396  1  0.37675977  0.49447447  0.99258161  1
  O  O397  1  0.38823053  0.99131120  0.50865291  1
  O  O398  1  0.39083187  1.00187344  1.00414496  1
  O  O399  1  0.89164234  0.50184237  0.49242181  1
  O  O400  1  0.88674326  0.51967817  0.97777471  1
  O  O401  1  0.87609737  0.99148917  0.48757333  1
  O  O402  1  0.88731209  0.99240044  0.99183898  1
  O  O403  1  0.11163283  -0.00415574  -0.00114122  1
  O  O404  1  0.12509104  0.00581315  0.50516102  1
  O  O405  1  0.13004004  0.51875445  -0.00102791  1
  O  O406  1  0.11894277  0.49696171  0.50345166  1
  O  O407  1  0.61510699  -0.00480626  0.01121140  1
  O  O408  1  0.61088326  -0.00819661  0.50499569  1
  O  O409  1  0.61464985  0.49900073  0.01023102  1
  O  O410  1  0.62161422  0.50500342  0.51446031  1
  O  O411  1  0.36692186  0.37757724  0.11511895  1
  O  O412  1  0.36966920  0.36685048  0.62002487  1
  O  O413  1  0.37366425  0.86823132  0.12868436  1
  O  O414  1  0.38141091  0.86382909  0.61812279  1
  O  O415  1  0.84961176  0.35648973  0.15271981  1
  O  O416  1  0.87100561  0.36340000  0.61911924  1
  O  O417  1  0.86908157  0.86877486  0.11691308  1
  O  O418  1  0.87136106  0.87041880  0.61509744  1
  O  O419  1  0.12336753  0.13011115  0.38973570  1
  O  O420  1  0.14229643  0.11885232  0.88152657  1
  O  O421  1  0.14060578  0.63284307  0.37781495  1
  O  O422  1  0.13266750  0.63416395  0.87483775  1
  O  O423  1  0.63039566  0.12327218  0.37476976  1
  O  O424  1  0.64269541  0.12042844  0.87382512  1
  O  O425  1  0.63122331  0.63227693  0.37890374  1
  O  O426  1  0.63344765  0.62839765  0.87660545  1
